@<TRIPOS>MOLECULE
*****
 39 44 0 0 0
SMALL
GASTEIGER

@<TRIPOS>ATOM
      1 C           2.1262    1.4807   19.6373 C.ar    1  UNL1       -0.0201
      2 C           2.5615    2.4967   20.6513 C.ar    1  UNL1       -0.0027
      3 C           1.5923    2.9867   21.6860 C.ar    1  UNL1        0.0173
      4 C           0.1877    2.4605   21.7067 C.ar    1  UNL1        0.0667
      5 C          -0.2475    1.4445   20.6927 C.ar    1  UNL1        0.0173
      6 C           0.7217    0.9546   19.6580 C.ar    1  UNL1       -0.0027
      7 N          -0.7815    2.9504   22.7414 N.ar    1  UNL1       -0.2754
      8 C          -2.0273    3.7431   22.4773 C.ar    1  UNL1        0.1503
      9 N          -2.6908    4.0163   23.7945 N.ar    1  UNL1       -0.2248
     10 C          -1.8551    3.3924   24.8727 C.ar    1  UNL1        0.1173
     11 C          -2.0162    3.3390   26.3631 C.ar    1  UNL1        0.0238
     12 C          -0.9973    2.6269   27.2025 C.ar    1  UNL1        0.0223
     13 C           0.1827    1.9681   26.5516 C.ar    1  UNL1        0.1006
     14 N           0.3438    2.0215   25.0612 N.ar    1  UNL1       -0.2248
     15 C          -0.6751    2.7336   24.2218 C.ar    1  UNL1        0.1666
     16 C          -2.5225    4.1851   21.1322 C.ar    1  UNL1        0.0537
     17 C          -2.0840    5.5038   20.5676 C.ar    1  UNL1        0.0062
     18 C          -2.5792    5.9458   19.2225 C.ar    1  UNL1        0.0208
     19 C          -3.5130    5.0691   18.4419 C.ar    1  UNL1        0.0989
     20 N          -3.9516    3.7504   19.0064 N.ar    1  UNL1       -0.2422
     21 C          -3.4563    3.3085   20.3516 C.ar    1  UNL1        0.1018
     22 C           3.0954    0.9908   18.6026 C.3     1  UNL1        0.0516
     23 CA          3.3744   -0.4772   18.4717 C.3     1  UNL1        0.1102
     24 O           3.6550   -1.3071   16.0258 O.co2   1  UNL1       -0.5475
     25 C           4.2511   -0.9780   17.3623 C.2     1  UNL1        0.0684
     26 OXT         5.7238   -1.1496   17.5895 O.co2   1  UNL1       -0.5475
     27 N           2.7768   -1.4443   19.4502 N.pl3   1  UNL1       -0.3320
     28 H           1.7992   -1.5003   19.5524 H       1  UNL1        0.1468
     29 C           3.6686   -2.3261   20.2730 C.2     1  UNL1        0.0372
     30 C           4.5211   -3.5285   19.9941 C.2     1  UNL1        0.0788
     31 BR          4.8348   -4.3470   18.7769 Br      1  UNL1       -0.0451
     32 C           4.9299   -3.5733   21.4366 C.2     1  UNL1        0.1842
     33 O           5.8218   -4.4551   22.2594 O.2     1  UNL1       -0.2904
     34 C           4.0775   -2.3709   21.7155 C.3     1  UNL1        0.0874
     35 C           4.6930   -2.7254   23.0367 C.3     1  UNL1        0.0126
     36 C           4.3794   -1.9069   24.2539 C.3     1  UNL1        0.0008
     37 C           3.4501   -0.7339   24.1500 C.3     1  UNL1        0.0000
     38 C           2.8346   -0.3795   22.8288 C.3     1  UNL1        0.0008
     39 C           3.1483   -1.1980   21.6116 C.3     1  UNL1        0.0126
@<TRIPOS>UNITY_ATOM_ATTR
24 1
charge -1
@<TRIPOS>BOND
     1    24    25   ar
     2    25    26   ar
     3    25    23    1
     4    23    22    1
     5    22     1    1
     6     1     2   ar
     7     2     3   ar
     8     3     4   ar
     9     4     7    1
    10     7     8   ar
    11     8    16    1
    12    16    17   ar
    13    17    18   ar
    14    18    19   ar
    15    19    20   ar
    16    20    21   ar
    17     8     9   ar
    18     9    10   ar
    19    10    11   ar
    20    11    12   ar
    21    12    13   ar
    22    13    14   ar
    23    14    15   ar
    24     4     5   ar
    25     5     6   ar
    26    23    27    1
    27    27    29    1
    28    29    30    2
    29    30    31    1
    30    30    32    1
    31    32    33    2
    32    32    34    1
    33    34    35    1
    34    35    36    1
    35    36    37    1
    36    37    38    1
    37    38    39    1
    38     6     1   ar
    39    34    29    1
    40    15     7   ar
    41    39    34    1
    42    21    16   ar
    43    15    10   ar
    44    27    28    1
@<TRIPOS>MOLECULE
*****
 39 44 0 0 0
SMALL
GASTEIGER

@<TRIPOS>ATOM
      1 C           3.6250    0.2298   22.4915 C.ar    1  UNL1       -0.0201
      2 C           2.8114   -0.4924   23.5243 C.ar    1  UNL1       -0.0027
      3 C           3.4663   -0.9997   24.7748 C.ar    1  UNL1        0.0173
      4 C           4.9348   -0.7849   24.9925 C.ar    1  UNL1        0.0667
      5 C           5.7483   -0.0628   23.9598 C.ar    1  UNL1        0.0173
      6 C           5.0935    0.4446   22.7093 C.ar    1  UNL1       -0.0027
      7 N           5.5897   -1.2922   26.2430 N.ar    1  UNL1       -0.2754
      8 C           5.1633   -0.9859   27.6482 C.ar    1  UNL1        0.1503
      9 N           6.0961   -1.6993   28.5815 N.ar    1  UNL1       -0.2248
     10 C           7.0989   -2.4466   27.7532 C.ar    1  UNL1        0.1173
     11 C           8.2565   -3.3236   28.1282 C.ar    1  UNL1        0.0238
     12 C           9.1012   -3.9490   27.0580 C.ar    1  UNL1        0.0223
     13 C           8.7882   -3.6973   25.6128 C.ar    1  UNL1        0.1006
     14 N           7.6306   -2.8203   25.2377 N.ar    1  UNL1       -0.2248
     15 C           6.7859   -2.1950   26.3079 C.ar    1  UNL1        0.1666
     16 C           4.0073   -0.1185   28.0495 C.ar    1  UNL1        0.0537
     17 C           4.0984    1.3708   27.8962 C.ar    1  UNL1        0.0062
     18 C           2.9423    2.2383   28.2975 C.ar    1  UNL1        0.0208
     19 C           1.6952    1.6164   28.8522 C.ar    1  UNL1        0.0989
     20 N           1.6040    0.1270   29.0056 N.ar    1  UNL1       -0.2422
     21 C           2.7601   -0.7404   28.6042 C.ar    1  UNL1        0.1018
     22 C           2.9701    0.7371   21.2410 C.3     1  UNL1        0.0516
     23 CA          2.1657   -0.1952   20.3844 C.3     1  UNL1        0.1102
     24 O           0.8108    0.5686   18.3033 O.co2   1  UNL1       -0.5475
     25 C           0.8784    0.2717   19.7721 C.2     1  UNL1        0.0684
     26 OXT        -0.3413    0.4415   20.6286 O.co2   1  UNL1       -0.5475
     27 N           2.6486   -1.5941   20.1402 N.pl3   1  UNL1       -0.3320
     28 H           2.1271   -2.3600   20.4729 H       1  UNL1        0.1468
     29 C           3.9260   -1.8262   19.3890 C.2     1  UNL1        0.0372
     30 C           4.4321   -1.4718   18.0221 C.2     1  UNL1        0.0788
     31 BR          3.8704   -0.7386   16.8403 Br      1  UNL1       -0.0451
     32 C           5.7326   -2.1543   18.3267 C.2     1  UNL1        0.1842
     33 O           7.0101   -2.3864   17.5755 O.2     1  UNL1       -0.2904
     34 C           5.2265   -2.5087   19.6936 C.3     1  UNL1        0.0874
     35 C           6.6138   -3.0763   19.6340 C.3     1  UNL1        0.0126
     36 C           7.1755   -3.8095   20.8158 C.3     1  UNL1        0.0008
     37 C           6.3501   -3.9751   22.0574 C.3     1  UNL1        0.0000
     38 C           4.9629   -3.4076   22.1169 C.3     1  UNL1        0.0008
     39 C           4.4012   -2.6744   20.9351 C.3     1  UNL1        0.0126
@<TRIPOS>UNITY_ATOM_ATTR
24 1
charge -1
@<TRIPOS>BOND
     1    24    25   ar
     2    25    26   ar
     3    25    23    1
     4    23    22    1
     5    22     1    1
     6     1     2   ar
     7     2     3   ar
     8     3     4   ar
     9     4     7    1
    10     7     8   ar
    11     8    16    1
    12    16    17   ar
    13    17    18   ar
    14    18    19   ar
    15    19    20   ar
    16    20    21   ar
    17     8     9   ar
    18     9    10   ar
    19    10    11   ar
    20    11    12   ar
    21    12    13   ar
    22    13    14   ar
    23    14    15   ar
    24     4     5   ar
    25     5     6   ar
    26    23    27    1
    27    27    29    1
    28    29    30    2
    29    30    31    1
    30    30    32    1
    31    32    33    2
    32    32    34    1
    33    34    35    1
    34    35    36    1
    35    36    37    1
    36    37    38    1
    37    38    39    1
    38     6     1   ar
    39    34    29    1
    40    15     7   ar
    41    39    34    1
    42    21    16   ar
    43    15    10   ar
    44    27    28    1
@<TRIPOS>MOLECULE
*****
 39 44 0 0 0
SMALL
GASTEIGER

@<TRIPOS>ATOM
      1 C           2.1358    0.7704   18.7153 C.ar    1  UNL1       -0.0201
      2 C           1.9887    2.2625   18.6692 C.ar    1  UNL1       -0.0027
      3 C           0.9592    2.9413   19.5233 C.ar    1  UNL1        0.0173
      4 C           0.0769    2.1281   20.4235 C.ar    1  UNL1        0.0667
      5 C           0.2241    0.6361   20.4695 C.ar    1  UNL1        0.0173
      6 C           1.2535   -0.0428   19.6154 C.ar    1  UNL1       -0.0027
      7 N          -0.9525    2.8069   21.2776 N.ar    1  UNL1       -0.2754
      8 C          -0.8353    3.0841   22.7470 C.ar    1  UNL1        0.1503
      9 N          -2.0902    3.7763   23.1897 N.ar    1  UNL1       -0.2248
     10 C          -2.9831    3.9268   21.9938 C.ar    1  UNL1        0.1173
     11 C          -4.3455    4.5320   21.8283 C.ar    1  UNL1        0.0238
     12 C          -5.0048    4.5381   20.4810 C.ar    1  UNL1        0.0223
     13 C          -4.3017    3.9390   19.2992 C.ar    1  UNL1        0.1006
     14 N          -2.9392    3.3338   19.4647 N.ar    1  UNL1       -0.2248
     15 C          -2.2800    3.3277   20.8120 C.ar    1  UNL1        0.1666
     16 C           0.3320    2.7312   23.6205 C.ar    1  UNL1        0.0537
     17 C           0.5239    1.3164   24.0804 C.ar    1  UNL1        0.0062
     18 C           1.6911    0.9634   24.9538 C.ar    1  UNL1        0.0208
     19 C           2.6666    2.0252   25.3674 C.ar    1  UNL1        0.0989
     20 N           2.4747    3.4400   24.9075 N.ar    1  UNL1       -0.2422
     21 C           1.3074    3.7930   24.0340 C.ar    1  UNL1        0.1018
     22 C           3.1653    0.0916   17.8612 C.3     1  UNL1        0.0516
     23 CA          4.5839   -0.0133   18.3372 C.3     1  UNL1        0.1102
     24 O           6.5398   -1.2337   17.1393 O.co2   1  UNL1       -0.5475
     25 C           5.7101   -0.0014   17.3465 C.2     1  UNL1        0.0684
     26 OXT         6.0066    1.2430   16.5631 O.co2   1  UNL1       -0.5475
     27 N           4.8761   -0.1301   19.8038 N.pl3   1  UNL1       -0.3320
     28 H           5.1883    0.6560   20.3076 H       1  UNL1        0.1468
     29 C           4.6928   -1.4446   20.5027 C.2     1  UNL1        0.0372
     30 C           4.4207   -2.8520   20.0607 C.2     1  UNL1        0.0788
     31 BR          4.2192   -3.5278   18.7368 Br      1  UNL1       -0.0451
     32 C           4.4336   -3.3036   21.4910 C.2     1  UNL1        0.1842
     33 O           4.2503   -4.6181   22.1899 O.2     1  UNL1       -0.2904
     34 C           4.7057   -1.8962   21.9330 C.3     1  UNL1        0.0874
     35 C           4.6476   -2.6968   23.2002 C.3     1  UNL1        0.0126
     36 C           4.8491   -2.0210   24.5241 C.3     1  UNL1        0.0008
     37 C           5.1086   -0.5447   24.5808 C.3     1  UNL1        0.0000
     38 C           5.1667    0.2558   23.3136 C.3     1  UNL1        0.0008
     39 C           4.9652   -0.4200   21.9897 C.3     1  UNL1        0.0126
@<TRIPOS>UNITY_ATOM_ATTR
24 1
charge -1
@<TRIPOS>BOND
     1    24    25   ar
     2    25    26   ar
     3    25    23    1
     4    23    22    1
     5    22     1    1
     6     1     2   ar
     7     2     3   ar
     8     3     4   ar
     9     4     7    1
    10     7     8   ar
    11     8    16    1
    12    16    17   ar
    13    17    18   ar
    14    18    19   ar
    15    19    20   ar
    16    20    21   ar
    17     8     9   ar
    18     9    10   ar
    19    10    11   ar
    20    11    12   ar
    21    12    13   ar
    22    13    14   ar
    23    14    15   ar
    24     4     5   ar
    25     5     6   ar
    26    23    27    1
    27    27    29    1
    28    29    30    2
    29    30    31    1
    30    30    32    1
    31    32    33    2
    32    32    34    1
    33    34    35    1
    34    35    36    1
    35    36    37    1
    36    37    38    1
    37    38    39    1
    38     6     1   ar
    39    34    29    1
    40    15     7   ar
    41    39    34    1
    42    21    16   ar
    43    15    10   ar
    44    27    28    1
@<TRIPOS>MOLECULE
*****
 39 44 0 0 0
SMALL
GASTEIGER

@<TRIPOS>ATOM
      1 C           4.7286   -0.2981   24.3414 C.ar    1  UNL1       -0.0201
      2 C           5.3530    0.6547   23.3656 C.ar    1  UNL1       -0.0027
      3 C           4.6601    0.9645   22.0717 C.ar    1  UNL1        0.0173
      4 C           3.3427    0.3213   21.7537 C.ar    1  UNL1        0.0667
      5 C           2.7184   -0.6314   22.7296 C.ar    1  UNL1        0.0173
      6 C           3.4113   -0.9412   24.0234 C.ar    1  UNL1       -0.0027
      7 N           2.6498    0.6311   20.4599 N.ar    1  UNL1       -0.2754
      8 C           2.7559   -0.1618   19.1911 C.ar    1  UNL1        0.1503
      9 N           1.9008    0.5052   18.1548 N.ar    1  UNL1       -0.2248
     10 C           1.2662    1.7103   18.7832 C.ar    1  UNL1        0.1173
     11 C           0.3266    2.7469   18.2422 C.ar    1  UNL1        0.0238
     12 C          -0.1501    3.8612   19.1259 C.ar    1  UNL1        0.0223
     13 C           0.3128    3.9390   20.5506 C.ar    1  UNL1        0.1006
     14 N           1.2523    2.9025   21.0916 N.ar    1  UNL1       -0.2248
     15 C           1.7290    1.7881   20.2079 C.ar    1  UNL1        0.1666
     16 C           3.5737   -1.4037   18.9932 C.ar    1  UNL1        0.0537
     17 C           3.2092   -2.6651   19.7183 C.ar    1  UNL1        0.0062
     18 C           4.0269   -3.9070   19.5205 C.ar    1  UNL1        0.0208
     19 C           5.2091   -3.8874   18.5975 C.ar    1  UNL1        0.0989
     20 N           5.5735   -2.6259   17.8723 N.ar    1  UNL1       -0.2422
     21 C           4.7558   -1.3841   18.0702 C.ar    1  UNL1        0.1018
     22 C           5.4215   -0.6079   25.6352 C.3     1  UNL1        0.0516
     23 CA          6.4623   -1.6866   25.6890 C.3     1  UNL1        0.1102
     24 O           8.7017   -0.5964   24.9498 O.co2   1  UNL1       -0.5475
     25 C           7.8925   -1.3352   25.9741 C.2     1  UNL1        0.0684
     26 OXT         8.5133   -1.7227   27.2834 O.co2   1  UNL1       -0.5475
     27 N           6.0730   -3.1166   25.4579 N.pl3   1  UNL1       -0.3320
     28 H           5.3580   -3.5255   25.9972 H       1  UNL1        0.1468
     29 C           6.7730   -3.9237   24.4050 C.2     1  UNL1        0.0372
     30 C           7.1394   -3.7018   22.9674 C.2     1  UNL1        0.0788
     31 BR          6.9575   -2.5809   21.9873 Br      1  UNL1       -0.0451
     32 C           7.7630   -5.0650   22.9159 C.2     1  UNL1        0.1842
     33 O           8.4630   -5.8720   21.8630 O.2     1  UNL1       -0.2904
     34 C           7.3966   -5.2869   24.3535 C.3     1  UNL1        0.0874
     35 C           8.0938   -6.5463   23.9316 C.3     1  UNL1        0.0126
     36 C           8.2757   -7.6671   24.9117 C.3     1  UNL1        0.0008
     37 C           7.7604   -7.5287   26.3136 C.3     1  UNL1        0.0000
     38 C           7.0632   -6.2693   26.7354 C.3     1  UNL1        0.0008
     39 C           6.8814   -5.1485   25.7554 C.3     1  UNL1        0.0126
@<TRIPOS>UNITY_ATOM_ATTR
24 1
charge -1
@<TRIPOS>BOND
     1    24    25   ar
     2    25    26   ar
     3    25    23    1
     4    23    22    1
     5    22     1    1
     6     1     2   ar
     7     2     3   ar
     8     3     4   ar
     9     4     7    1
    10     7     8   ar
    11     8    16    1
    12    16    17   ar
    13    17    18   ar
    14    18    19   ar
    15    19    20   ar
    16    20    21   ar
    17     8     9   ar
    18     9    10   ar
    19    10    11   ar
    20    11    12   ar
    21    12    13   ar
    22    13    14   ar
    23    14    15   ar
    24     4     5   ar
    25     5     6   ar
    26    23    27    1
    27    27    29    1
    28    29    30    2
    29    30    31    1
    30    30    32    1
    31    32    33    2
    32    32    34    1
    33    34    35    1
    34    35    36    1
    35    36    37    1
    36    37    38    1
    37    38    39    1
    38     6     1   ar
    39    34    29    1
    40    15     7   ar
    41    39    34    1
    42    21    16   ar
    43    15    10   ar
    44    27    28    1
@<TRIPOS>MOLECULE
*****
 39 44 0 0 0
SMALL
GASTEIGER

@<TRIPOS>ATOM
      1 C           3.9783   -0.0212   23.2607 C.ar    1  UNL1       -0.0201
      2 C           3.8949    1.3014   22.5579 C.ar    1  UNL1       -0.0027
      3 C           2.6638    2.1472   22.6951 C.ar    1  UNL1        0.0173
      4 C           1.5160    1.6705   23.5351 C.ar    1  UNL1        0.0667
      5 C           1.5994    0.3480   24.2377 C.ar    1  UNL1        0.0173
      6 C           2.8306   -0.4979   24.1006 C.ar    1  UNL1       -0.0027
      7 N           0.2848    2.5164   23.6722 N.ar    1  UNL1       -0.2754
      8 C          -0.3491    2.9481   24.9613 C.ar    1  UNL1        0.1503
      9 N          -1.5542    3.7776   24.6301 N.ar    1  UNL1       -0.2248
     10 C          -1.6651    3.8585   23.1363 C.ar    1  UNL1        0.1173
     11 C          -2.6542    4.5411   22.2388 C.ar    1  UNL1        0.0238
     12 C          -2.5066    4.4443   20.7492 C.ar    1  UNL1        0.0223
     13 C          -1.3699    3.6649   20.1572 C.ar    1  UNL1        0.1006
     14 N          -0.3809    2.9822   21.0548 N.ar    1  UNL1       -0.2248
     15 C          -0.5285    3.0790   22.5443 C.ar    1  UNL1        0.1666
     16 C           0.1367    2.6099   26.3395 C.ar    1  UNL1        0.0537
     17 C          -0.5520    1.5420   27.1364 C.ar    1  UNL1        0.0062
     18 C          -0.0662    1.2037   28.5147 C.ar    1  UNL1        0.0208
     19 C           1.1084    1.9333   29.0960 C.ar    1  UNL1        0.0989
     20 N           1.7971    3.0012   28.2990 N.ar    1  UNL1       -0.2422
     21 C           1.3113    3.3395   26.9208 C.ar    1  UNL1        0.1018
     22 C           5.2094   -0.8671   23.1235 C.3     1  UNL1        0.0516
     23 CA          5.1022   -2.2679   22.5981 C.3     1  UNL1        0.1102
     24 O           6.5459   -4.4148   22.3595 O.co2   1  UNL1       -0.5475
     25 C           5.9087   -3.3673   23.2235 C.2     1  UNL1        0.0684
     26 OXT         6.0778   -3.4190   24.7131 O.co2   1  UNL1       -0.5475
     27 N           4.1886   -2.5694   21.4473 N.pl3   1  UNL1       -0.3320
     28 H           3.4306   -3.1857   21.5689 H       1  UNL1        0.1468
     29 C           4.4300   -1.9318   20.1111 C.2     1  UNL1        0.0372
     30 C           5.5625   -1.9265   19.1275 C.2     1  UNL1        0.0788
     31 BR          6.9226   -2.5565   19.0726 Br      1  UNL1       -0.0451
     32 C           4.7714   -1.0302   18.2215 C.2     1  UNL1        0.1842
     33 O           5.0127   -0.3927   16.8854 O.2     1  UNL1       -0.2904
     34 C           3.6389   -1.0356   19.2052 C.3     1  UNL1        0.0874
     35 C           3.1678   -0.1684   18.0755 C.3     1  UNL1        0.0126
     36 C           1.8077    0.4616   18.1304 C.3     1  UNL1        0.0008
     37 C           0.9185    0.2245   19.3150 C.3     1  UNL1        0.0000
     38 C           1.3895   -0.6427   20.4447 C.3     1  UNL1        0.0008
     39 C           2.7497   -1.2727   20.3897 C.3     1  UNL1        0.0126
@<TRIPOS>UNITY_ATOM_ATTR
24 1
charge -1
@<TRIPOS>BOND
     1    24    25   ar
     2    25    26   ar
     3    25    23    1
     4    23    22    1
     5    22     1    1
     6     1     2   ar
     7     2     3   ar
     8     3     4   ar
     9     4     7    1
    10     7     8   ar
    11     8    16    1
    12    16    17   ar
    13    17    18   ar
    14    18    19   ar
    15    19    20   ar
    16    20    21   ar
    17     8     9   ar
    18     9    10   ar
    19    10    11   ar
    20    11    12   ar
    21    12    13   ar
    22    13    14   ar
    23    14    15   ar
    24     4     5   ar
    25     5     6   ar
    26    23    27    1
    27    27    29    1
    28    29    30    2
    29    30    31    1
    30    30    32    1
    31    32    33    2
    32    32    34    1
    33    34    35    1
    34    35    36    1
    35    36    37    1
    36    37    38    1
    37    38    39    1
    38     6     1   ar
    39    34    29    1
    40    15     7   ar
    41    39    34    1
    42    21    16   ar
    43    15    10   ar
    44    27    28    1
@<TRIPOS>MOLECULE
*****
 39 44 0 0 0
SMALL
GASTEIGER

@<TRIPOS>ATOM
      1 C           4.9826   -0.5468   24.9218 C.ar    1  UNL1       -0.0201
      2 C           4.0384   -1.5895   25.4425 C.ar    1  UNL1       -0.0027
      3 C           3.6501   -1.5933   26.8914 C.ar    1  UNL1        0.0173
      4 C           4.2062   -0.5543   27.8196 C.ar    1  UNL1        0.0667
      5 C           5.1504    0.4883   27.2988 C.ar    1  UNL1        0.0173
      6 C           5.5386    0.4921   25.8499 C.ar    1  UNL1       -0.0027
      7 N           3.8180   -0.5581   29.2685 N.ar    1  UNL1       -0.2754
      8 C           2.5127   -0.0807   29.8328 C.ar    1  UNL1        0.1503
      9 N           2.5549   -0.2675   31.3205 N.ar    1  UNL1       -0.2248
     10 C           3.8863   -0.8603   31.6757 C.ar    1  UNL1        0.1173
     11 C           4.4886   -1.2598   32.9900 C.ar    1  UNL1        0.0238
     12 C           5.8715   -1.8388   33.0361 C.ar    1  UNL1        0.0223
     13 C           6.6521   -2.0184   31.7679 C.ar    1  UNL1        0.1006
     14 N           6.0498   -1.6190   30.4536 N.ar    1  UNL1       -0.2248
     15 C           4.6669   -1.0399   30.4074 C.ar    1  UNL1        0.1666
     16 C           1.3665    0.4842   29.0473 C.ar    1  UNL1        0.0537
     17 C           0.0347   -0.2057   29.0622 C.ar    1  UNL1        0.0062
     18 C          -1.1115    0.3593   28.2767 C.ar    1  UNL1        0.0208
     19 C          -0.9259    1.6141   27.4762 C.ar    1  UNL1        0.0989
     20 N           0.4059    2.3040   27.4613 N.ar    1  UNL1       -0.2422
     21 C           1.5521    1.7391   28.2468 C.ar    1  UNL1        0.1018
     22 C           5.3708   -0.5431   23.4729 C.3     1  UNL1        0.0516
     23 CA          5.2641   -1.8021   22.6645 C.3     1  UNL1        0.1102
     24 O           6.1084   -4.2059   22.1556 O.co2   1  UNL1       -0.5475
     25 C           6.3235   -2.8580   22.7776 C.2     1  UNL1        0.0684
     26 OXT         7.5980   -2.5659   23.5126 O.co2   1  UNL1       -0.5475
     27 N           4.0980   -2.0052   21.7432 N.pl3   1  UNL1       -0.3320
     28 H           3.2823   -2.4479   22.0717 H       1  UNL1        0.1468
     29 C           4.1746   -1.5338   20.3213 C.2     1  UNL1        0.0372
     30 C           5.1726   -1.6728   19.2100 C.2     1  UNL1        0.0788
     31 BR          6.5073   -2.3408   19.0605 Br      1  UNL1       -0.0451
     32 C           4.2831   -0.8671   18.3103 C.2     1  UNL1        0.1842
     33 O           4.3597   -0.3957   16.8884 O.2     1  UNL1       -0.2904
     34 C           3.2851   -0.7281   19.4215 C.3     1  UNL1        0.0874
     35 C           2.6841    0.0142   18.2648 C.3     1  UNL1        0.0126
     36 C           1.3494    0.6822   18.4143 C.3     1  UNL1        0.0008
     37 C           0.6156    0.6079   19.7205 C.3     1  UNL1        0.0000
     38 C           1.2166   -0.1343   20.8772 C.3     1  UNL1        0.0008
     39 C           2.5513   -0.8023   20.7277 C.3     1  UNL1        0.0126
@<TRIPOS>UNITY_ATOM_ATTR
24 1
charge -1
@<TRIPOS>BOND
     1    24    25   ar
     2    25    26   ar
     3    25    23    1
     4    23    22    1
     5    22     1    1
     6     1     2   ar
     7     2     3   ar
     8     3     4   ar
     9     4     7    1
    10     7     8   ar
    11     8    16    1
    12    16    17   ar
    13    17    18   ar
    14    18    19   ar
    15    19    20   ar
    16    20    21   ar
    17     8     9   ar
    18     9    10   ar
    19    10    11   ar
    20    11    12   ar
    21    12    13   ar
    22    13    14   ar
    23    14    15   ar
    24     4     5   ar
    25     5     6   ar
    26    23    27    1
    27    27    29    1
    28    29    30    2
    29    30    31    1
    30    30    32    1
    31    32    33    2
    32    32    34    1
    33    34    35    1
    34    35    36    1
    35    36    37    1
    36    37    38    1
    37    38    39    1
    38     6     1   ar
    39    34    29    1
    40    15     7   ar
    41    39    34    1
    42    21    16   ar
    43    15    10   ar
    44    27    28    1
@<TRIPOS>MOLECULE
*****
 39 44 0 0 0
SMALL
GASTEIGER

@<TRIPOS>ATOM
      1 C           4.9806   -1.1595   21.8699 C.ar    1  UNL1       -0.0201
      2 C           4.8759    0.3206   22.0898 C.ar    1  UNL1       -0.0027
      3 C           4.1742    0.8504   23.3051 C.ar    1  UNL1        0.0173
      4 C           3.5772   -0.0998   24.3005 C.ar    1  UNL1        0.0667
      5 C           3.6820   -1.5798   24.0806 C.ar    1  UNL1        0.0173
      6 C           4.3837   -2.1097   22.8653 C.ar    1  UNL1       -0.0027
      7 N           2.8756    0.4300   25.5158 N.ar    1  UNL1       -0.2754
      8 C           3.3660    0.3320   26.9300 C.ar    1  UNL1        0.1503
      9 N           2.3538    0.9924   27.8184 N.ar    1  UNL1       -0.2248
     10 C           1.2378    1.4985   26.9533 C.ar    1  UNL1        0.1173
     11 C          -0.0304    2.2309   27.2776 C.ar    1  UNL1        0.0238
     12 C          -0.9761    2.6158   26.1788 C.ar    1  UNL1        0.0223
     13 C          -0.6536    2.2683   24.7557 C.ar    1  UNL1        0.1006
     14 N           0.6145    1.5358   24.4314 N.ar    1  UNL1       -0.2248
     15 C           1.5602    1.1510   25.5302 C.ar    1  UNL1        0.1666
     16 C           4.6443   -0.3131   27.3772 C.ar    1  UNL1        0.0537
     17 C           4.6791   -1.7832   27.6726 C.ar    1  UNL1        0.0062
     18 C           5.9573   -2.4283   28.1198 C.ar    1  UNL1        0.0208
     19 C           7.2007   -1.6033   28.2715 C.ar    1  UNL1        0.0989
     20 N           7.1659   -0.1331   27.9761 N.ar    1  UNL1       -0.2422
     21 C           5.8877    0.5120   27.5289 C.ar    1  UNL1        0.1018
     22 C           5.6823   -1.6894   20.6546 C.3     1  UNL1        0.0516
     23 CA          4.9476   -2.5719   19.6895 C.3     1  UNL1        0.1102
     24 O           4.6198   -4.8912   18.5656 O.co2   1  UNL1       -0.5475
     25 C           5.3052   -4.0245   19.5800 C.2     1  UNL1        0.0684
     26 OXT         6.3481   -4.6104   20.4850 O.co2   1  UNL1       -0.5475
     27 N           3.8554   -2.0017   18.8339 N.pl3   1  UNL1       -0.3320
     28 H           3.1849   -2.5982   18.4292 H       1  UNL1        0.1468
     29 C           3.7849   -0.5225   18.5949 C.2     1  UNL1        0.0372
     30 C           4.6377    0.4768   17.8710 C.2     1  UNL1        0.0788
     31 BR          5.9143    0.4110   17.0862 Br      1  UNL1       -0.0451
     32 C           3.6851    1.5693   18.2569 C.2     1  UNL1        0.1842
     33 O           3.6146    3.0485   18.0179 O.2     1  UNL1       -0.2904
     34 C           2.8323    0.5700   18.9809 C.3     1  UNL1        0.0874
     35 C           2.1329    1.8840   19.1663 C.3     1  UNL1        0.0126
     36 C           0.8563    1.9499   19.9510 C.3     1  UNL1        0.0008
     37 C           0.2790    0.7018   20.5505 C.3     1  UNL1        0.0000
     38 C           0.9784   -0.6121   20.3650 C.3     1  UNL1        0.0008
     39 C           2.2551   -0.6780   19.5802 C.3     1  UNL1        0.0126
@<TRIPOS>UNITY_ATOM_ATTR
24 1
charge -1
@<TRIPOS>BOND
     1    24    25   ar
     2    25    26   ar
     3    25    23    1
     4    23    22    1
     5    22     1    1
     6     1     2   ar
     7     2     3   ar
     8     3     4   ar
     9     4     7    1
    10     7     8   ar
    11     8    16    1
    12    16    17   ar
    13    17    18   ar
    14    18    19   ar
    15    19    20   ar
    16    20    21   ar
    17     8     9   ar
    18     9    10   ar
    19    10    11   ar
    20    11    12   ar
    21    12    13   ar
    22    13    14   ar
    23    14    15   ar
    24     4     5   ar
    25     5     6   ar
    26    23    27    1
    27    27    29    1
    28    29    30    2
    29    30    31    1
    30    30    32    1
    31    32    33    2
    32    32    34    1
    33    34    35    1
    34    35    36    1
    35    36    37    1
    36    37    38    1
    37    38    39    1
    38     6     1   ar
    39    34    29    1
    40    15     7   ar
    41    39    34    1
    42    21    16   ar
    43    15    10   ar
    44    27    28    1
@<TRIPOS>MOLECULE
*****
 39 44 0 0 0
SMALL
GASTEIGER

@<TRIPOS>ATOM
      1 C           6.2364   -1.3050   23.0266 C.ar    1  UNL1       -0.0201
      2 C           6.1754    0.0442   23.6793 C.ar    1  UNL1       -0.0027
      3 C           4.8497    0.7082   23.9064 C.ar    1  UNL1        0.0173
      4 C           3.5850    0.0231   23.4807 C.ar    1  UNL1        0.0667
      5 C           3.6460   -1.3260   22.8281 C.ar    1  UNL1        0.0173
      6 C           4.9717   -1.9901   22.6010 C.ar    1  UNL1       -0.0027
      7 N           2.2593    0.6872   23.7078 N.ar    1  UNL1       -0.2754
      8 C           1.3408    1.2092   22.6430 C.ar    1  UNL1        0.1503
      9 N           0.1332    1.7904   23.3167 N.ar    1  UNL1       -0.2248
     10 C           0.3053    1.6276   24.7979 C.ar    1  UNL1        0.1173
     11 C          -0.5646    2.0121   25.9577 C.ar    1  UNL1        0.0238
     12 C          -0.1206    1.7148   27.3592 C.ar    1  UNL1        0.0223
     13 C           1.1934    1.0329   27.6009 C.ar    1  UNL1        0.1006
     14 N           2.0634    0.6484   26.4411 N.ar    1  UNL1       -0.2248
     15 C           1.6193    0.9457   25.0396 C.ar    1  UNL1        0.1666
     16 C           1.5867    1.1589   21.1641 C.ar    1  UNL1        0.0537
     17 C           2.7863    1.8439   20.5796 C.ar    1  UNL1        0.0062
     18 C           3.0322    1.7936   19.1007 C.ar    1  UNL1        0.0208
     19 C           2.0786    1.0583   18.2064 C.ar    1  UNL1        0.0989
     20 N           0.8790    0.3733   18.7910 N.ar    1  UNL1       -0.2422
     21 C           0.6331    0.4236   20.2698 C.ar    1  UNL1        0.1018
     22 C           7.5621   -1.9691   22.7995 C.3     1  UNL1        0.0516
     23 CA          7.7262   -2.9523   21.6787 C.3     1  UNL1        0.1102
     24 O           8.0437   -5.4196   20.9294 O.co2   1  UNL1       -0.5475
     25 C           7.5616   -4.4204   21.9388 C.2     1  UNL1        0.0684
     26 OXT         6.9148   -4.8891   23.2084 O.co2   1  UNL1       -0.5475
     27 N           8.0550   -2.4674   20.2978 N.pl3   1  UNL1       -0.3320
     28 H           8.9945   -2.3503   20.0279 H       1  UNL1        0.1468
     29 C           6.9523   -2.1610   19.3282 C.2     1  UNL1        0.0372
     30 C           5.6651   -2.8268   18.9408 C.2     1  UNL1        0.0788
     31 BR          4.9476   -4.0747   19.3624 Br      1  UNL1       -0.0451
     32 C           5.3928   -1.7277   17.9570 C.2     1  UNL1        0.1842
     33 O           4.2901   -1.4213   16.9874 O.2     1  UNL1       -0.2904
     34 C           6.6800   -1.0620   18.3445 C.3     1  UNL1        0.0874
     35 C           6.0837   -0.1727   17.2939 C.3     1  UNL1        0.0126
     36 C           6.8013    1.0752   16.8722 C.3     1  UNL1        0.0008
     37 C           8.1151    1.4339   17.5010 C.3     1  UNL1        0.0000
     38 C           8.7113    0.5446   18.5516 C.3     1  UNL1        0.0008
     39 C           7.9937   -0.7033   18.9733 C.3     1  UNL1        0.0126
@<TRIPOS>UNITY_ATOM_ATTR
24 1
charge -1
@<TRIPOS>BOND
     1    24    25   ar
     2    25    26   ar
     3    25    23    1
     4    23    22    1
     5    22     1    1
     6     1     2   ar
     7     2     3   ar
     8     3     4   ar
     9     4     7    1
    10     7     8   ar
    11     8    16    1
    12    16    17   ar
    13    17    18   ar
    14    18    19   ar
    15    19    20   ar
    16    20    21   ar
    17     8     9   ar
    18     9    10   ar
    19    10    11   ar
    20    11    12   ar
    21    12    13   ar
    22    13    14   ar
    23    14    15   ar
    24     4     5   ar
    25     5     6   ar
    26    23    27    1
    27    27    29    1
    28    29    30    2
    29    30    31    1
    30    30    32    1
    31    32    33    2
    32    32    34    1
    33    34    35    1
    34    35    36    1
    35    36    37    1
    36    37    38    1
    37    38    39    1
    38     6     1   ar
    39    34    29    1
    40    15     7   ar
    41    39    34    1
    42    21    16   ar
    43    15    10   ar
    44    27    28    1
@<TRIPOS>MOLECULE
*****
 39 44 0 0 0
SMALL
GASTEIGER

@<TRIPOS>ATOM
      1 C           2.1964    2.1475   30.7015 C.ar    1  UNL1       -0.0201
      2 C           3.6313    1.7784   30.9357 C.ar    1  UNL1       -0.0027
      3 C           4.1103    1.4732   32.3240 C.ar    1  UNL1        0.0173
      4 C           3.1543    1.5370   33.4782 C.ar    1  UNL1        0.0667
      5 C           1.7194    1.9060   33.2440 C.ar    1  UNL1        0.0173
      6 C           1.2405    2.2113   31.8557 C.ar    1  UNL1       -0.0027
      7 N           3.6332    1.2317   34.8665 N.ar    1  UNL1       -0.2754
      8 C           4.6264    0.1728   35.2437 C.ar    1  UNL1        0.1503
      9 N           4.8101    0.2185   36.7317 N.ar    1  UNL1       -0.2248
     10 C           3.9304    1.3056   37.2742 C.ar    1  UNL1        0.1173
     11 C           3.6977    1.8062   38.6689 C.ar    1  UNL1        0.0238
     12 C           2.7377    2.9330   38.9108 C.ar    1  UNL1        0.0223
     13 C           2.0104    3.5593   37.7581 C.ar    1  UNL1        0.1006
     14 N           2.2431    3.0587   36.3634 N.ar    1  UNL1       -0.2248
     15 C           3.2031    1.9319   36.1214 C.ar    1  UNL1        0.1666
     16 C           5.3150   -0.7669   34.2987 C.ar    1  UNL1        0.0537
     17 C           4.5689   -1.9357   33.7267 C.ar    1  UNL1        0.0062
     18 C           5.2575   -2.8753   32.7818 C.ar    1  UNL1        0.0208
     19 C           6.6922   -2.6461   32.4088 C.ar    1  UNL1        0.0989
     20 N           7.4383   -1.4773   32.9808 N.ar    1  UNL1       -0.2422
     21 C           6.7497   -0.5377   33.9258 C.ar    1  UNL1        0.1018
     22 C           1.7174    2.4527   29.3132 C.3     1  UNL1        0.0516
     23 CA          0.6275    1.6266   28.6972 C.3     1  UNL1        0.1102
     24 O           1.8946   -0.6365   28.5456 O.co2   1  UNL1       -0.5475
     25 C           0.6430    0.1339   28.8454 C.2     1  UNL1        0.0684
     26 OXT        -0.5930   -0.5881   29.2934 O.co2   1  UNL1       -0.5475
     27 N          -0.4780    2.2930   27.9332 N.pl3   1  UNL1       -0.3320
     28 H          -1.2541    2.6631   28.4125 H       1  UNL1        0.1468
     29 C          -0.4008    2.3955   26.4387 C.2     1  UNL1        0.0372
     30 C           0.6127    2.0151   25.4003 C.2     1  UNL1        0.0788
     31 BR          1.9688    1.3746   25.4264 Br      1  UNL1       -0.0451
     32 C          -0.2916    2.5405   24.3251 C.2     1  UNL1        0.1842
     33 O          -0.2145    2.6430   22.8306 O.2     1  UNL1       -0.2904
     34 C          -1.3051    2.9209   25.3635 C.3     1  UNL1        0.0874
     35 C          -1.9163    3.3299   24.0561 C.3     1  UNL1        0.0126
     36 C          -3.2724    3.9704   24.0300 C.3     1  UNL1        0.0008
     37 C          -4.0174    4.2020   25.3113 C.3     1  UNL1        0.0000
     38 C          -3.4062    3.7929   26.6186 C.3     1  UNL1        0.0008
     39 C          -2.0501    3.1524   26.6446 C.3     1  UNL1        0.0126
@<TRIPOS>UNITY_ATOM_ATTR
24 1
charge -1
@<TRIPOS>BOND
     1    24    25   ar
     2    25    26   ar
     3    25    23    1
     4    23    22    1
     5    22     1    1
     6     1     2   ar
     7     2     3   ar
     8     3     4   ar
     9     4     7    1
    10     7     8   ar
    11     8    16    1
    12    16    17   ar
    13    17    18   ar
    14    18    19   ar
    15    19    20   ar
    16    20    21   ar
    17     8     9   ar
    18     9    10   ar
    19    10    11   ar
    20    11    12   ar
    21    12    13   ar
    22    13    14   ar
    23    14    15   ar
    24     4     5   ar
    25     5     6   ar
    26    23    27    1
    27    27    29    1
    28    29    30    2
    29    30    31    1
    30    30    32    1
    31    32    33    2
    32    32    34    1
    33    34    35    1
    34    35    36    1
    35    36    37    1
    36    37    38    1
    37    38    39    1
    38     6     1   ar
    39    34    29    1
    40    15     7   ar
    41    39    34    1
    42    21    16   ar
    43    15    10   ar
    44    27    28    1
