@<TRIPOS>MOLECULE
*****
 36 40 0 0 0
SMALL
GASTEIGER

@<TRIPOS>ATOM
      1 C           1.4324    3.3270   29.2267 C.ar    1  UNL1       -0.0025
      2 C           0.3557    2.7943   28.3285 C.ar    1  UNL1       -0.0014
      3 C           0.7166    1.9354   27.1529 C.ar    1  UNL1        0.0142
      4 C           2.1541    1.6092   26.8755 C.ar    1  UNL1        0.0478
      5 C           3.2308    2.1419   27.7737 C.ar    1  UNL1        0.0142
      6 C           2.8700    3.0008   28.9494 C.ar    1  UNL1       -0.0014
      7 N           2.5150    0.7503   25.6999 N.pl3   1  UNL1       -0.3075
      8 C           3.5138   -0.3574   25.8588 C.3     1  UNL1        0.0911
      9 C           3.8746   -1.2163   24.6832 C.3     1  UNL1        0.0258
     10 C           3.2366   -0.9675   23.3487 C.3     1  UNL1        0.0257
     11 C           2.2378    0.1402   23.1897 C.3     1  UNL1        0.0258
     12 C           1.8769    0.9991   24.3653 C.3     1  UNL1        0.0911
     13 C           3.5974   -1.8265   22.1731 C.ar    1  UNL1       -0.0223
     14 C           4.4452   -3.0483   22.3689 C.ar    1  UNL1       -0.0034
     15 C           4.8060   -3.9072   21.1933 C.ar    1  UNL1        0.0111
     16 C           4.3191   -3.5443   19.8217 C.ar    1  UNL1        0.0577
     17 CL          4.6799   -4.4032   18.6461 Cl      1  UNL1       -0.0822
     18 C           3.4713   -2.3225   19.6259 C.ar    1  UNL1        0.0111
     19 C           3.1104   -1.4636   20.8015 C.ar    1  UNL1       -0.0034
     20 C           1.0716    4.1860   30.4023 C.3     1  UNL1        0.1166
     21 C           1.5771    2.7093   32.4793 C.2     1  UNL1        0.2635
     22 O           0.6947    1.6296   31.9264 O.2     1  UNL1       -0.2685
     23 N           1.7655    3.9874   31.7173 N.am    1  UNL1       -0.2957
     24 H           2.3446    4.6961   32.0802 H       1  UNL1        0.1501
     25 C           2.1800    3.4185   34.9851 C.ar    1  UNL1        0.0811
     26 N           3.0305    2.8384   36.0760 N.ar    1  UNL1       -0.2306
     27 C           3.6470    1.5722   35.5595 C.ar    1  UNL1        0.1475
     28 C           4.5752    0.5775   36.1911 C.ar    1  UNL1        0.0383
     29 C           5.0340   -0.6196   35.4125 C.ar    1  UNL1        0.0160
     30 C           4.5646   -0.8221   34.0023 C.ar    1  UNL1        0.0753
     31 CL          5.0235   -2.0193   33.2237 Cl      1  UNL1       -0.0807
     32 C           3.6364    0.1727   33.3707 C.ar    1  UNL1        0.0929
     33 N           3.1776    1.3698   34.1493 N.ar    1  UNL1       -0.2845
     34 C           2.2710    2.5108   33.7943 C.ar    1  UNL1        0.1326
     35 C           1.1373    5.3305   36.4016 C.3     1  UNL1        0.0067
     36 C           1.3792    4.6840   35.0700 C.3     1  UNL1        0.0475
@<TRIPOS>BOND
     1    35    36    1
     2    36    25    1
     3    25    26   ar
     4    26    27   ar
     5    27    28   ar
     6    28    29   ar
     7    29    30   ar
     8    30    31    1
     9    30    32   ar
    10    32    33   ar
    11    33    34   ar
    12    34    21    1
    13    21    22    2
    14    21    23   am
    15    23    20    1
    16    20     1    1
    17     1     2   ar
    18     2     3   ar
    19     3     4   ar
    20     4     7    1
    21     7     8    1
    22     8     9    1
    23     9    10    1
    24    10    13    1
    25    13    14   ar
    26    14    15   ar
    27    15    16   ar
    28    16    17    1
    29    16    18   ar
    30    18    19   ar
    31    10    11    1
    32    11    12    1
    33     4     5   ar
    34     5     6   ar
    35    34    25   ar
    36     6     1   ar
    37    33    27   ar
    38    12     7    1
    39    19    13   ar
    40    23    24    1
@<TRIPOS>MOLECULE
*****
 36 40 0 0 0
SMALL
GASTEIGER

@<TRIPOS>ATOM
      1 C           1.0248    2.0272   30.3458 C.ar    1  UNL1       -0.0025
      2 C           1.8963    0.8064   30.3494 C.ar    1  UNL1       -0.0014
      3 C           2.3677    0.2175   29.0529 C.ar    1  UNL1        0.0142
      4 C           1.9675    0.8494   27.7527 C.ar    1  UNL1        0.0478
      5 C           1.0960    2.0702   27.7491 C.ar    1  UNL1        0.0142
      6 C           0.6247    2.6591   29.0456 C.ar    1  UNL1       -0.0014
      7 N           2.4389    0.2604   26.4562 N.pl3   1  UNL1       -0.3075
      8 C           3.4998   -0.8000   26.4559 C.3     1  UNL1        0.0911
      9 C           3.9711   -1.3890   25.1594 C.3     1  UNL1        0.0258
     10 C           3.3816   -0.9175   23.8632 C.3     1  UNL1        0.0257
     11 C           2.3207    0.1429   23.8635 C.3     1  UNL1        0.0258
     12 C           1.8494    0.7319   25.1600 C.3     1  UNL1        0.0911
     13 C           3.8530   -1.5064   22.5667 C.ar    1  UNL1       -0.0223
     14 C           4.4056   -2.9005   22.5331 C.ar    1  UNL1       -0.0034
     15 C           4.8770   -3.4894   21.2366 C.ar    1  UNL1        0.0111
     16 C           4.7957   -2.6843   19.9736 C.ar    1  UNL1        0.0577
     17 CL          5.2670   -3.2733   18.6770 Cl      1  UNL1       -0.0822
     18 C           4.2431   -1.2903   20.0072 C.ar    1  UNL1        0.0111
     19 C           3.7717   -0.7013   21.3037 C.ar    1  UNL1       -0.0034
     20 C           0.5535    2.6162   31.6423 C.3     1  UNL1        0.1166
     21 C           1.9716    3.1534   33.7519 C.2     1  UNL1        0.2635
     22 O           2.1445    4.5654   33.2760 O.2     1  UNL1       -0.2685
     23 N           1.1761    2.1789   32.9350 N.am    1  UNL1       -0.2957
     24 H           1.0626    1.2521   33.2474 H       1  UNL1        0.1501
     25 C           2.3287    3.3097   36.3963 C.ar    1  UNL1        0.0811
     26 N           3.1620    2.5688   37.3997 N.ar    1  UNL1       -0.2306
     27 C           3.9425    1.5173   36.6681 C.ar    1  UNL1        0.1475
     28 C           4.9274    0.4888   37.1392 C.ar    1  UNL1        0.0383
     29 C           5.5613   -0.4488   36.1548 C.ar    1  UNL1        0.0160
     30 C           5.2104   -0.3578   34.6993 C.ar    1  UNL1        0.0753
     31 CL          5.8444   -1.2954   33.7149 Cl      1  UNL1       -0.0807
     32 C           4.2255    0.6708   34.2282 C.ar    1  UNL1        0.0929
     33 N           3.5915    1.6083   35.2125 N.ar    1  UNL1       -0.2845
     34 C           2.5942    2.7161   35.0446 C.ar    1  UNL1        0.1326
     35 C           1.8526    5.8613   36.5096 C.3     1  UNL1        0.0067
     36 C           1.3940    4.4449   36.6927 C.3     1  UNL1        0.0475
@<TRIPOS>BOND
     1    35    36    1
     2    36    25    1
     3    25    26   ar
     4    26    27   ar
     5    27    28   ar
     6    28    29   ar
     7    29    30   ar
     8    30    31    1
     9    30    32   ar
    10    32    33   ar
    11    33    34   ar
    12    34    21    1
    13    21    22    2
    14    21    23   am
    15    23    20    1
    16    20     1    1
    17     1     2   ar
    18     2     3   ar
    19     3     4   ar
    20     4     7    1
    21     7     8    1
    22     8     9    1
    23     9    10    1
    24    10    13    1
    25    13    14   ar
    26    14    15   ar
    27    15    16   ar
    28    16    17    1
    29    16    18   ar
    30    18    19   ar
    31    10    11    1
    32    11    12    1
    33     4     5   ar
    34     5     6   ar
    35    34    25   ar
    36     6     1   ar
    37    33    27   ar
    38    12     7    1
    39    19    13   ar
    40    23    24    1
@<TRIPOS>MOLECULE
*****
 36 40 0 0 0
SMALL
GASTEIGER

@<TRIPOS>ATOM
      1 C           5.5832   -3.4464   23.6581 C.ar    1  UNL1       -0.0025
      2 C           5.0194   -2.2927   24.4333 C.ar    1  UNL1       -0.0014
      3 C           4.0753   -1.3337   23.7707 C.ar    1  UNL1        0.0142
      4 C           3.6949   -1.5284   22.3329 C.ar    1  UNL1        0.0478
      5 C           4.2587   -2.6822   21.5577 C.ar    1  UNL1        0.0142
      6 C           5.2028   -3.6412   22.2203 C.ar    1  UNL1       -0.0014
      7 N           2.7508   -0.5695   21.6703 N.pl3   1  UNL1       -0.3075
      8 C           1.9734   -0.9973   20.4610 C.3     1  UNL1        0.0911
      9 C           1.0293   -0.0383   19.7985 C.3     1  UNL1        0.0258
     10 C           0.8626    1.3485   20.3452 C.3     1  UNL1        0.0257
     11 C           1.6401    1.7764   21.5546 C.3     1  UNL1        0.0258
     12 C           2.5842    0.8174   22.2171 C.3     1  UNL1        0.0911
     13 C          -0.0815    2.3075   19.6827 C.ar    1  UNL1       -0.0223
     14 C           0.1482    2.7240   18.2601 C.ar    1  UNL1       -0.0034
     15 C          -0.7959    3.6829   17.5975 C.ar    1  UNL1        0.0111
     16 C          -1.9698    4.2256   18.3576 C.ar    1  UNL1        0.0577
     17 CL         -2.9139    5.1845   17.6950 Cl      1  UNL1       -0.0822
     18 C          -2.1994    3.8091   19.7802 C.ar    1  UNL1        0.0111
     19 C          -1.2553    2.8501   20.4427 C.ar    1  UNL1       -0.0034
     20 C           6.5273   -4.4054   24.3207 C.3     1  UNL1        0.1166
     21 C           7.6807   -4.8706   26.6017 C.2     1  UNL1        0.2635
     22 O           9.0211   -4.8463   25.9288 O.2     1  UNL1       -0.2685
     23 N           6.4338   -4.6501   25.7976 N.am    1  UNL1       -0.2957
     24 H           5.5541   -4.6661   26.2392 H       1  UNL1        0.1501
     25 C           8.0382   -6.3521   28.7977 C.ar    1  UNL1        0.0811
     26 N           7.7560   -6.1673   30.2593 N.ar    1  UNL1       -0.2306
     27 C           7.1307   -4.8163   30.4436 C.ar    1  UNL1        0.1475
     28 C           6.6429   -4.0942   31.6644 C.ar    1  UNL1        0.0383
     29 C           6.0507   -2.7220   31.5375 C.ar    1  UNL1        0.0160
     30 C           5.9463   -2.0718   30.1898 C.ar    1  UNL1        0.0753
     31 CL          5.3541   -0.6995   30.0630 Cl      1  UNL1       -0.0807
     32 C           6.4342   -2.7939   28.9690 C.ar    1  UNL1        0.0929
     33 N           7.0264   -4.1662   29.0958 N.ar    1  UNL1       -0.2845
     34 C           7.5872   -5.1153   28.0787 C.ar    1  UNL1        0.1326
     35 C           7.8810   -8.3797   27.1809 C.3     1  UNL1        0.0067
     36 C           8.6618   -7.5613   28.1661 C.3     1  UNL1        0.0475
@<TRIPOS>BOND
     1    35    36    1
     2    36    25    1
     3    25    26   ar
     4    26    27   ar
     5    27    28   ar
     6    28    29   ar
     7    29    30   ar
     8    30    31    1
     9    30    32   ar
    10    32    33   ar
    11    33    34   ar
    12    34    21    1
    13    21    22    2
    14    21    23   am
    15    23    20    1
    16    20     1    1
    17     1     2   ar
    18     2     3   ar
    19     3     4   ar
    20     4     7    1
    21     7     8    1
    22     8     9    1
    23     9    10    1
    24    10    13    1
    25    13    14   ar
    26    14    15   ar
    27    15    16   ar
    28    16    17    1
    29    16    18   ar
    30    18    19   ar
    31    10    11    1
    32    11    12    1
    33     4     5   ar
    34     5     6   ar
    35    34    25   ar
    36     6     1   ar
    37    33    27   ar
    38    12     7    1
    39    19    13   ar
    40    23    24    1
@<TRIPOS>MOLECULE
*****
 36 40 0 0 0
SMALL
GASTEIGER

@<TRIPOS>ATOM
      1 C           0.9915    1.0973   24.6462 C.ar    1  UNL1       -0.0025
      2 C           0.0042    1.4390   25.7225 C.ar    1  UNL1       -0.0014
      3 C           0.4160    1.3817   27.1637 C.ar    1  UNL1        0.0142
      4 C           1.8152    0.9827   27.5287 C.ar    1  UNL1        0.0478
      5 C           2.8025    0.6411   26.4524 C.ar    1  UNL1        0.0142
      6 C           2.3907    0.6983   25.0111 C.ar    1  UNL1       -0.0014
      7 N           2.2270    0.9255   28.9699 N.pl3   1  UNL1       -0.3075
      8 C           2.6340   -0.3819   29.5822 C.3     1  UNL1        0.0911
      9 C           3.0458   -0.4392   31.0234 C.3     1  UNL1        0.0258
     10 C           3.0506    0.8110   31.8523 C.3     1  UNL1        0.0257
     11 C           2.6435    2.1184   31.2400 C.3     1  UNL1        0.0258
     12 C           2.2317    2.1756   29.7988 C.3     1  UNL1        0.0911
     13 C           3.4623    0.7537   33.2935 C.ar    1  UNL1       -0.0223
     14 C           3.0866    1.8671   34.2258 C.ar    1  UNL1       -0.0034
     15 C           3.4984    1.8098   35.6670 C.ar    1  UNL1        0.0111
     16 C           4.2860    0.6391   36.1760 C.ar    1  UNL1        0.0577
     17 CL          4.6978    0.5818   37.6173 Cl      1  UNL1       -0.0822
     18 C           4.6617   -0.4743   35.2438 C.ar    1  UNL1        0.0111
     19 C           4.2499   -0.4170   33.8026 C.ar    1  UNL1       -0.0034
     20 C           0.5797    1.1546   23.2049 C.3     1  UNL1        0.1166
     21 C           1.2151    0.5352   20.7631 C.2     1  UNL1        0.2635
     22 O          -0.2140    0.1756   20.4825 O.2     1  UNL1       -0.2685
     23 N           1.6118    1.0247   22.1243 N.am    1  UNL1       -0.2957
     24 H           2.5497    1.2607   22.3084 H       1  UNL1        0.1501
     25 C           2.6831    1.4916   18.7443 C.ar    1  UNL1        0.0811
     26 N           3.7299    0.9239   17.8323 N.ar    1  UNL1       -0.2306
     27 C           3.9411   -0.5132   18.2067 C.ar    1  UNL1        0.1475
     28 C           4.8493   -1.5713   17.6541 C.ar    1  UNL1        0.0383
     29 C           4.8412   -2.9499   18.2450 C.ar    1  UNL1        0.0160
     30 C           3.9249   -3.2705   19.3885 C.ar    1  UNL1        0.0753
     31 CL          3.9168   -4.6492   19.9794 Cl      1  UNL1       -0.0807
     32 C           3.0166   -2.2123   19.9411 C.ar    1  UNL1        0.0929
     33 N           3.0247   -0.8337   19.3502 N.ar    1  UNL1       -0.2845
     34 C           2.2472    0.4053   19.6824 C.ar    1  UNL1        0.1326
     35 C           0.7668    3.1748   18.2499 C.3     1  UNL1        0.0067
     36 C           2.1634    2.8985   18.7222 C.3     1  UNL1        0.0475
@<TRIPOS>BOND
     1    35    36    1
     2    36    25    1
     3    25    26   ar
     4    26    27   ar
     5    27    28   ar
     6    28    29   ar
     7    29    30   ar
     8    30    31    1
     9    30    32   ar
    10    32    33   ar
    11    33    34   ar
    12    34    21    1
    13    21    22    2
    14    21    23   am
    15    23    20    1
    16    20     1    1
    17     1     2   ar
    18     2     3   ar
    19     3     4   ar
    20     4     7    1
    21     7     8    1
    22     8     9    1
    23     9    10    1
    24    10    13    1
    25    13    14   ar
    26    14    15   ar
    27    15    16   ar
    28    16    17    1
    29    16    18   ar
    30    18    19   ar
    31    10    11    1
    32    11    12    1
    33     4     5   ar
    34     5     6   ar
    35    34    25   ar
    36     6     1   ar
    37    33    27   ar
    38    12     7    1
    39    19    13   ar
    40    23    24    1
@<TRIPOS>MOLECULE
*****
 36 40 0 0 0
SMALL
GASTEIGER

@<TRIPOS>ATOM
      1 C           6.9430   -4.8000   29.5768 C.ar    1  UNL1       -0.0025
      2 C           6.6470   -3.3609   29.2749 C.ar    1  UNL1       -0.0014
      3 C           6.3435   -2.4072   30.3922 C.ar    1  UNL1        0.0142
      4 C           6.3360   -2.8927   31.8115 C.ar    1  UNL1        0.0478
      5 C           6.6320   -4.3319   32.1133 C.ar    1  UNL1        0.0142
      6 C           6.9355   -5.2855   30.9960 C.ar    1  UNL1       -0.0014
      7 N           6.0325   -1.9390   32.9288 N.pl3   1  UNL1       -0.3075
      8 C           4.7152   -2.0146   33.6423 C.3     1  UNL1        0.0911
      9 C           4.4117   -1.0609   34.7596 C.3     1  UNL1        0.0258
     10 C           5.4255   -0.0317   35.1634 C.3     1  UNL1        0.0257
     11 C           6.7427    0.0439   34.4499 C.3     1  UNL1        0.0258
     12 C           7.0462   -0.9098   33.3326 C.3     1  UNL1        0.0911
     13 C           5.1219    0.9220   36.2807 C.ar    1  UNL1       -0.0223
     14 C           5.7763    2.2713   36.3137 C.ar    1  UNL1       -0.0034
     15 C           5.4727    3.2250   37.4310 C.ar    1  UNL1        0.0111
     16 C           4.5149    2.8293   38.5154 C.ar    1  UNL1        0.0577
     17 CL          4.2113    3.7830   39.6327 Cl      1  UNL1       -0.0822
     18 C           3.8606    1.4800   38.4824 C.ar    1  UNL1        0.0111
     19 C           4.1641    0.5263   37.3651 C.ar    1  UNL1       -0.0034
     20 C           7.2465   -5.7537   28.4595 C.3     1  UNL1        0.1166
     21 C           7.6385   -4.7854   26.0807 C.2     1  UNL1        0.2635
     22 O           9.0302   -4.3857   26.4727 O.2     1  UNL1       -0.2685
     23 N           6.7467   -5.4693   27.0740 N.am    1  UNL1       -0.2957
     24 H           5.8334   -5.7316   26.8168 H       1  UNL1        0.1501
     25 C           7.6065   -5.1669   23.4352 C.ar    1  UNL1        0.0811
     26 N           6.8402   -4.5782   22.2879 N.ar    1  UNL1       -0.2306
     27 C           5.8989   -3.5484   22.8389 C.ar    1  UNL1        0.1475
     28 C           4.8976   -2.6481   22.1780 C.ar    1  UNL1        0.0383
     29 C           4.0808   -1.7000   23.0050 C.ar    1  UNL1        0.0160
     30 C           4.2653   -1.6523   24.4929 C.ar    1  UNL1        0.0753
     31 CL          3.4484   -0.7042   25.3199 Cl      1  UNL1       -0.0807
     32 C           5.2665   -2.5527   25.1537 C.ar    1  UNL1        0.0929
     33 N           6.0834   -3.5007   24.3267 N.ar    1  UNL1       -0.2845
     34 C           7.1387   -4.5010   24.6953 C.ar    1  UNL1        0.1326
     35 C           8.4484   -7.5539   24.0211 C.3     1  UNL1        0.0067
     36 C           8.6562   -6.2341   23.3393 C.3     1  UNL1        0.0475
@<TRIPOS>BOND
     1    35    36    1
     2    36    25    1
     3    25    26   ar
     4    26    27   ar
     5    27    28   ar
     6    28    29   ar
     7    29    30   ar
     8    30    31    1
     9    30    32   ar
    10    32    33   ar
    11    33    34   ar
    12    34    21    1
    13    21    22    2
    14    21    23   am
    15    23    20    1
    16    20     1    1
    17     1     2   ar
    18     2     3   ar
    19     3     4   ar
    20     4     7    1
    21     7     8    1
    22     8     9    1
    23     9    10    1
    24    10    13    1
    25    13    14   ar
    26    14    15   ar
    27    15    16   ar
    28    16    17    1
    29    16    18   ar
    30    18    19   ar
    31    10    11    1
    32    11    12    1
    33     4     5   ar
    34     5     6   ar
    35    34    25   ar
    36     6     1   ar
    37    33    27   ar
    38    12     7    1
    39    19    13   ar
    40    23    24    1
@<TRIPOS>MOLECULE
*****
 36 40 0 0 0
SMALL
GASTEIGER

@<TRIPOS>ATOM
      1 C          -3.6623    4.3403   24.4425 C.ar    1  UNL1       -0.0025
      2 C          -4.1232    4.1769   25.8605 C.ar    1  UNL1       -0.0014
      3 C          -3.1988    3.5924   26.8870 C.ar    1  UNL1        0.0142
      4 C          -1.8133    3.1712   26.4956 C.ar    1  UNL1        0.0478
      5 C          -1.3524    3.3346   25.0776 C.ar    1  UNL1        0.0142
      6 C          -2.2768    3.9191   24.0510 C.ar    1  UNL1       -0.0014
      7 N          -0.8889    2.5868   27.5221 N.pl3   1  UNL1       -0.3075
      8 C           0.1623    3.4456   28.1603 C.3     1  UNL1        0.0911
      9 C           1.0867    2.8611   29.1869 C.3     1  UNL1        0.0258
     10 C           0.9599    1.4178   29.5752 C.3     1  UNL1        0.0257
     11 C          -0.0913    0.5590   28.9370 C.3     1  UNL1        0.0258
     12 C          -1.0157    1.1434   27.9105 C.3     1  UNL1        0.0911
     13 C           1.8843    0.8333   30.6018 C.ar    1  UNL1       -0.0223
     14 C           2.5484   -0.4874   30.3477 C.ar    1  UNL1       -0.0034
     15 C           3.4729   -1.0719   31.3743 C.ar    1  UNL1        0.0111
     16 C           3.7332   -0.3357   32.6550 C.ar    1  UNL1        0.0577
     17 CL          4.6576   -0.9201   33.6815 Cl      1  UNL1       -0.0822
     18 C           3.0690    0.9851   32.9090 C.ar    1  UNL1        0.0111
     19 C           2.1446    1.5695   31.8825 C.ar    1  UNL1       -0.0034
     20 C          -4.5867    4.9247   23.4159 C.3     1  UNL1        0.1166
     21 C          -4.2438    3.7369   21.1309 C.2     1  UNL1        0.2635
     22 O          -4.7299    2.4492   21.7274 O.2     1  UNL1       -0.2685
     23 N          -4.1722    4.9746   21.9752 N.am    1  UNL1       -0.2957
     24 H          -3.8532    5.8197   21.5837 H       1  UNL1        0.1501
     25 C          -4.7399    3.6524   18.5057 C.ar    1  UNL1        0.0811
     26 N          -3.9048    3.7623   17.2644 N.ar    1  UNL1       -0.2306
     27 C          -2.4783    3.9644   17.6818 C.ar    1  UNL1        0.1475
     28 C          -1.2158    4.1367   16.8904 C.ar    1  UNL1        0.0383
     29 C           0.0933    4.3241   17.5981 C.ar    1  UNL1        0.0160
     30 C           0.1400    4.3392   19.0973 C.ar    1  UNL1        0.0753
     31 CL          1.4492    4.5266   19.8051 Cl      1  UNL1       -0.0807
     32 C          -1.1225    4.1669   19.8888 C.ar    1  UNL1        0.0929
     33 N          -2.4317    3.9795   19.1810 N.ar    1  UNL1       -0.2845
     34 C          -3.8294    3.7867   19.6901 C.ar    1  UNL1        0.1326
     35 C          -7.1310    4.5884   18.9009 C.3     1  UNL1        0.0067
     36 C          -6.2246    3.4447   18.5540 C.3     1  UNL1        0.0475
@<TRIPOS>BOND
     1    35    36    1
     2    36    25    1
     3    25    26   ar
     4    26    27   ar
     5    27    28   ar
     6    28    29   ar
     7    29    30   ar
     8    30    31    1
     9    30    32   ar
    10    32    33   ar
    11    33    34   ar
    12    34    21    1
    13    21    22    2
    14    21    23   am
    15    23    20    1
    16    20     1    1
    17     1     2   ar
    18     2     3   ar
    19     3     4   ar
    20     4     7    1
    21     7     8    1
    22     8     9    1
    23     9    10    1
    24    10    13    1
    25    13    14   ar
    26    14    15   ar
    27    15    16   ar
    28    16    17    1
    29    16    18   ar
    30    18    19   ar
    31    10    11    1
    32    11    12    1
    33     4     5   ar
    34     5     6   ar
    35    34    25   ar
    36     6     1   ar
    37    33    27   ar
    38    12     7    1
    39    19    13   ar
    40    23    24    1
@<TRIPOS>MOLECULE
*****
 36 40 0 0 0
SMALL
GASTEIGER

@<TRIPOS>ATOM
      1 C           1.7666    1.5752   30.3238 C.ar    1  UNL1       -0.0025
      2 C           1.8263    2.4740   29.1245 C.ar    1  UNL1       -0.0014
      3 C           2.1991    1.9127   27.7843 C.ar    1  UNL1        0.0142
      4 C           2.5123    0.4525   27.6436 C.ar    1  UNL1        0.0478
      5 C           2.4526   -0.4463   28.8429 C.ar    1  UNL1        0.0142
      6 C           2.0798    0.1150   30.1831 C.ar    1  UNL1       -0.0014
      7 N           2.8851   -0.1088   26.3034 N.pl3   1  UNL1       -0.3075
      8 C           2.2268    0.4149   25.0615 C.3     1  UNL1        0.0911
      9 C           2.5996   -0.1464   23.7214 C.3     1  UNL1        0.0258
     10 C           3.6307   -1.2314   23.6232 C.3     1  UNL1        0.0257
     11 C           4.2890   -1.7551   24.8651 C.3     1  UNL1        0.0258
     12 C           3.9162   -1.1938   26.2052 C.3     1  UNL1        0.0911
     13 C           4.0036   -1.7927   22.2831 C.ar    1  UNL1       -0.0223
     14 C           4.5730   -3.1766   22.1816 C.ar    1  UNL1       -0.0034
     15 C           4.9459   -3.7379   20.8415 C.ar    1  UNL1        0.0111
     16 C           4.7492   -2.9153   19.6028 C.ar    1  UNL1        0.0577
     17 CL          5.1220   -3.4766   18.2626 Cl      1  UNL1       -0.0822
     18 C           4.1797   -1.5313   19.7042 C.ar    1  UNL1        0.0111
     19 C           3.8069   -0.9700   21.0443 C.ar    1  UNL1       -0.0034
     20 C           1.3938    2.1365   31.6640 C.3     1  UNL1        0.1166
     21 C           3.3920    1.7366   33.2755 C.2     1  UNL1        0.2635
     22 O           4.2748    2.5602   32.3851 O.2     1  UNL1       -0.2685
     23 N           1.9516    1.5248   32.9148 N.am    1  UNL1       -0.2957
     24 H           1.3722    0.9843   33.4991 H       1  UNL1        0.1501
     25 C           4.5975   -0.2237   34.6353 C.ar    1  UNL1        0.0811
     26 N           5.0058   -0.4276   36.0642 N.ar    1  UNL1       -0.2306
     27 C           4.6106    0.7949   36.8383 C.ar    1  UNL1        0.1475
     28 C           4.7606    1.1584   38.2858 C.ar    1  UNL1        0.0383
     29 C           4.2580    2.4813   38.7829 C.ar    1  UNL1        0.0160
     30 C           3.6054    3.4409   37.8324 C.ar    1  UNL1        0.0753
     31 CL          3.1028    4.7639   38.3295 Cl      1  UNL1       -0.0807
     32 C           3.4553    3.0774   36.3849 C.ar    1  UNL1        0.0929
     33 N           3.9579    1.7544   35.8878 N.ar    1  UNL1       -0.2845
     34 C           3.9499    1.1249   34.5263 C.ar    1  UNL1        0.1326
     35 C           4.2431   -2.5860   33.6138 C.3     1  UNL1        0.0067
     36 C           4.8010   -1.1974   33.5126 C.3     1  UNL1        0.0475
@<TRIPOS>BOND
     1    35    36    1
     2    36    25    1
     3    25    26   ar
     4    26    27   ar
     5    27    28   ar
     6    28    29   ar
     7    29    30   ar
     8    30    31    1
     9    30    32   ar
    10    32    33   ar
    11    33    34   ar
    12    34    21    1
    13    21    22    2
    14    21    23   am
    15    23    20    1
    16    20     1    1
    17     1     2   ar
    18     2     3   ar
    19     3     4   ar
    20     4     7    1
    21     7     8    1
    22     8     9    1
    23     9    10    1
    24    10    13    1
    25    13    14   ar
    26    14    15   ar
    27    15    16   ar
    28    16    17    1
    29    16    18   ar
    30    18    19   ar
    31    10    11    1
    32    11    12    1
    33     4     5   ar
    34     5     6   ar
    35    34    25   ar
    36     6     1   ar
    37    33    27   ar
    38    12     7    1
    39    19    13   ar
    40    23    24    1
@<TRIPOS>MOLECULE
*****
 36 40 0 0 0
SMALL
GASTEIGER

@<TRIPOS>ATOM
      1 C           6.5974   -3.7376   24.3327 C.ar    1  UNL1       -0.0025
      2 C           6.1757   -2.3357   24.6596 C.ar    1  UNL1       -0.0014
      3 C           6.0741   -1.8974   26.0905 C.ar    1  UNL1        0.0142
      4 C           6.3944   -2.8609   27.1946 C.ar    1  UNL1        0.0478
      5 C           6.8161   -4.2627   26.8677 C.ar    1  UNL1        0.0142
      6 C           6.9177   -4.7011   25.4368 C.ar    1  UNL1       -0.0014
      7 N           6.2928   -2.4225   28.6255 N.pl3   1  UNL1       -0.3075
      8 C           6.9406   -3.2357   29.7068 C.3     1  UNL1        0.0911
      9 C           6.8390   -2.7973   31.1377 C.3     1  UNL1        0.0258
     10 C           6.0897   -1.5458   31.4873 C.3     1  UNL1        0.0257
     11 C           5.4419   -0.7326   30.4061 C.3     1  UNL1        0.0258
     12 C           5.5435   -1.1710   28.9752 C.3     1  UNL1        0.0911
     13 C           5.9882   -1.1074   32.9182 C.ar    1  UNL1       -0.0223
     14 C           4.6968   -1.2721   33.6633 C.ar    1  UNL1       -0.0034
     15 C           4.5952   -0.8338   35.0942 C.ar    1  UNL1        0.0111
     16 C           5.7851   -0.2306   35.7801 C.ar    1  UNL1        0.0577
     17 CL          5.6836    0.2077   37.2110 Cl      1  UNL1       -0.0822
     18 C           7.0765   -0.0659   35.0350 C.ar    1  UNL1        0.0111
     19 C           7.1780   -0.5043   33.6041 C.ar    1  UNL1       -0.0034
     20 C           6.6990   -4.1759   22.9018 C.3     1  UNL1        0.1166
     21 C           5.3549   -3.3007   20.8580 C.2     1  UNL1        0.2635
     22 O           4.3725   -4.4220   21.0239 O.2     1  UNL1       -0.2685
     23 N           6.5181   -3.1777   21.7969 N.am    1  UNL1       -0.2957
     24 H           7.1629   -2.4417   21.6880 H       1  UNL1        0.1501
     25 C           6.1754   -1.9794   18.6840 C.ar    1  UNL1        0.0811
     26 N           5.5803   -0.9293   17.7935 N.ar    1  UNL1       -0.2306
     27 C           4.2111   -0.6032   18.3122 C.ar    1  UNL1        0.1475
     28 C           3.1605    0.3567   17.8382 C.ar    1  UNL1        0.0383
     29 C           1.8589    0.4681   18.5753 C.ar    1  UNL1        0.0160
     30 C           1.6079   -0.3806   19.7864 C.ar    1  UNL1        0.0753
     31 CL          0.3062   -0.2692   20.5235 Cl      1  UNL1       -0.0807
     32 C           2.6584   -1.3406   20.2604 C.ar    1  UNL1        0.0929
     33 N           3.9600   -1.4519   19.5233 N.ar    1  UNL1       -0.2845
     34 C           5.1741   -2.3024   19.7531 C.ar    1  UNL1        0.1326
     35 C           8.7169   -1.9881   19.2232 C.3     1  UNL1        0.0067
     36 C           7.5335   -2.5979   18.5321 C.3     1  UNL1        0.0475
@<TRIPOS>BOND
     1    35    36    1
     2    36    25    1
     3    25    26   ar
     4    26    27   ar
     5    27    28   ar
     6    28    29   ar
     7    29    30   ar
     8    30    31    1
     9    30    32   ar
    10    32    33   ar
    11    33    34   ar
    12    34    21    1
    13    21    22    2
    14    21    23   am
    15    23    20    1
    16    20     1    1
    17     1     2   ar
    18     2     3   ar
    19     3     4   ar
    20     4     7    1
    21     7     8    1
    22     8     9    1
    23     9    10    1
    24    10    13    1
    25    13    14   ar
    26    14    15   ar
    27    15    16   ar
    28    16    17    1
    29    16    18   ar
    30    18    19   ar
    31    10    11    1
    32    11    12    1
    33     4     5   ar
    34     5     6   ar
    35    34    25   ar
    36     6     1   ar
    37    33    27   ar
    38    12     7    1
    39    19    13   ar
    40    23    24    1
@<TRIPOS>MOLECULE
*****
 36 40 0 0 0
SMALL
GASTEIGER

@<TRIPOS>ATOM
      1 C           1.2494    3.3497   29.2089 C.ar    1  UNL1       -0.0025
      2 C           0.2067    2.5465   28.4895 C.ar    1  UNL1       -0.0014
      3 C           0.5922    1.6978   27.3143 C.ar    1  UNL1        0.0142
      4 C           2.0205    1.6524   26.8583 C.ar    1  UNL1        0.0478
      5 C           3.0632    2.4557   27.5777 C.ar    1  UNL1        0.0142
      6 C           2.6777    3.3043   28.7529 C.ar    1  UNL1       -0.0014
      7 N           2.4060    0.8038   25.6831 N.pl3   1  UNL1       -0.3075
      8 C           3.4380   -0.2731   25.8420 C.3     1  UNL1        0.0911
      9 C           3.8235   -1.1217   24.6667 C.3     1  UNL1        0.0258
     10 C           3.1770   -0.8934   23.3326 C.3     1  UNL1        0.0257
     11 C           2.1451    0.1836   23.1736 C.3     1  UNL1        0.0258
     12 C           1.7596    1.0322   24.3489 C.3     1  UNL1        0.0911
     13 C           3.5625   -1.7420   22.1573 C.ar    1  UNL1       -0.0223
     14 C           4.4793   -2.9139   22.3470 C.ar    1  UNL1       -0.0034
     15 C           4.8648   -3.7626   21.1717 C.ar    1  UNL1        0.0111
     16 C           4.3335   -3.4392   19.8067 C.ar    1  UNL1        0.0577
     17 CL          4.7191   -4.2878   18.6314 Cl      1  UNL1       -0.0822
     18 C           3.4168   -2.2672   19.6170 C.ar    1  UNL1        0.0111
     19 C           3.0313   -1.4186   20.7923 C.ar    1  UNL1       -0.0034
     20 C           0.8639    4.1983   30.3842 C.3     1  UNL1        0.1166
     21 C           1.5114    2.7188   32.4193 C.2     1  UNL1        0.2635
     22 O           0.7397    1.5740   31.8325 O.2     1  UNL1       -0.2685
     23 N           1.5735    4.0308   31.6951 N.am    1  UNL1       -0.2957
     24 H           2.0799    4.7821   32.0801 H       1  UNL1        0.1501
     25 C           3.1724    1.4466   34.0829 C.ar    1  UNL1        0.0811
     26 N           3.6431    1.6717   35.4893 N.ar    1  UNL1       -0.2306
     27 C           2.9825    2.9155   36.0057 C.ar    1  UNL1        0.1475
     28 C           3.0677    3.6233   37.3254 C.ar    1  UNL1        0.0383
     29 C           2.2740    4.8746   37.5580 C.ar    1  UNL1        0.0160
     30 C           1.3951    5.4182   36.4708 C.ar    1  UNL1        0.0753
     31 CL          0.6014    6.6696   36.7034 Cl      1  UNL1       -0.0807
     32 C           1.3098    4.7104   35.1511 C.ar    1  UNL1        0.0929
     33 N           2.1035    3.4591   34.9185 N.ar    1  UNL1       -0.2845
     34 C           2.2209    2.5513   33.7302 C.ar    1  UNL1        0.1326
     35 C           4.5103    0.5683   32.0363 C.3     1  UNL1        0.0067
     36 C           3.5814    0.3155   33.1867 C.3     1  UNL1        0.0475
@<TRIPOS>BOND
     1    35    36    1
     2    36    25    1
     3    25    26   ar
     4    26    27   ar
     5    27    28   ar
     6    28    29   ar
     7    29    30   ar
     8    30    31    1
     9    30    32   ar
    10    32    33   ar
    11    33    34   ar
    12    34    21    1
    13    21    22    2
    14    21    23   am
    15    23    20    1
    16    20     1    1
    17     1     2   ar
    18     2     3   ar
    19     3     4   ar
    20     4     7    1
    21     7     8    1
    22     8     9    1
    23     9    10    1
    24    10    13    1
    25    13    14   ar
    26    14    15   ar
    27    15    16   ar
    28    16    17    1
    29    16    18   ar
    30    18    19   ar
    31    10    11    1
    32    11    12    1
    33     4     5   ar
    34     5     6   ar
    35    34    25   ar
    36     6     1   ar
    37    33    27   ar
    38    12     7    1
    39    19    13   ar
    40    23    24    1
