@<TRIPOS>MOLECULE
*****
 22 24 0 0 0
SMALL
GASTEIGER

@<TRIPOS>ATOM
      1 N          -6.8718  -18.8151   21.6007 N.pl3   1  UNL1       -0.2167
      2 H          -6.8115  -18.2144   20.8230 H       1  UNL1        0.2923
      3 C          -8.2102  -19.1421   22.1939 C.2     1  UNL1        0.3240
      4 N          -8.3217  -20.1903   23.2610 N.2     1  UNL1       -0.0385
      5 C          -9.6601  -20.5173   23.8541 C.2     1  UNL1        0.2351
      6 C         -10.8869  -19.7959   23.3802 C.2     1  UNL1        0.0484
      7 C         -10.7754  -18.7477   22.3131 C.2     1  UNL1        0.0125
      8 C         -11.8013  -17.8770   21.6503 C.2     1  UNL1       -0.0101
      9 C         -13.2731  -17.8723   21.9395 C.3     1  UNL1        0.0320
     10 C         -11.0970  -17.0120   20.6474 C.2     1  UNL1        0.0509
     11 C         -11.7409  -15.9902   19.7577 C.3     1  UNL1        0.0513
     12 N          -9.6358  -17.3480   20.6905 N.2     1  UNL1       -0.2603
     13 C          -9.4370  -18.4207   21.7200 C.3     1  UNL1        0.2295
     14 C          -5.6252  -19.4033   22.1925 C.3     1  UNL1        0.2258
     15 C          -4.1701  -20.6377   19.8776 C.3     1  UNL1        0.0308
     16 C          -3.5534  -19.4943   20.6275 C.ar    1  UNL1       -0.0223
     17 C          -2.2091  -18.9681   20.2200 C.ar    1  UNL1       -0.0045
     18 C          -1.5924  -17.8248   20.9699 C.ar    1  UNL1       -0.0007
     19 C          -2.3200  -17.2076   22.1273 C.ar    1  UNL1       -0.0045
     20 C          -3.6642  -17.7337   22.5349 C.ar    1  UNL1       -0.0223
     21 C          -4.3918  -17.1165   23.6923 C.3     1  UNL1        0.0308
     22 C          -4.2810  -18.8771   21.7850 C.ar    1  UNL1        0.0162
@<TRIPOS>BOND
     1    15    16    1
     2    16    17   ar
     3    17    18   ar
     4    18    19   ar
     5    19    20   ar
     6    20    21    1
     7    20    22   ar
     8    22    14    1
     9    14     1    1
    10     1     3    1
    11     3     4    2
    12     4     5    1
    13     5     6    2
    14     6     7    1
    15     7     8    2
    16     8     9    1
    17     8    10    1
    18    10    11    1
    19    10    12    2
    20    12    13    1
    21    22    16   ar
    22    13     3    1
    23    13     7    1
    24     1     2    1
@<TRIPOS>MOLECULE
*****
 22 24 0 0 0
SMALL
GASTEIGER

@<TRIPOS>ATOM
      1 N          -6.9004  -18.8090   21.6370 N.pl3   1  UNL1       -0.2167
      2 H          -6.8372  -18.2031   20.8636 H       1  UNL1        0.2923
      3 C          -8.2406  -19.1350   22.2268 C.2     1  UNL1        0.3240
      4 N          -8.3549  -20.1793   23.2974 N.2     1  UNL1       -0.0385
      5 C          -9.6950  -20.5052   23.8872 C.2     1  UNL1        0.2351
      6 C         -10.9208  -19.7868   23.4063 C.2     1  UNL1        0.0484
      7 C         -10.8065  -18.7424   22.3357 C.2     1  UNL1        0.0125
      8 C         -11.8309  -17.8752   21.6661 C.2     1  UNL1       -0.0101
      9 C         -13.3038  -17.8707   21.9502 C.3     1  UNL1        0.0320
     10 C         -11.1240  -17.0133   20.6624 C.2     1  UNL1        0.0509
     11 C         -11.7657  -15.9955   19.7667 C.3     1  UNL1        0.0513
     12 N          -9.6626  -17.3478   20.7118 N.2     1  UNL1       -0.2603
     13 C          -9.4664  -18.4165   21.7460 C.3     1  UNL1        0.2295
     14 C          -5.6567  -19.4062   22.2255 C.3     1  UNL1        0.2258
     15 C          -4.4071  -17.1285   23.7256 C.3     1  UNL1        0.0308
     16 C          -3.6850  -17.7491   22.5666 C.ar    1  UNL1       -0.0223
     17 C          -2.3380  -17.2309   22.1576 C.ar    1  UNL1       -0.0045
     18 C          -1.6160  -17.8516   20.9986 C.ar    1  UNL1       -0.0007
     19 C          -2.2408  -18.9905   20.2485 C.ar    1  UNL1       -0.0045
     20 C          -3.5877  -19.5087   20.6575 C.ar    1  UNL1       -0.0223
     21 C          -4.2125  -20.6476   19.9075 C.3     1  UNL1        0.0308
     22 C          -4.3098  -18.8880   21.8166 C.ar    1  UNL1        0.0162
@<TRIPOS>BOND
     1    15    16    1
     2    16    17   ar
     3    17    18   ar
     4    18    19   ar
     5    19    20   ar
     6    20    21    1
     7    20    22   ar
     8    22    14    1
     9    14     1    1
    10     1     3    1
    11     3     4    2
    12     4     5    1
    13     5     6    2
    14     6     7    1
    15     7     8    2
    16     8     9    1
    17     8    10    1
    18    10    11    1
    19    10    12    2
    20    12    13    1
    21    22    16   ar
    22    13     3    1
    23    13     7    1
    24     1     2    1
@<TRIPOS>MOLECULE
*****
 22 24 0 0 0
SMALL
GASTEIGER

@<TRIPOS>ATOM
      1 N          -4.9161  -16.2095   23.1871 N.pl3   1  UNL1       -0.2167
      2 H          -4.5573  -15.4147   22.7301 H       1  UNL1        0.2923
      3 C          -6.2444  -16.1401   23.8806 C.2     1  UNL1        0.3240
      4 N          -6.3443  -15.5395   25.2515 N.2     1  UNL1       -0.0385
      5 C          -7.6725  -15.4702   25.9449 C.2     1  UNL1        0.2351
      6 C          -8.9009  -16.0015   25.2675 C.2     1  UNL1        0.0484
      7 C          -8.8010  -16.6022   23.8967 C.2     1  UNL1        0.0125
      8 C          -9.8310  -17.2023   22.9863 C.2     1  UNL1       -0.0101
      9 C         -11.2956  -17.3384   23.2804 C.3     1  UNL1        0.0320
     10 C          -9.1394  -17.6426   21.7302 C.2     1  UNL1        0.0509
     11 C          -9.7909  -18.2961   20.5476 C.3     1  UNL1        0.0513
     12 N          -7.6818  -17.3145   21.8642 N.2     1  UNL1       -0.2603
     13 C          -7.4727  -16.6715   23.2033 C.3     1  UNL1        0.2295
     14 C          -4.1345  -17.4897   23.1900 C.3     1  UNL1        0.2258
     15 C          -1.8485  -16.3304   21.6311 C.3     1  UNL1        0.0308
     16 C          -2.5740  -17.5368   21.1133 C.ar    1  UNL1       -0.0223
     17 C          -2.1566  -18.1636   19.8160 C.ar    1  UNL1       -0.0045
     18 C          -2.8821  -19.3700   19.2982 C.ar    1  UNL1       -0.0007
     19 C          -4.0251  -19.9497   20.0776 C.ar    1  UNL1       -0.0045
     20 C          -4.4426  -19.3229   21.3749 C.ar    1  UNL1       -0.0223
     21 C          -5.5856  -19.9026   22.1543 C.3     1  UNL1        0.0308
     22 C          -3.7170  -18.1165   21.8927 C.ar    1  UNL1        0.0162
@<TRIPOS>BOND
     1    15    16    1
     2    16    17   ar
     3    17    18   ar
     4    18    19   ar
     5    19    20   ar
     6    20    21    1
     7    20    22   ar
     8    22    14    1
     9    14     1    1
    10     1     3    1
    11     3     4    2
    12     4     5    1
    13     5     6    2
    14     6     7    1
    15     7     8    2
    16     8     9    1
    17     8    10    1
    18    10    11    1
    19    10    12    2
    20    12    13    1
    21    22    16   ar
    22    13     3    1
    23    13     7    1
    24     1     2    1
@<TRIPOS>MOLECULE
*****
 22 24 0 0 0
SMALL
GASTEIGER

@<TRIPOS>ATOM
      1 N          -8.6890  -18.4018   20.8127 N.pl3   1  UNL1       -0.2167
      2 H          -8.8611  -17.4842   20.5003 H       1  UNL1        0.2923
      3 C          -7.2789  -18.8797   20.9957 C.2     1  UNL1        0.3240
      4 N          -6.7807  -20.0617   20.2181 N.2     1  UNL1       -0.0385
      5 C          -5.3708  -20.5395   20.4011 C.2     1  UNL1        0.2351
      6 C          -4.4590  -19.8354   21.3617 C.2     1  UNL1        0.0484
      7 C          -4.9571  -18.6534   22.1393 C.2     1  UNL1        0.0125
      8 C          -4.2944  -17.7654   23.1503 C.2     1  UNL1       -0.0101
      9 C          -2.8796  -17.8834   23.6345 C.3     1  UNL1        0.0320
     10 C          -5.2947  -16.7387   23.5921 C.2     1  UNL1        0.0509
     11 C          -5.0559  -15.6497   24.5957 C.3     1  UNL1        0.0513
     12 N          -6.5758  -16.9922   22.8542 N.2     1  UNL1       -0.2603
     13 C          -6.3671  -18.1756   21.9563 C.3     1  UNL1        0.2295
     14 C          -9.8367  -19.3221   21.1056 C.3     1  UNL1        0.2258
     15 C          -9.3937  -20.4951   23.8310 C.3     1  UNL1        0.0308
     16 C         -10.5650  -19.5910   23.5850 C.ar    1  UNL1       -0.0223
     17 C         -11.5149  -19.2734   24.7017 C.ar    1  UNL1       -0.0045
     18 C         -12.6862  -18.3693   24.4557 C.ar    1  UNL1       -0.0007
     19 C         -12.9077  -17.7828   23.0930 C.ar    1  UNL1       -0.0045
     20 C         -11.9579  -18.1004   21.9763 C.ar    1  UNL1       -0.0223
     21 C         -12.1795  -17.5138   20.6136 C.3     1  UNL1        0.0308
     22 C         -10.7865  -19.0045   22.2223 C.ar    1  UNL1        0.0162
@<TRIPOS>BOND
     1    15    16    1
     2    16    17   ar
     3    17    18   ar
     4    18    19   ar
     5    19    20   ar
     6    20    21    1
     7    20    22   ar
     8    22    14    1
     9    14     1    1
    10     1     3    1
    11     3     4    2
    12     4     5    1
    13     5     6    2
    14     6     7    1
    15     7     8    2
    16     8     9    1
    17     8    10    1
    18    10    11    1
    19    10    12    2
    20    12    13    1
    21    22    16   ar
    22    13     3    1
    23    13     7    1
    24     1     2    1
@<TRIPOS>MOLECULE
*****
 22 24 0 0 0
SMALL
GASTEIGER

@<TRIPOS>ATOM
      1 N          -8.6006  -18.5364   20.7786 N.pl3   1  UNL1       -0.2167
      2 H          -8.8008  -17.6493   20.4016 H       1  UNL1        0.2923
      3 C          -7.1762  -18.9663   20.9694 C.2     1  UNL1        0.3240
      4 N          -6.6320  -20.1262   20.1895 N.2     1  UNL1       -0.0385
      5 C          -5.2076  -20.5560   20.3803 C.2     1  UNL1        0.2351
      6 C          -4.3275  -19.8259   21.3510 C.2     1  UNL1        0.0484
      7 C          -4.8717  -18.6659   22.1309 C.2     1  UNL1        0.0125
      8 C          -4.2472  -17.7609   23.1512 C.2     1  UNL1       -0.0101
      9 C          -2.8326  -17.8325   23.6449 C.3     1  UNL1        0.0320
     10 C          -5.2856  -16.7717   23.5909 C.2     1  UNL1        0.0509
     11 C          -5.0916  -15.6805   24.6017 C.3     1  UNL1        0.0513
     12 N          -6.5519  -17.0654   22.8424 N.2     1  UNL1       -0.2603
     13 C          -6.2961  -18.2361   21.9401 C.3     1  UNL1        0.2295
     14 C          -9.7200  -19.4582   21.1623 C.3     1  UNL1        0.2258
     15 C         -11.8689  -17.5675   20.2639 C.3     1  UNL1        0.0308
     16 C         -11.8441  -18.0554   21.6821 C.ar    1  UNL1       -0.0223
     17 C         -12.8937  -17.5979   22.6512 C.ar    1  UNL1       -0.0045
     18 C         -12.8689  -18.0859   24.0693 C.ar    1  UNL1       -0.0007
     19 C         -11.7944  -19.0313   24.5185 C.ar    1  UNL1       -0.0045
     20 C         -10.7448  -19.4887   23.5495 C.ar    1  UNL1       -0.0223
     21 C          -9.6703  -20.4341   23.9987 C.3     1  UNL1        0.0308
     22 C         -10.7696  -19.0008   22.1313 C.ar    1  UNL1        0.0162
@<TRIPOS>BOND
     1    15    16    1
     2    16    17   ar
     3    17    18   ar
     4    18    19   ar
     5    19    20   ar
     6    20    21    1
     7    20    22   ar
     8    22    14    1
     9    14     1    1
    10     1     3    1
    11     3     4    2
    12     4     5    1
    13     5     6    2
    14     6     7    1
    15     7     8    2
    16     8     9    1
    17     8    10    1
    18    10    11    1
    19    10    12    2
    20    12    13    1
    21    22    16   ar
    22    13     3    1
    23    13     7    1
    24     1     2    1
@<TRIPOS>MOLECULE
*****
 22 24 0 0 0
SMALL
GASTEIGER

@<TRIPOS>ATOM
      1 N          -5.9874  -17.1159   22.7534 N.pl3   1  UNL1       -0.2167
      2 H          -5.3420  -16.4724   22.3813 H       1  UNL1        0.2923
      3 C          -7.2685  -16.6269   23.3616 C.2     1  UNL1        0.3240
      4 N          -7.2499  -15.9282   24.6888 N.2     1  UNL1       -0.0385
      5 C          -8.5309  -15.4392   25.2969 C.2     1  UNL1        0.2351
      6 C          -9.8305  -15.6488   24.5778 C.2     1  UNL1        0.0484
      7 C          -9.8491  -16.3475   23.2506 C.2     1  UNL1        0.0125
      8 C         -10.9687  -16.6951   22.3149 C.2     1  UNL1       -0.0101
      9 C         -12.4222  -16.3921   22.5282 C.3     1  UNL1        0.0320
     10 C         -10.3797  -17.3990   21.1285 C.2     1  UNL1        0.0509
     11 C         -11.1408  -17.9234   19.9470 C.3     1  UNL1        0.0513
     12 N          -8.8960  -17.4864   21.3309 N.2     1  UNL1       -0.2603
     13 C          -8.5681  -16.8365   22.6425 C.3     1  UNL1        0.2295
     14 C          -5.6899  -18.5855   22.7122 C.3     1  UNL1        0.2258
     15 C          -6.4060  -20.3761   20.4142 C.3     1  UNL1        0.0308
     16 C          -4.9735  -20.0033   20.6563 C.ar    1  UNL1       -0.0223
     17 C          -3.8989  -20.5259   19.7495 C.ar    1  UNL1       -0.0045
     18 C          -2.4663  -20.1531   19.9917 C.ar    1  UNL1       -0.0007
     19 C          -2.1082  -19.2578   21.1407 C.ar    1  UNL1       -0.0045
     20 C          -3.1827  -18.7353   22.0475 C.ar    1  UNL1       -0.0223
     21 C          -2.8246  -17.8400   23.1965 C.3     1  UNL1        0.0308
     22 C          -4.6154  -19.1080   21.8054 C.ar    1  UNL1        0.0162
@<TRIPOS>BOND
     1    15    16    1
     2    16    17   ar
     3    17    18   ar
     4    18    19   ar
     5    19    20   ar
     6    20    21    1
     7    20    22   ar
     8    22    14    1
     9    14     1    1
    10     1     3    1
    11     3     4    2
    12     4     5    1
    13     5     6    2
    14     6     7    1
    15     7     8    2
    16     8     9    1
    17     8    10    1
    18    10    11    1
    19    10    12    2
    20    12    13    1
    21    22    16   ar
    22    13     3    1
    23    13     7    1
    24     1     2    1
@<TRIPOS>MOLECULE
*****
 22 24 0 0 0
SMALL
GASTEIGER

@<TRIPOS>ATOM
      1 N          -6.6026  -16.5273   22.7904 N.pl3   1  UNL1       -0.2167
      2 H          -5.9626  -15.7859   22.8908 H       1  UNL1        0.2923
      3 C          -7.9924  -16.2565   22.2953 C.2     1  UNL1        0.3240
      4 N          -8.2251  -15.2052   21.2510 N.2     1  UNL1       -0.0385
      5 C          -9.6149  -14.9344   20.7560 C.2     1  UNL1        0.2351
      6 C         -10.7720  -15.7151   21.3051 C.2     1  UNL1        0.0484
      7 C         -10.5394  -16.7664   22.3494 C.2     1  UNL1        0.0125
      8 C         -11.4765  -17.6887   23.0713 C.2     1  UNL1       -0.0101
      9 C         -12.9632  -17.7581   22.8847 C.3     1  UNL1        0.0320
     10 C         -10.6658  -18.5295   24.0126 C.2     1  UNL1        0.0509
     11 C         -11.1996  -19.5873   24.9326 C.3     1  UNL1        0.0513
     12 N          -9.2277  -18.1268   23.8724 N.2     1  UNL1       -0.2603
     13 C          -9.1496  -17.0372   22.8444 C.3     1  UNL1        0.2295
     14 C          -6.1878  -17.9277   23.1325 C.3     1  UNL1        0.2258
     15 C          -7.4239  -19.6735   21.0291 C.3     1  UNL1        0.0308
     16 C          -5.9313  -19.5748   21.1397 C.ar    1  UNL1       -0.0223
     17 C          -5.0566  -20.3491   20.1987 C.ar    1  UNL1       -0.0045
     18 C          -3.5640  -20.2504   20.3093 C.ar    1  UNL1       -0.0007
     19 C          -2.9460  -19.3774   21.3610 C.ar    1  UNL1       -0.0045
     20 C          -3.8205  -18.6032   22.3020 C.ar    1  UNL1       -0.0223
     21 C          -3.2025  -17.7303   23.3537 C.3     1  UNL1        0.0308
     22 C          -5.3133  -18.7019   22.1914 C.ar    1  UNL1        0.0162
@<TRIPOS>BOND
     1    15    16    1
     2    16    17   ar
     3    17    18   ar
     4    18    19   ar
     5    19    20   ar
     6    20    21    1
     7    20    22   ar
     8    22    14    1
     9    14     1    1
    10     1     3    1
    11     3     4    2
    12     4     5    1
    13     5     6    2
    14     6     7    1
    15     7     8    2
    16     8     9    1
    17     8    10    1
    18    10    11    1
    19    10    12    2
    20    12    13    1
    21    22    16   ar
    22    13     3    1
    23    13     7    1
    24     1     2    1
@<TRIPOS>MOLECULE
*****
 22 24 0 0 0
SMALL
GASTEIGER

@<TRIPOS>ATOM
      1 N          -8.0120  -16.7888   22.2548 N.pl3   1  UNL1       -0.2167
      2 H          -7.9459  -15.8831   21.8746 H       1  UNL1        0.2923
      3 C          -7.3217  -17.9375   21.5808 C.2     1  UNL1        0.3240
      4 N          -8.0953  -18.8520   20.6779 N.2     1  UNL1       -0.0385
      5 C          -7.4050  -20.0006   20.0040 C.2     1  UNL1        0.2351
      6 C          -5.9411  -20.2345   20.2328 C.2     1  UNL1        0.0484
      7 C          -5.1675  -19.3200   21.1356 C.2     1  UNL1        0.0125
      8 C          -3.7257  -19.3012   21.5488 C.2     1  UNL1       -0.0101
      9 C          -2.6700  -20.2721   21.1097 C.3     1  UNL1        0.0320
     10 C          -3.5249  -18.1410   22.4781 C.2     1  UNL1        0.0509
     11 C          -2.2331  -17.7480   23.1316 C.3     1  UNL1        0.0513
     12 N          -4.8426  -17.4427   22.6394 N.2     1  UNL1       -0.2603
     13 C          -5.8579  -18.1714   21.8096 C.3     1  UNL1        0.2295
     14 C          -8.8031  -17.0202   23.5081 C.3     1  UNL1        0.2258
     15 C         -10.4869  -15.7454   21.3774 C.3     1  UNL1        0.0308
     16 C         -11.1099  -16.6939   22.3583 C.ar    1  UNL1       -0.0223
     17 C         -12.5749  -17.0050   22.2739 C.ar    1  UNL1       -0.0045
     18 C         -13.1979  -17.9535   23.2548 C.ar    1  UNL1       -0.0007
     19 C         -12.3560  -18.5909   24.3201 C.ar    1  UNL1       -0.0045
     20 C         -10.8911  -18.2798   24.4045 C.ar    1  UNL1       -0.0223
     21 C         -10.0492  -18.9172   25.4699 C.3     1  UNL1        0.0308
     22 C         -10.2680  -17.3313   23.4236 C.ar    1  UNL1        0.0162
@<TRIPOS>BOND
     1    15    16    1
     2    16    17   ar
     3    17    18   ar
     4    18    19   ar
     5    19    20   ar
     6    20    21    1
     7    20    22   ar
     8    22    14    1
     9    14     1    1
    10     1     3    1
    11     3     4    2
    12     4     5    1
    13     5     6    2
    14     6     7    1
    15     7     8    2
    16     8     9    1
    17     8    10    1
    18    10    11    1
    19    10    12    2
    20    12    13    1
    21    22    16   ar
    22    13     3    1
    23    13     7    1
    24     1     2    1
@<TRIPOS>MOLECULE
*****
 22 24 0 0 0
SMALL
GASTEIGER

@<TRIPOS>ATOM
      1 N          -8.8111  -15.7886   22.2859 N.pl3   1  UNL1       -0.2167
      2 H          -8.7474  -14.9377   21.7948 H       1  UNL1        0.2923
      3 C          -7.6412  -16.7270   22.3154 C.2     1  UNL1        0.3240
      4 N          -6.4979  -16.4710   23.2521 N.2     1  UNL1       -0.0385
      5 C          -5.3281  -17.4094   23.2816 C.2     1  UNL1        0.2351
      6 C          -5.3015  -18.6037   22.3745 C.2     1  UNL1        0.0484
      7 C          -6.4448  -18.8597   21.4378 C.2     1  UNL1        0.0125
      8 C          -6.6965  -19.9460   20.4345 C.2     1  UNL1       -0.0101
      9 C          -5.7831  -21.0971   20.1337 C.3     1  UNL1        0.0320
     10 C          -8.0219  -19.6790   19.7849 C.2     1  UNL1        0.0509
     11 C          -8.6667  -20.5164   18.7204 C.3     1  UNL1        0.0513
     12 N          -8.5894  -18.4277   20.3867 N.2     1  UNL1       -0.2603
     13 C          -7.6146  -17.9213   21.4083 C.3     1  UNL1        0.2295
     14 C         -10.0781  -16.1468   23.0046 C.3     1  UNL1        0.2258
     15 C          -8.9521  -16.9580   25.6643 C.3     1  UNL1        0.0308
     16 C          -9.7207  -17.9490   24.8414 C.ar    1  UNL1       -0.0223
     17 C          -9.9263  -19.3458   25.3484 C.ar    1  UNL1       -0.0045
     18 C         -10.6949  -20.3368   24.5255 C.ar    1  UNL1       -0.0007
     19 C         -11.2579  -19.9311   23.1956 C.ar    1  UNL1       -0.0045
     20 C         -11.0523  -18.5345   22.6887 C.ar    1  UNL1       -0.0223
     21 C         -11.6153  -18.1288   21.3588 C.3     1  UNL1        0.0308
     22 C         -10.2837  -17.5434   23.5115 C.ar    1  UNL1        0.0162
@<TRIPOS>BOND
     1    15    16    1
     2    16    17   ar
     3    17    18   ar
     4    18    19   ar
     5    19    20   ar
     6    20    21    1
     7    20    22   ar
     8    22    14    1
     9    14     1    1
    10     1     3    1
    11     3     4    2
    12     4     5    1
    13     5     6    2
    14     6     7    1
    15     7     8    2
    16     8     9    1
    17     8    10    1
    18    10    11    1
    19    10    12    2
    20    12    13    1
    21    22    16   ar
    22    13     3    1
    23    13     7    1
    24     1     2    1
