@<TRIPOS>MOLECULE
*****
 39 41 0 0 0
SMALL
GASTEIGER

@<TRIPOS>ATOM
      1 O          -8.8131  -17.4045   21.1671 O.3     1  UNL1       -0.2709
      2 P          -9.1388  -16.7293   22.4664 P.3     1  UNL1        0.4634
      3 O          -8.2778  -17.7177   23.1958 O.2     1  UNL1       -0.2281
      4 N          -9.9997  -15.7410   21.7371 N.3     1  UNL1       -0.1929
      5 H         -10.3476  -15.0827   22.4342 H       1  UNL1        0.1358
      6 C         -11.1901  -16.2151   20.9573 C.3     1  UNL1        0.1635
      7 C         -11.4594  -15.6618   19.5893 C.3     1  UNL1        0.0296
      8 C         -12.1112  -17.2426   21.5455 C.2     1  UNL1        0.3317
      9 O         -12.2494  -18.5866   20.8940 O.2     1  UNL1       -0.2486
     10 O         -12.8943  -16.9259   22.7851 O.3     1  UNL1       -0.4514
     11 C         -14.3930  -18.2599   24.4355 C.3     1  UNL1        0.0473
     12 C         -13.0394  -17.9573   23.8644 C.3     1  UNL1        0.1691
     13 C         -11.8310  -18.6861   24.3727 C.3     1  UNL1        0.0473
     14 O          -9.4644  -16.0543   23.7657 O.3     1  UNL1       -0.4115
     15 C          -8.3927  -15.8530   24.7956 C.ar    1  UNL1        0.1479
     16 C          -8.6467  -16.2282   26.2255 C.ar    1  UNL1        0.0374
     17 C          -7.5749  -16.0269   27.2555 C.ar    1  UNL1        0.0031
     18 C          -6.2491  -15.4505   26.8555 C.ar    1  UNL1        0.0002
     19 C          -5.9951  -15.0754   25.4256 C.ar    1  UNL1        0.0031
     20 C          -7.0668  -15.2766   24.3957 C.ar    1  UNL1        0.0374
     21 C          -8.3809  -18.8408   21.1559 C.3     1  UNL1        0.1857
     22 C          -6.9740  -19.1978   20.7777 C.3     1  UNL1        0.1782
     23 O          -5.7795  -18.2956   20.8728 O.3     1  UNL1       -0.3297
     24 C          -4.5818  -19.0599   20.3919 C.3     1  UNL1        0.2564
     25 C          -5.0361  -20.4345   19.9995 C.3     1  UNL1        0.2707
     26 F          -3.5894  -20.6459   19.6644 F       1  UNL1       -0.2161
     27 CL         -5.1879  -21.8534   19.5370 Cl      1  UNL1       -0.0736
     28 C          -6.5145  -20.5198   20.2379 C.3     1  UNL1        0.1891
     29 O          -7.3813  -21.7169   19.9816 O.3     1  UNL1       -0.3782
     30 H          -8.2984  -21.5089   20.2196 H       1  UNL1        0.2106
     31 N          -3.1765  -18.5407   20.3165 N.ar    1  UNL1       -0.2539
     32 C          -2.5394  -18.2920   18.9815 C.ar    1  UNL1        0.0869
     33 C          -1.1341  -17.7729   18.9062 C.ar    1  UNL1        0.0795
     34 C          -0.3660  -17.5024   20.1659 C.ar    1  UNL1        0.2626
     35 O           1.0394  -16.9832   20.0905 O.2     1  UNL1       -0.2670
     36 N          -1.0031  -17.7511   21.5009 N.ar    1  UNL1       -0.2743
     37 C          -2.4083  -18.2702   21.5762 C.ar    1  UNL1        0.3323
     38 O          -3.0455  -18.5189   22.9112 O.2     1  UNL1       -0.2464
     39 H          -0.4989  -17.5736   22.3276 H       1  UNL1        0.1734
@<TRIPOS>BOND
     1    11    12    1
     2    12    13    1
     3    12    10    1
     4    10     8    1
     5     8     9    2
     6     8     6    1
     7     6     7    1
     8     6     4    1
     9     4     2    1
    10     2     3    2
    11     2     1    1
    12     1    21    1
    13    22    21    1
    14    22    23    1
    15    23    24    1
    16    24    31    1
    17    31    32   ar
    18    32    33   ar
    19    33    34   ar
    20    34    35    2
    21    34    36   ar
    22    36    37   ar
    23    37    38    2
    24    24    25    1
    25    25    26    1
    26    25    27    1
    27    25    28    1
    28    28    29    1
    29     2    14    1
    30    14    15    1
    31    15    16   ar
    32    16    17   ar
    33    17    18   ar
    34    18    19   ar
    35    19    20   ar
    36    28    22    1
    37    20    15   ar
    38    37    31   ar
    39     4     5    1
    40    36    39    1
    41    29    30    1
@<TRIPOS>MOLECULE
*****
 39 41 0 0 0
SMALL
GASTEIGER

@<TRIPOS>ATOM
      1 O          -9.1117  -15.4031   24.4236 O.3     1  UNL1       -0.2709
      2 P          -9.3455  -16.7072   23.7202 P.3     1  UNL1        0.4634
      3 O          -9.0507  -17.4460   24.9920 O.2     1  UNL1       -0.2281
      4 N          -9.6402  -15.9684   22.4485 N.3     1  UNL1       -0.1929
      5 H          -9.4600  -14.9815   22.6327 H       1  UNL1        0.1358
      6 C         -11.0051  -16.0516   21.8319 C.3     1  UNL1        0.1635
      7 C         -12.2263  -15.9326   22.6947 C.3     1  UNL1        0.0296
      8 C         -11.1488  -16.2538   20.3525 C.2     1  UNL1        0.3317
      9 O         -10.6314  -15.2169   19.4001 O.2     1  UNL1       -0.2486
     10 O         -11.8098  -17.4930   19.8256 O.3     1  UNL1       -0.4514
     11 C         -10.1326  -19.3449   19.1136 C.3     1  UNL1        0.0473
     12 C         -11.1810  -18.8348   20.0574 C.3     1  UNL1        0.1691
     13 C         -11.6004  -19.6667   21.2330 C.3     1  UNL1        0.0473
     14 O          -9.5792  -18.0112   23.0169 O.3     1  UNL1       -0.4115
     15 C          -8.4330  -18.7303   22.3696 C.ar    1  UNL1        0.1479
     16 C          -8.0026  -20.0719   22.8841 C.ar    1  UNL1        0.0374
     17 C          -6.8563  -20.7909   22.2368 C.ar    1  UNL1        0.0031
     18 C          -6.1404  -20.1683   21.0749 C.ar    1  UNL1        0.0002
     19 C          -6.5708  -18.8268   20.5604 C.ar    1  UNL1        0.0031
     20 C          -7.7171  -18.1077   21.2077 C.ar    1  UNL1        0.0374
     21 C          -7.7806  -14.7202   24.3144 C.3     1  UNL1        0.1857
     22 C          -6.5196  -15.5324   24.3029 C.3     1  UNL1        0.1782
     23 O          -5.7540  -15.9548   23.0842 O.3     1  UNL1       -0.3297
     24 C          -4.5640  -16.7482   23.5362 C.3     1  UNL1        0.2564
     25 C          -4.5942  -16.8163   25.0344 C.3     1  UNL1        0.2707
     26 F          -3.3369  -17.6169   24.8664 F       1  UNL1       -0.2161
     27 CL         -4.3615  -17.0517   26.4974 Cl      1  UNL1       -0.0736
     28 C          -5.8028  -16.0648   25.5083 C.3     1  UNL1        0.1891
     29 O          -6.2212  -15.8785   26.9366 O.3     1  UNL1       -0.3782
     30 H          -7.0369  -15.3546   26.9689 H       1  UNL1        0.2106
     31 N          -3.5260  -17.3654   22.6463 N.ar    1  UNL1       -0.2539
     32 C          -3.4577  -18.8562   22.4957 C.ar    1  UNL1        0.0869
     33 C          -2.4198  -19.4733   21.6058 C.ar    1  UNL1        0.0795
     34 C          -1.4502  -18.5995   20.8667 C.ar    1  UNL1        0.2626
     35 O          -0.4122  -19.2167   19.9768 O.2     1  UNL1       -0.2670
     36 N          -1.5185  -17.1087   21.0173 N.ar    1  UNL1       -0.2743
     37 C          -2.5564  -16.4916   21.9071 C.ar    1  UNL1        0.3323
     38 O          -2.6248  -15.0007   22.0578 O.2     1  UNL1       -0.2464
     39 H          -0.8821  -16.5352   20.5322 H       1  UNL1        0.1734
@<TRIPOS>BOND
     1    11    12    1
     2    12    13    1
     3    12    10    1
     4    10     8    1
     5     8     9    2
     6     8     6    1
     7     6     7    1
     8     6     4    1
     9     4     2    1
    10     2     3    2
    11     2     1    1
    12     1    21    1
    13    22    21    1
    14    22    23    1
    15    23    24    1
    16    24    31    1
    17    31    32   ar
    18    32    33   ar
    19    33    34   ar
    20    34    35    2
    21    34    36   ar
    22    36    37   ar
    23    37    38    2
    24    24    25    1
    25    25    26    1
    26    25    27    1
    27    25    28    1
    28    28    29    1
    29     2    14    1
    30    14    15    1
    31    15    16   ar
    32    16    17   ar
    33    17    18   ar
    34    18    19   ar
    35    19    20   ar
    36    28    22    1
    37    20    15   ar
    38    37    31   ar
    39     4     5    1
    40    36    39    1
    41    29    30    1
@<TRIPOS>MOLECULE
*****
 39 41 0 0 0
SMALL
GASTEIGER

@<TRIPOS>ATOM
      1 O         -10.1569  -19.6884   24.0321 O.3     1  UNL1       -0.2709
      2 P         -10.0317  -18.2922   24.5661 P.3     1  UNL1        0.4634
      3 O          -9.4530  -18.8316   25.8406 O.2     1  UNL1       -0.2281
      4 N         -10.6103  -17.7529   23.2916 N.3     1  UNL1       -0.1929
      5 H         -10.4085  -16.7531   23.2766 H       1  UNL1        0.1358
      6 C         -12.0761  -17.9030   23.0109 C.3     1  UNL1        0.1635
      7 C         -13.0311  -18.1744   24.1352 C.3     1  UNL1        0.0296
      8 C         -12.5868  -17.7818   21.6057 C.2     1  UNL1        0.3317
      9 O         -14.0601  -17.8577   21.3340 O.2     1  UNL1       -0.2486
     10 O         -11.6243  -17.5848   20.4722 O.3     1  UNL1       -0.4514
     11 C         -11.8216  -15.4831   18.9577 C.3     1  UNL1        0.0473
     12 C         -11.1733  -16.2027   20.1030 C.3     1  UNL1        0.1691
     13 C         -10.0739  -15.5402   20.8792 C.3     1  UNL1        0.0473
     14 O          -9.9065  -16.8962   25.1001 O.3     1  UNL1       -0.4115
     15 C          -8.5569  -16.3487   25.4589 C.ar    1  UNL1        0.1479
     16 C          -7.5771  -16.0005   24.3779 C.ar    1  UNL1        0.0374
     17 C          -6.2275  -15.4530   24.7367 C.ar    1  UNL1        0.0031
     18 C          -5.8577  -15.2536   26.1767 C.ar    1  UNL1        0.0002
     19 C          -6.8374  -15.6017   27.2577 C.ar    1  UNL1        0.0031
     20 C          -8.1870  -16.1493   26.8989 C.ar    1  UNL1        0.0374
     21 C          -8.9250  -20.4866   23.7234 C.3     1  UNL1        0.1857
     22 C          -8.0156  -20.0615   22.6088 C.3     1  UNL1        0.1782
     23 O          -6.5204  -19.9647   22.6791 O.3     1  UNL1       -0.3297
     24 C          -6.0225  -19.5019   21.3420 C.3     1  UNL1        0.2564
     25 C          -7.2100  -19.3127   20.4453 C.3     1  UNL1        0.2707
     26 F          -6.1815  -18.9097   19.4305 F       1  UNL1       -0.2161
     27 CL         -8.1825  -19.0392   19.3365 Cl      1  UNL1       -0.0736
     28 C          -8.4418  -19.6585   21.2282 C.3     1  UNL1        0.1891
     29 O          -9.8522  -19.6099   20.7198 O.3     1  UNL1       -0.3782
     30 H         -10.4598  -19.8815   21.4255 H       1  UNL1        0.2106
     31 N          -4.5887  -19.2692   20.9673 N.ar    1  UNL1       -0.2539
     32 C          -3.9681  -20.0559   19.8511 C.ar    1  UNL1        0.0869
     33 C          -2.5344  -19.8232   19.4765 C.ar    1  UNL1        0.0795
     34 C          -1.7214  -18.8038   20.2180 C.ar    1  UNL1        0.2626
     35 O          -0.2877  -18.5711   19.8433 O.2     1  UNL1       -0.2670
     36 N          -2.3421  -18.0171   21.3341 N.ar    1  UNL1       -0.2743
     37 C          -3.7757  -18.2498   21.7088 C.ar    1  UNL1        0.3323
     38 O          -4.3965  -17.4631   22.8250 O.2     1  UNL1       -0.2464
     39 H          -1.8085  -17.3480   21.8208 H       1  UNL1        0.1734
@<TRIPOS>BOND
     1    11    12    1
     2    12    13    1
     3    12    10    1
     4    10     8    1
     5     8     9    2
     6     8     6    1
     7     6     7    1
     8     6     4    1
     9     4     2    1
    10     2     3    2
    11     2     1    1
    12     1    21    1
    13    22    21    1
    14    22    23    1
    15    23    24    1
    16    24    31    1
    17    31    32   ar
    18    32    33   ar
    19    33    34   ar
    20    34    35    2
    21    34    36   ar
    22    36    37   ar
    23    37    38    2
    24    24    25    1
    25    25    26    1
    26    25    27    1
    27    25    28    1
    28    28    29    1
    29     2    14    1
    30    14    15    1
    31    15    16   ar
    32    16    17   ar
    33    17    18   ar
    34    18    19   ar
    35    19    20   ar
    36    28    22    1
    37    20    15   ar
    38    37    31   ar
    39     4     5    1
    40    36    39    1
    41    29    30    1
@<TRIPOS>MOLECULE
*****
 39 41 0 0 0
SMALL
GASTEIGER

@<TRIPOS>ATOM
      1 O          -8.6223  -17.5104   21.5945 O.3     1  UNL1       -0.2709
      2 P          -8.3628  -16.2826   22.4163 P.3     1  UNL1        0.4634
      3 O          -7.4865  -17.0823   23.3342 O.2     1  UNL1       -0.2281
      4 N          -9.2392  -15.4830   21.4983 N.3     1  UNL1       -0.1929
      5 H          -9.2407  -14.5263   21.8520 H       1  UNL1        0.1358
      6 C         -10.6738  -15.8742   21.3016 C.3     1  UNL1        0.1635
      7 C         -11.5955  -15.9629   22.4817 C.3     1  UNL1        0.0296
      8 C         -11.1868  -16.1767   19.9249 C.2     1  UNL1        0.3317
      9 O         -11.0469  -15.1588   18.8320 O.2     1  UNL1       -0.2486
     10 O         -11.8397  -17.4970   19.6411 O.3     1  UNL1       -0.4514
     11 C         -10.1115  -19.3600   19.1004 C.3     1  UNL1        0.0473
     12 C         -11.1452  -18.7728   20.0150 C.3     1  UNL1        0.1691
     13 C         -11.4845  -19.4615   21.3037 C.3     1  UNL1        0.0473
     14 O          -8.1033  -15.0550   23.2380 O.3     1  UNL1       -0.4115
     15 C          -7.6440  -15.1874   24.6598 C.ar    1  UNL1        0.1479
     16 C          -6.1821  -15.1086   24.9860 C.ar    1  UNL1        0.0374
     17 C          -5.7227  -15.2410   26.4078 C.ar    1  UNL1        0.0031
     18 C          -6.7253  -15.4522   27.5033 C.ar    1  UNL1        0.0002
     19 C          -8.1872  -15.5309   27.1771 C.ar    1  UNL1        0.0031
     20 C          -8.6466  -15.3985   25.7553 C.ar    1  UNL1        0.0374
     21 C          -7.9452  -18.8028   21.9426 C.3     1  UNL1        0.1857
     22 C          -6.6089  -19.1336   21.3469 C.3     1  UNL1        0.1782
     23 O          -5.3835  -18.2699   21.3959 O.3     1  UNL1       -0.3297
     24 C          -4.2807  -18.9887   20.6770 C.3     1  UNL1        0.2564
     25 C          -4.8244  -20.2967   20.1836 C.3     1  UNL1        0.2707
     26 F          -3.4386  -20.4890   19.6427 F       1  UNL1       -0.2161
     27 CL         -5.0784  -21.6449   19.5771 Cl      1  UNL1       -0.0736
     28 C          -6.2633  -20.3863   20.5976 C.3     1  UNL1        0.1891
     29 O          -7.1934  -21.5281   20.3124 O.3     1  UNL1       -0.3782
     30 H          -8.0663  -21.3359   20.6893 H       1  UNL1        0.2106
     31 N          -2.8799  -18.4875   20.4850 N.ar    1  UNL1       -0.2539
     32 C          -2.3177  -18.3437   19.1019 C.ar    1  UNL1        0.0869
     33 C          -0.9170  -17.8425   18.9100 C.ar    1  UNL1        0.0795
     34 C          -0.0785  -17.4852   20.1013 C.ar    1  UNL1        0.2626
     35 O           1.3222  -16.9840   19.9094 O.2     1  UNL1       -0.2670
     36 N          -0.6407  -17.6290   21.4845 N.ar    1  UNL1       -0.2743
     37 C          -2.0414  -18.1302   21.6764 C.ar    1  UNL1        0.3323
     38 O          -2.6037  -18.2740   23.0596 O.2     1  UNL1       -0.2464
     39 H          -0.0904  -17.3945   22.2664 H       1  UNL1        0.1734
@<TRIPOS>BOND
     1    11    12    1
     2    12    13    1
     3    12    10    1
     4    10     8    1
     5     8     9    2
     6     8     6    1
     7     6     7    1
     8     6     4    1
     9     4     2    1
    10     2     3    2
    11     2     1    1
    12     1    21    1
    13    22    21    1
    14    22    23    1
    15    23    24    1
    16    24    31    1
    17    31    32   ar
    18    32    33   ar
    19    33    34   ar
    20    34    35    2
    21    34    36   ar
    22    36    37   ar
    23    37    38    2
    24    24    25    1
    25    25    26    1
    26    25    27    1
    27    25    28    1
    28    28    29    1
    29     2    14    1
    30    14    15    1
    31    15    16   ar
    32    16    17   ar
    33    17    18   ar
    34    18    19   ar
    35    19    20   ar
    36    28    22    1
    37    20    15   ar
    38    37    31   ar
    39     4     5    1
    40    36    39    1
    41    29    30    1
@<TRIPOS>MOLECULE
*****
 39 41 0 0 0
SMALL
GASTEIGER

@<TRIPOS>ATOM
      1 O          -4.9380  -19.1659   22.3606 O.3     1  UNL1       -0.2709
      2 P          -5.6732  -19.7291   21.1807 P.3     1  UNL1        0.4634
      3 O          -6.3443  -20.7284   22.0758 O.2     1  UNL1       -0.2281
      4 N          -5.0021  -18.7299   20.2856 N.3     1  UNL1       -0.1929
      5 H          -5.6680  -18.5020   19.5473 H       1  UNL1        0.1358
      6 C          -3.7088  -19.0778   19.6099 C.3     1  UNL1        0.1635
      7 C          -3.2406  -20.5024   19.5748 C.3     1  UNL1        0.0296
      8 C          -2.8839  -18.0011   18.9694 C.2     1  UNL1        0.3317
      9 O          -3.5564  -16.8524   18.2778 O.2     1  UNL1       -0.2486
     10 O          -1.3864  -18.0732   19.0204 O.3     1  UNL1       -0.4514
     11 C           0.8532  -17.5017   20.2067 C.3     1  UNL1        0.0473
     12 C          -0.6393  -17.3795   20.1207 C.3     1  UNL1        0.1691
     13 C          -1.3847  -16.5636   21.1349 C.3     1  UNL1        0.0473
     14 O          -6.4083  -20.2923   20.0008 O.3     1  UNL1       -0.4115
     15 C          -7.8459  -19.9312   19.7707 C.ar    1  UNL1        0.1479
     16 C          -8.6001  -20.5459   18.6291 C.ar    1  UNL1        0.0374
     17 C         -10.0377  -20.1847   18.3990 C.ar    1  UNL1        0.0031
     18 C         -10.7210  -19.2090   19.3105 C.ar    1  UNL1        0.0002
     19 C          -9.9668  -18.5943   20.4521 C.ar    1  UNL1        0.0031
     20 C          -8.5292  -18.9554   20.6822 C.ar    1  UNL1        0.0374
     21 C          -5.1025  -17.7206   22.7267 C.3     1  UNL1        0.1857
     22 C          -6.4293  -17.2162   23.2118 C.3     1  UNL1        0.1782
     23 O          -7.7393  -17.9392   23.1071 O.3     1  UNL1       -0.3297
     24 C          -8.7986  -17.0700   23.7174 C.3     1  UNL1        0.2564
     25 C          -8.1432  -15.8097   24.1993 C.3     1  UNL1        0.2707
     26 F          -9.5311  -15.4398   24.6313 F       1  UNL1       -0.2161
     27 CL         -7.7779  -14.4721   24.7715 Cl      1  UNL1       -0.0736
     28 C          -6.6789  -15.9000   23.8868 C.3     1  UNL1        0.1891
     29 O          -5.6456  -14.8573   24.1952 O.3     1  UNL1       -0.3782
     30 H          -4.7770  -15.1625   23.8896 H       1  UNL1        0.2106
     31 N         -10.2572  -17.4026   23.8266 N.ar    1  UNL1       -0.2539
     32 C         -11.2610  -16.6539   23.0010 C.ar    1  UNL1        0.0869
     33 C         -12.7196  -16.9866   23.1103 C.ar    1  UNL1        0.0795
     34 C         -13.1742  -18.0679   24.0451 C.ar    1  UNL1        0.2626
     35 O         -14.6329  -18.4006   24.1543 O.2     1  UNL1       -0.2670
     36 N         -12.1704  -18.8166   24.8707 N.ar    1  UNL1       -0.2743
     37 C         -10.7118  -18.4840   24.7615 C.ar    1  UNL1        0.3323
     38 O          -9.7079  -19.2327   25.5871 O.2     1  UNL1       -0.2464
     39 H         -12.4688  -19.5264   25.4843 H       1  UNL1        0.1734
@<TRIPOS>BOND
     1    11    12    1
     2    12    13    1
     3    12    10    1
     4    10     8    1
     5     8     9    2
     6     8     6    1
     7     6     7    1
     8     6     4    1
     9     4     2    1
    10     2     3    2
    11     2     1    1
    12     1    21    1
    13    22    21    1
    14    22    23    1
    15    23    24    1
    16    24    31    1
    17    31    32   ar
    18    32    33   ar
    19    33    34   ar
    20    34    35    2
    21    34    36   ar
    22    36    37   ar
    23    37    38    2
    24    24    25    1
    25    25    26    1
    26    25    27    1
    27    25    28    1
    28    28    29    1
    29     2    14    1
    30    14    15    1
    31    15    16   ar
    32    16    17   ar
    33    17    18   ar
    34    18    19   ar
    35    19    20   ar
    36    28    22    1
    37    20    15   ar
    38    37    31   ar
    39     4     5    1
    40    36    39    1
    41    29    30    1
@<TRIPOS>MOLECULE
*****
 39 41 0 0 0
SMALL
GASTEIGER

@<TRIPOS>ATOM
      1 O          -3.5744  -17.7758   22.3678 O.3     1  UNL1       -0.2709
      2 P          -4.4333  -18.9557   22.0215 P.3     1  UNL1        0.4634
      3 O          -4.3022  -19.4636   23.4268 O.2     1  UNL1       -0.2281
      4 N          -4.5644  -18.4479   20.6162 N.3     1  UNL1       -0.1929
      5 H          -5.4849  -18.7353   20.2839 H       1  UNL1        0.1358
      6 C          -3.5753  -18.8704   19.5707 C.3     1  UNL1        0.1635
      7 C          -3.4586  -20.3165   19.1895 C.3     1  UNL1        0.0296
      8 C          -2.7028  -17.8469   18.9064 C.2     1  UNL1        0.3317
      9 O          -3.3230  -16.6865   18.1862 O.2     1  UNL1       -0.2486
     10 O          -1.2100  -17.9839   18.9624 O.3     1  UNL1       -0.4514
     11 C          -1.1368  -16.3875   21.0107 C.3     1  UNL1        0.0473
     12 C          -0.4338  -17.2951   20.0453 C.3     1  UNL1        0.1691
     13 C           1.0455  -17.5138   20.1629 C.3     1  UNL1        0.0473
     14 O          -5.2922  -20.1356   21.6752 O.3     1  UNL1       -0.4115
     15 C          -6.7476  -19.9400   21.3698 C.ar    1  UNL1        0.1479
     16 C          -7.1952  -19.7306   19.9536 C.ar    1  UNL1        0.0374
     17 C          -8.6507  -19.5349   19.6481 C.ar    1  UNL1        0.0031
     18 C          -9.6586  -19.5486   20.7589 C.ar    1  UNL1        0.0002
     19 C          -9.2110  -19.7580   22.1751 C.ar    1  UNL1        0.0031
     20 C          -7.7556  -19.9537   22.4806 C.ar    1  UNL1        0.0374
     21 C          -3.9540  -16.8813   23.5105 C.3     1  UNL1        0.1857
     22 C          -5.3920  -16.5156   23.7310 C.3     1  UNL1        0.1782
     23 O          -6.5136  -16.7219   22.7566 O.3     1  UNL1       -0.3297
     24 C          -7.7756  -16.2132   23.3880 C.3     1  UNL1        0.2564
     25 C          -7.4339  -15.6925   24.7526 C.3     1  UNL1        0.2707
     26 F          -8.8997  -15.3833   24.8292 F       1  UNL1       -0.2161
     27 CL         -7.3987  -15.1073   26.1333 Cl      1  UNL1       -0.0736
     28 C          -5.9608  -15.8794   24.9646 C.3     1  UNL1        0.1891
     29 O          -5.1915  -15.4973   26.1943 O.3     1  UNL1       -0.3782
     30 H          -4.2563  -15.7251   26.0745 H       1  UNL1        0.2106
     31 N          -9.1397  -16.2233   22.7642 N.ar    1  UNL1       -0.2539
     32 C         -10.2473  -17.0136   23.3957 C.ar    1  UNL1        0.0869
     33 C         -11.6114  -17.0237   22.7719 C.ar    1  UNL1        0.0795
     34 C         -11.8679  -16.2436   21.5167 C.ar    1  UNL1        0.2626
     35 O         -13.2321  -16.2537   20.8930 O.2     1  UNL1       -0.2670
     36 N         -10.7604  -15.4533   20.8853 N.ar    1  UNL1       -0.2743
     37 C          -9.3963  -15.4431   21.5090 C.ar    1  UNL1        0.3323
     38 O          -8.2887  -14.6528   20.8776 O.2     1  UNL1       -0.2464
     39 H         -10.9288  -14.9412   20.0615 H       1  UNL1        0.1734
@<TRIPOS>BOND
     1    11    12    1
     2    12    13    1
     3    12    10    1
     4    10     8    1
     5     8     9    2
     6     8     6    1
     7     6     7    1
     8     6     4    1
     9     4     2    1
    10     2     3    2
    11     2     1    1
    12     1    21    1
    13    22    21    1
    14    22    23    1
    15    23    24    1
    16    24    31    1
    17    31    32   ar
    18    32    33   ar
    19    33    34   ar
    20    34    35    2
    21    34    36   ar
    22    36    37   ar
    23    37    38    2
    24    24    25    1
    25    25    26    1
    26    25    27    1
    27    25    28    1
    28    28    29    1
    29     2    14    1
    30    14    15    1
    31    15    16   ar
    32    16    17   ar
    33    17    18   ar
    34    18    19   ar
    35    19    20   ar
    36    28    22    1
    37    20    15   ar
    38    37    31   ar
    39     4     5    1
    40    36    39    1
    41    29    30    1
@<TRIPOS>MOLECULE
*****
 39 41 0 0 0
SMALL
GASTEIGER

@<TRIPOS>ATOM
      1 O          -5.4546  -18.4562   22.7282 O.3     1  UNL1       -0.2709
      2 P          -3.9895  -18.1450   22.6455 P.3     1  UNL1        0.4634
      3 O          -3.6925  -19.6000   22.4336 O.2     1  UNL1       -0.2281
      4 N          -4.2866  -16.6901   22.8573 N.3     1  UNL1       -0.1929
      5 H          -3.3877  -16.2117   22.9168 H       1  UNL1        0.1358
      6 C          -5.0888  -16.2539   24.0474 C.3     1  UNL1        0.1635
      7 C          -4.5929  -16.5435   25.4331 C.3     1  UNL1        0.0296
      8 C          -6.3869  -15.5283   23.8517 C.2     1  UNL1        0.3317
      9 O          -7.0202  -15.4773   22.4929 O.2     1  UNL1       -0.2486
     10 O          -7.0517  -14.8535   25.0149 O.3     1  UNL1       -0.4514
     11 C          -9.2395  -16.2546   24.9989 C.3     1  UNL1        0.0473
     12 C          -8.1532  -15.5506   25.7568 C.3     1  UNL1        0.1691
     13 C          -8.1685  -15.5437   27.2567 C.3     1  UNL1        0.0473
     14 O          -2.5246  -17.8339   22.5627 O.3     1  UNL1       -0.4115
     15 C          -1.8359  -17.8155   21.2303 C.ar    1  UNL1        0.1479
     16 C          -0.3382  -17.7718   21.1607 C.ar    1  UNL1        0.0374
     17 C           0.3505  -17.7533   19.8283 C.ar    1  UNL1        0.0031
     18 C          -0.4585  -17.7787   18.5654 C.ar    1  UNL1        0.0002
     19 C          -1.9562  -17.8224   18.6350 C.ar    1  UNL1        0.0031
     20 C          -2.6449  -17.8408   19.9674 C.ar    1  UNL1        0.0374
     21 C          -6.2054  -18.8643   21.4955 C.3     1  UNL1        0.1857
     22 C          -7.7043  -18.9206   21.5145 C.3     1  UNL1        0.1782
     23 O          -8.5785  -18.7308   22.7185 O.3     1  UNL1       -0.3297
     24 C         -10.0066  -18.8695   22.2810 C.3     1  UNL1        0.2564
     25 C         -10.0149  -19.1451   20.8065 C.3     1  UNL1        0.2707
     26 F         -11.5046  -19.1723   20.9795 F       1  UNL1       -0.2161
     27 CL        -10.3347  -19.4264   19.3682 Cl      1  UNL1       -0.0736
     28 C          -8.5920  -19.1767   20.3328 C.3     1  UNL1        0.1891
     29 O          -8.1368  -19.4214   18.9247 O.3     1  UNL1       -0.3782
     30 H          -7.1680  -19.3896   18.8879 H       1  UNL1        0.2106
     31 N         -11.2143  -18.7531   23.1630 N.ar    1  UNL1       -0.2539
     32 C         -12.4300  -18.0210   22.6773 C.ar    1  UNL1        0.0869
     33 C         -13.6376  -17.9046   23.5593 C.ar    1  UNL1        0.0795
     34 C         -13.6296  -18.5203   24.9271 C.ar    1  UNL1        0.2626
     35 O         -14.8373  -18.4039   25.8091 O.2     1  UNL1       -0.2670
     36 N         -12.4139  -19.2524   25.4128 N.ar    1  UNL1       -0.2743
     37 C         -11.2062  -19.3688   24.5308 C.ar    1  UNL1        0.3323
     38 O          -9.9904  -20.1010   25.0165 O.2     1  UNL1       -0.2464
     39 H         -12.4086  -19.6566   26.3105 H       1  UNL1        0.1734
@<TRIPOS>BOND
     1    11    12    1
     2    12    13    1
     3    12    10    1
     4    10     8    1
     5     8     9    2
     6     8     6    1
     7     6     7    1
     8     6     4    1
     9     4     2    1
    10     2     3    2
    11     2     1    1
    12     1    21    1
    13    22    21    1
    14    22    23    1
    15    23    24    1
    16    24    31    1
    17    31    32   ar
    18    32    33   ar
    19    33    34   ar
    20    34    35    2
    21    34    36   ar
    22    36    37   ar
    23    37    38    2
    24    24    25    1
    25    25    26    1
    26    25    27    1
    27    25    28    1
    28    28    29    1
    29     2    14    1
    30    14    15    1
    31    15    16   ar
    32    16    17   ar
    33    17    18   ar
    34    18    19   ar
    35    19    20   ar
    36    28    22    1
    37    20    15   ar
    38    37    31   ar
    39     4     5    1
    40    36    39    1
    41    29    30    1
@<TRIPOS>MOLECULE
*****
 39 41 0 0 0
SMALL
GASTEIGER

@<TRIPOS>ATOM
      1 O          -8.8223  -17.4493   20.9995 O.3     1  UNL1       -0.2709
      2 P          -8.9305  -16.8369   22.3645 P.3     1  UNL1        0.4634
      3 O          -8.7229  -15.4754   21.7701 O.2     1  UNL1       -0.2281
      4 N          -9.1382  -18.1983   22.9589 N.3     1  UNL1       -0.1929
      5 H          -9.2686  -18.8431   22.1794 H       1  UNL1        0.1358
      6 C         -10.2721  -18.4357   23.9117 C.3     1  UNL1        0.1635
      7 C          -9.9888  -18.7668   25.3470 C.3     1  UNL1        0.0296
      8 C         -11.6893  -18.3420   23.4291 C.2     1  UNL1        0.3317
      9 O         -12.8235  -18.5049   24.3971 O.2     1  UNL1       -0.2486
     10 O         -11.9723  -18.0854   21.9785 O.3     1  UNL1       -0.4514
     11 C         -12.0716  -16.3606   20.0382 C.3     1  UNL1        0.0473
     12 C         -12.2067  -16.6845   21.4966 C.3     1  UNL1        0.1691
     13 C         -12.5762  -15.6074   22.4729 C.3     1  UNL1        0.0473
     14 O          -9.0387  -16.2244   23.7294 O.3     1  UNL1       -0.4115
     15 C          -7.7989  -15.9407   24.5245 C.ar    1  UNL1        0.1479
     16 C          -6.4622  -15.9110   23.8446 C.ar    1  UNL1        0.0374
     17 C          -5.2224  -15.6272   24.6398 C.ar    1  UNL1        0.0031
     18 C          -5.3193  -15.3731   26.1149 C.ar    1  UNL1        0.0002
     19 C          -6.6559  -15.4027   26.7948 C.ar    1  UNL1        0.0031
     20 C          -7.8957  -15.6865   25.9997 C.ar    1  UNL1        0.0374
     21 C          -8.4309  -18.8898   20.8526 C.3     1  UNL1        0.1857
     22 C          -7.0033  -19.2542   20.5709 C.3     1  UNL1        0.1782
     23 O          -5.8230  -18.3334   20.6664 O.3     1  UNL1       -0.3297
     24 C          -4.5957  -19.1134   20.2988 C.3     1  UNL1        0.2564
     25 C          -5.0174  -20.5163   19.9761 C.3     1  UNL1        0.2707
     26 F          -3.5536  -20.7320   19.7297 F       1  UNL1       -0.2161
     27 CL         -5.1331  -21.9642   19.6018 Cl      1  UNL1       -0.0736
     28 C          -6.5054  -20.6033   20.1443 C.3     1  UNL1        0.1891
     29 O          -7.3476  -21.8249   19.9244 O.3     1  UNL1       -0.3782
     30 H          -8.2774  -21.6127   20.1011 H       1  UNL1        0.2106
     31 N          -3.1928  -18.5836   20.2606 N.ar    1  UNL1       -0.2539
     32 C          -2.5167  -18.3455   18.9430 C.ar    1  UNL1        0.0869
     33 C          -1.1139  -17.8157   18.9048 C.ar    1  UNL1        0.0795
     34 C          -0.3873  -17.5240   20.1842 C.ar    1  UNL1        0.2626
     35 O           1.0156  -16.9942   20.1460 O.2     1  UNL1       -0.2670
     36 N          -1.0634  -17.7620   21.5018 N.ar    1  UNL1       -0.2743
     37 C          -2.4662  -18.2918   21.5400 C.ar    1  UNL1        0.3323
     38 O          -3.1425  -18.5299   22.8577 O.2     1  UNL1       -0.2464
     39 H          -0.5866  -17.5706   22.3416 H       1  UNL1        0.1734
@<TRIPOS>BOND
     1    11    12    1
     2    12    13    1
     3    12    10    1
     4    10     8    1
     5     8     9    2
     6     8     6    1
     7     6     7    1
     8     6     4    1
     9     4     2    1
    10     2     3    2
    11     2     1    1
    12     1    21    1
    13    22    21    1
    14    22    23    1
    15    23    24    1
    16    24    31    1
    17    31    32   ar
    18    32    33   ar
    19    33    34   ar
    20    34    35    2
    21    34    36   ar
    22    36    37   ar
    23    37    38    2
    24    24    25    1
    25    25    26    1
    26    25    27    1
    27    25    28    1
    28    28    29    1
    29     2    14    1
    30    14    15    1
    31    15    16   ar
    32    16    17   ar
    33    17    18   ar
    34    18    19   ar
    35    19    20   ar
    36    28    22    1
    37    20    15   ar
    38    37    31   ar
    39     4     5    1
    40    36    39    1
    41    29    30    1
@<TRIPOS>MOLECULE
*****
 39 41 0 0 0
SMALL
GASTEIGER

@<TRIPOS>ATOM
      1 O          -8.5048  -14.8957   23.1540 O.3     1  UNL1       -0.2709
      2 P          -9.0475  -16.0132   22.3133 P.3     1  UNL1        0.4634
      3 O          -8.1470  -15.6026   21.1861 O.2     1  UNL1       -0.2281
      4 N          -9.9480  -16.4238   23.4405 N.3     1  UNL1       -0.1929
      5 H          -9.5512  -17.2745   23.8396 H       1  UNL1        0.1358
      6 C         -11.3980  -16.7042   23.1781 C.3     1  UNL1        0.1635
      7 C         -12.1941  -15.7813   22.3037 C.3     1  UNL1        0.0296
      8 C         -12.0520  -17.9075   23.7900 C.2     1  UNL1        0.3317
      9 O         -13.5421  -18.0662   23.7241 O.2     1  UNL1       -0.2486
     10 O         -11.2157  -18.9522   24.4680 O.3     1  UNL1       -0.4514
     11 C         -11.0667  -20.3490   22.2825 C.3     1  UNL1        0.0473
     12 C         -10.5582  -20.0290   23.6569 C.3     1  UNL1        0.1691
     13 C          -9.3921  -20.7859   24.2202 C.3     1  UNL1        0.0473
     14 O          -9.5902  -17.1306   21.4727 O.3     1  UNL1       -0.4115
     15 C          -8.6891  -18.2484   21.0386 C.ar    1  UNL1        0.1479
     16 C          -7.5630  -18.6913   21.9249 C.ar    1  UNL1        0.0374
     17 C          -6.6618  -19.8091   21.4907 C.ar    1  UNL1        0.0031
     18 C          -6.8868  -20.4839   20.1701 C.ar    1  UNL1        0.0002
     19 C          -8.0129  -20.0410   19.2838 C.ar    1  UNL1        0.0031
     20 C          -8.9140  -18.9233   19.7180 C.ar    1  UNL1        0.0374
     21 C          -7.7492  -15.2029   24.4128 C.3     1  UNL1        0.1857
     22 C          -6.3974  -15.8487   24.3375 C.3     1  UNL1        0.1782
     23 O          -5.6361  -16.1566   23.0823 O.3     1  UNL1       -0.3297
     24 C          -4.3378  -16.7982   23.4732 C.3     1  UNL1        0.2564
     25 C          -4.2968  -16.8868   24.9700 C.3     1  UNL1        0.2707
     26 F          -2.9567  -17.5199   24.7386 F       1  UNL1       -0.2161
     27 CL         -3.9755  -17.1078   26.4184 Cl      1  UNL1       -0.0736
     28 C          -5.5696  -16.3000   25.5042 C.3     1  UNL1        0.1891
     29 O          -5.9483  -16.1848   26.9510 O.3     1  UNL1       -0.3782
     30 H          -6.8215  -15.7687   27.0246 H       1  UNL1        0.2106
     31 N          -3.2683  -17.2686   22.5324 N.ar    1  UNL1       -0.2539
     32 C          -2.3446  -16.2764   21.8905 C.ar    1  UNL1        0.0869
     33 C          -1.2751  -16.7468   20.9498 C.ar    1  UNL1        0.0795
     34 C          -1.1295  -18.2095   20.6510 C.ar    1  UNL1        0.2626
     35 O          -0.0599  -18.6799   19.7102 O.2     1  UNL1       -0.2670
     36 N          -2.0532  -19.2018   21.2929 N.ar    1  UNL1       -0.2743
     37 C          -3.1226  -18.7313   22.2336 C.ar    1  UNL1        0.3323
     38 O          -4.0465  -19.7236   22.8755 O.2     1  UNL1       -0.2464
     39 H          -1.9576  -20.1618   21.0967 H       1  UNL1        0.1734
@<TRIPOS>BOND
     1    11    12    1
     2    12    13    1
     3    12    10    1
     4    10     8    1
     5     8     9    2
     6     8     6    1
     7     6     7    1
     8     6     4    1
     9     4     2    1
    10     2     3    2
    11     2     1    1
    12     1    21    1
    13    22    21    1
    14    22    23    1
    15    23    24    1
    16    24    31    1
    17    31    32   ar
    18    32    33   ar
    19    33    34   ar
    20    34    35    2
    21    34    36   ar
    22    36    37   ar
    23    37    38    2
    24    24    25    1
    25    25    26    1
    26    25    27    1
    27    25    28    1
    28    28    29    1
    29     2    14    1
    30    14    15    1
    31    15    16   ar
    32    16    17   ar
    33    17    18   ar
    34    18    19   ar
    35    19    20   ar
    36    28    22    1
    37    20    15   ar
    38    37    31   ar
    39     4     5    1
    40    36    39    1
    41    29    30    1
