@<TRIPOS>MOLECULE
*****
 39 43 0 0 0
SMALL
GASTEIGER

@<TRIPOS>ATOM
      1 C           4.3395   -0.6191   27.7085 C.3     1  UNL1        0.0177
      2 C           5.0825   -1.3470   28.7894 C.3     1  UNL1        0.0627
      3 C           5.7958   -2.6290   28.4766 C.3     1  UNL1        0.0436
      4 C           6.5389   -3.3568   29.5574 C.2     1  UNL1       -0.0045
      5 C           6.5686   -2.8027   30.9509 C.2     1  UNL1        0.0735
      6 N           7.3774   -3.7351   31.8032 N.2     1  UNL1       -0.2523
      7 C           7.8476   -4.8654   30.9364 C.2     1  UNL1        0.0627
      8 C           8.6807   -6.0773   31.2317 C.3     1  UNL1        0.0717
      9 C           8.9955   -7.0554   30.1390 C.2     1  UNL1       -0.0198
     10 C           8.4772   -6.8216   28.7509 C.2     1  UNL1       -0.0042
     11 C           7.6441   -5.6097   28.4556 C.2     1  UNL1        0.0006
     12 C           7.3293   -4.6316   29.5484 C.2     1  UNL1        0.0111
     13 C           5.8553   -1.5208   31.2637 C.3     1  UNL1        0.1250
     14 N           5.1122   -0.7929   30.1830 N.3     1  UNL1       -0.2618
     15 C           5.8850   -0.9667   32.6573 C.ar    1  UNL1        0.0529
     16 C           4.9133   -1.4675   33.6844 C.ar    1  UNL1        0.1411
     17 F           3.9119   -2.5223   33.3180 F       1  UNL1       -0.2043
     18 C           4.9431   -0.9133   35.0780 C.ar    1  UNL1        0.0438
     19 C           5.9445    0.1416   35.4445 C.ar    1  UNL1        0.0492
     20 C           6.9163    0.6424   34.4173 C.ar    1  UNL1        0.0438
     21 C           6.8865    0.0883   33.0238 C.ar    1  UNL1        0.1411
     22 F           7.8582    0.5890   31.9966 F       1  UNL1       -0.2043
     23 N           5.9743    0.6957   36.8381 N.pl3   1  UNL1       -0.3316
     24 H           6.8136    0.6890   37.3526 H       1  UNL1        0.1468
     25 C           4.7252    1.2599   37.4477 C.3     1  UNL1        0.1014
     26 C           3.4001    1.7202   36.9165 C.3     1  UNL1        0.0933
     27 N           2.9589    2.0578   38.3098 N.3     1  UNL1       -0.2697
     28 C           4.2840    1.5975   38.8410 C.3     1  UNL1        0.0933
     29 C           1.7098    2.6220   38.9194 C.3     1  UNL1        0.0751
     30 C           0.6303    1.7010   39.4055 C.3     1  UNL1        0.0554
     31 C           0.8218    0.2153   39.3299 C.3     1  UNL1        0.1947
     32 F           1.6639   -0.4856   40.3546 F       1  UNL1       -0.2343
     33 C           4.3989    0.4890   30.4958 C.3     1  UNL1        0.1425
     34 C           2.9103    0.5777   30.3343 C.3     1  UNL1        0.3049
     35 F           3.0680    1.8710   29.5909 F       1  UNL1       -0.2001
     36 F           2.7526   -0.7156   31.0776 F       1  UNL1       -0.2001
     37 C           1.4217    0.6664   30.1728 C.3     1  UNL1        0.2057
     38 O           0.6410   -0.5393   29.7401 O.3     1  UNL1       -0.3771
     39 H           0.8889   -0.7764   28.8328 H       1  UNL1        0.2106
@<TRIPOS>BOND
     1     2     1    1
     2     2     3    1
     3     3     4    1
     4     4     5    2
     5     5     6    1
     6     6     7    2
     7     7     8    1
     8     8     9    1
     9     9    10    2
    10    10    11    1
    11    11    12    2
    12     5    13    1
    13    13    15    1
    14    15    16   ar
    15    16    17    1
    16    16    18   ar
    17    18    19   ar
    18    19    23    1
    19    23    25    1
    20    25    26    1
    21    26    27    1
    22    27    29    1
    23    29    30    1
    24    30    31    1
    25    31    32    1
    26    27    28    1
    27    19    20   ar
    28    20    21   ar
    29    21    22    1
    30    13    14    1
    31    14    33    1
    32    33    34    1
    33    34    35    1
    34    34    36    1
    35    34    37    1
    36    37    38    1
    37    14     2    1
    38    12     4    1
    39    21    15   ar
    40    12     7    1
    41    28    25    1
    42    23    24    1
    43    38    39    1
@<TRIPOS>MOLECULE
*****
 39 43 0 0 0
SMALL
GASTEIGER

@<TRIPOS>ATOM
      1 C           9.5357   -4.7651   20.0000 C.3     1  UNL1        0.0177
      2 C           8.7939   -4.7035   21.3023 C.3     1  UNL1        0.0627
      3 C           9.0549   -5.7310   22.3635 C.3     1  UNL1        0.0436
      4 C           8.3131   -5.6695   23.6658 C.2     1  UNL1       -0.0045
      5 C           7.3102   -4.5804   23.9068 C.2     1  UNL1        0.0735
      6 N           6.7363   -4.7742   25.2791 N.2     1  UNL1       -0.2523
      7 C           7.3845   -5.9831   25.8861 C.2     1  UNL1        0.0627
      8 C           7.2133   -6.6515   27.2179 C.3     1  UNL1        0.0717
      9 C           8.0166   -7.8733   27.5527 C.2     1  UNL1       -0.0198
     10 C           8.9911   -8.4266   26.5556 C.2     1  UNL1       -0.0042
     11 C           9.1623   -7.7581   25.2237 C.2     1  UNL1        0.0006
     12 C           8.3590   -6.5364   24.8890 C.2     1  UNL1        0.0111
     13 C           7.0492   -3.5528   22.8456 C.3     1  UNL1        0.1250
     14 N           7.7910   -3.6144   21.5434 N.3     1  UNL1       -0.2618
     15 C           6.0463   -2.4638   23.0867 C.ar    1  UNL1        0.0529
     16 C           4.5992   -2.6921   22.7650 C.ar    1  UNL1        0.1411
     17 F           4.1549   -4.0096   22.2022 F       1  UNL1       -0.2043
     18 C           3.5963   -1.6030   23.0061 C.ar    1  UNL1        0.0438
     19 C           4.0407   -0.2855   23.5689 C.ar    1  UNL1        0.0492
     20 C           5.4879   -0.0571   23.8906 C.ar    1  UNL1        0.0438
     21 C           6.4906   -1.1462   23.6495 C.ar    1  UNL1        0.1411
     22 F           7.9378   -0.9179   23.9712 F       1  UNL1       -0.2043
     23 N           3.0378    0.8036   23.8099 N.pl3   1  UNL1       -0.3316
     24 H           2.7976    1.4216   23.0821 H       1  UNL1        0.1468
     25 C           2.4008    0.9512   25.1599 C.3     1  UNL1        0.1014
     26 C           2.8847    0.8601   26.5768 C.3     1  UNL1        0.0933
     27 N           1.4999    1.1600   27.0690 N.3     1  UNL1       -0.2697
     28 C           1.0160    1.2512   25.6522 C.3     1  UNL1        0.0933
     29 C           0.8629    1.3077   28.4190 C.3     1  UNL1        0.0751
     30 C           0.2465    0.1171   29.0917 C.3     1  UNL1        0.0554
     31 C          -1.0907   -0.3906   28.6401 C.3     1  UNL1        0.1947
     32 F          -2.3252   -0.0503   29.4214 F       1  UNL1       -0.2343
     33 C           7.5299   -2.5869   20.4822 C.3     1  UNL1        0.1425
     34 C           6.2314   -2.5973   19.7314 C.3     1  UNL1        0.3049
     35 F           6.2376   -4.0972   19.7414 F       1  UNL1       -0.2001
     36 F           6.2252   -1.0974   19.7215 F       1  UNL1       -0.2001
     37 C           4.9329   -2.6077   18.9807 C.3     1  UNL1        0.2057
     38 O           4.9321   -2.5340   17.4824 O.3     1  UNL1       -0.3771
     39 H           5.2754   -1.6716   17.2009 H       1  UNL1        0.2106
@<TRIPOS>BOND
     1     2     1    1
     2     2     3    1
     3     3     4    1
     4     4     5    2
     5     5     6    1
     6     6     7    2
     7     7     8    1
     8     8     9    1
     9     9    10    2
    10    10    11    1
    11    11    12    2
    12     5    13    1
    13    13    15    1
    14    15    16   ar
    15    16    17    1
    16    16    18   ar
    17    18    19   ar
    18    19    23    1
    19    23    25    1
    20    25    26    1
    21    26    27    1
    22    27    29    1
    23    29    30    1
    24    30    31    1
    25    31    32    1
    26    27    28    1
    27    19    20   ar
    28    20    21   ar
    29    21    22    1
    30    13    14    1
    31    14    33    1
    32    33    34    1
    33    34    35    1
    34    34    36    1
    35    34    37    1
    36    37    38    1
    37    14     2    1
    38    12     4    1
    39    21    15   ar
    40    12     7    1
    41    28    25    1
    42    23    24    1
    43    38    39    1
@<TRIPOS>MOLECULE
*****
 39 43 0 0 0
SMALL
GASTEIGER

@<TRIPOS>ATOM
      1 C           4.8007   -3.9242   20.5358 C.3     1  UNL1        0.0177
      2 C           4.2186   -2.7149   21.2058 C.3     1  UNL1        0.0627
      3 C           4.2709   -2.5868   22.6994 C.3     1  UNL1        0.0436
      4 C           3.6888   -1.3776   23.3693 C.2     1  UNL1       -0.0045
      5 C           3.0544   -0.2964   22.5456 C.2     1  UNL1        0.0735
      6 N           2.5674    0.7720   23.4791 N.2     1  UNL1       -0.2523
      7 C           2.9010    0.3512   24.8797 C.2     1  UNL1        0.0627
      8 C           2.6631    1.0060   26.2080 C.3     1  UNL1        0.0717
      9 C           3.1184    0.3324   27.4685 C.2     1  UNL1       -0.0198
     10 C           3.8115   -0.9962   27.4007 C.2     1  UNL1       -0.0042
     11 C           4.0493   -1.6511   26.0723 C.2     1  UNL1        0.0006
     12 C           3.5941   -0.9774   24.8118 C.2     1  UNL1        0.0111
     13 C           3.0020   -0.4245   21.0520 C.3     1  UNL1        0.1250
     14 N           3.5841   -1.6337   20.3821 N.3     1  UNL1       -0.2618
     15 C           2.3675    0.6567   20.2283 C.ar    1  UNL1        0.0529
     16 C           3.1882    1.8209   19.7584 C.ar    1  UNL1        0.1411
     17 F           4.6435    1.9040   20.1122 F       1  UNL1       -0.2043
     18 C           2.5536    2.9021   18.9347 C.ar    1  UNL1        0.0438
     19 C           1.0983    2.8190   18.5809 C.ar    1  UNL1        0.0492
     20 C           0.2775    1.6547   19.0509 C.ar    1  UNL1        0.0438
     21 C           0.9121    0.5736   19.8745 C.ar    1  UNL1        0.1411
     22 F           0.0914   -0.5906   20.3445 F       1  UNL1       -0.2043
     23 N           0.4639    3.9002   17.7573 N.pl3   1  UNL1       -0.3316
     24 H           1.0280    4.5286   17.2512 H       1  UNL1        0.1468
     25 C          -1.0301    4.0239   17.7046 C.3     1  UNL1        0.1014
     26 C          -2.1043    4.3374   18.7035 C.3     1  UNL1        0.0933
     27 N          -3.1429    4.1988   17.6301 N.3     1  UNL1       -0.2697
     28 C          -2.0687    3.8853   16.6312 C.3     1  UNL1        0.0933
     29 C          -4.6369    4.3225   17.5774 C.3     1  UNL1        0.0751
     30 C          -5.4925    3.4570   18.4542 C.3     1  UNL1        0.0554
     31 C          -5.5597    3.7183   19.9296 C.3     1  UNL1        0.1947
     32 F          -5.0367    2.6978   20.8967 F       1  UNL1       -0.2343
     33 C           3.5317   -1.7618   18.8884 C.3     1  UNL1        0.1425
     34 C           4.3840   -0.8755   18.0293 C.3     1  UNL1        0.3049
     35 F           3.1946   -0.5648   17.1699 F       1  UNL1       -0.2001
     36 F           5.5734   -1.1863   18.8888 F       1  UNL1       -0.2001
     37 C           5.2363    0.0107   17.1702 C.3     1  UNL1        0.2057
     38 O           6.5976   -0.4479   16.7381 O.3     1  UNL1       -0.3771
     39 H           7.1743   -0.5249   17.5142 H       1  UNL1        0.2106
@<TRIPOS>BOND
     1     2     1    1
     2     2     3    1
     3     3     4    1
     4     4     5    2
     5     5     6    1
     6     6     7    2
     7     7     8    1
     8     8     9    1
     9     9    10    2
    10    10    11    1
    11    11    12    2
    12     5    13    1
    13    13    15    1
    14    15    16   ar
    15    16    17    1
    16    16    18   ar
    17    18    19   ar
    18    19    23    1
    19    23    25    1
    20    25    26    1
    21    26    27    1
    22    27    29    1
    23    29    30    1
    24    30    31    1
    25    31    32    1
    26    27    28    1
    27    19    20   ar
    28    20    21   ar
    29    21    22    1
    30    13    14    1
    31    14    33    1
    32    33    34    1
    33    34    35    1
    34    34    36    1
    35    34    37    1
    36    37    38    1
    37    14     2    1
    38    12     4    1
    39    21    15   ar
    40    12     7    1
    41    28    25    1
    42    23    24    1
    43    38    39    1
@<TRIPOS>MOLECULE
*****
 39 43 0 0 0
SMALL
GASTEIGER

@<TRIPOS>ATOM
      1 C           2.0472    2.0069   23.4525 C.3     1  UNL1        0.0177
      2 C           0.9181    2.3919   24.3619 C.3     1  UNL1        0.0627
      3 C          -0.4251    2.7321   23.7873 C.3     1  UNL1        0.0436
      4 C          -1.5542    3.1170   24.6966 C.2     1  UNL1       -0.0045
      5 C          -1.3401    3.1618   26.1806 C.2     1  UNL1        0.0735
      6 N          -2.6315    3.5739   26.8229 N.2     1  UNL1       -0.2523
      7 C          -3.6436    3.7837   25.7359 C.2     1  UNL1        0.0627
      8 C          -5.0855    4.1954   25.7730 C.3     1  UNL1        0.0717
      9 C          -5.8616    4.3248   24.4959 C.2     1  UNL1       -0.0198
     10 C          -5.1958    4.0424   23.1818 C.2     1  UNL1       -0.0042
     11 C          -3.7539    3.6307   23.1447 C.2     1  UNL1        0.0006
     12 C          -2.9778    3.5014   24.4218 C.2     1  UNL1        0.0111
     13 C           0.0031    2.8216   26.7552 C.3     1  UNL1        0.1250
     14 N           1.1322    2.4367   25.8459 N.3     1  UNL1       -0.2618
     15 C           0.2171    2.8664   28.2392 C.ar    1  UNL1        0.0529
     16 C           0.7049    4.1273   28.8888 C.ar    1  UNL1        0.1411
     17 F           0.9786    5.3435   28.0546 F       1  UNL1       -0.2043
     18 C           0.9190    4.1720   30.3729 C.ar    1  UNL1        0.0438
     19 C           0.6453    2.9559   31.2071 C.ar    1  UNL1        0.0492
     20 C           0.1575    1.6949   30.5574 C.ar    1  UNL1        0.0438
     21 C          -0.0566    1.6502   29.0735 C.ar    1  UNL1        0.1411
     22 F          -0.5443    0.3893   28.4237 F       1  UNL1       -0.2043
     23 N           0.8593    3.0007   32.6911 N.pl3   1  UNL1       -0.3316
     24 H           0.2274    3.4912   33.2650 H       1  UNL1        0.1468
     25 C           2.0361    2.2981   33.3007 C.3     1  UNL1        0.1014
     26 C           3.1811    1.4888   32.7676 C.3     1  UNL1        0.0933
     27 N           3.7004    1.3046   34.1628 N.3     1  UNL1       -0.2697
     28 C           2.5555    2.1139   34.6958 C.3     1  UNL1        0.0933
     29 C           4.8772    0.6020   34.7723 C.3     1  UNL1        0.0751
     30 C           4.8588   -0.8890   34.9349 C.3     1  UNL1        0.0554
     31 C           4.6108   -1.7700   33.7465 C.3     1  UNL1        0.1947
     32 F           3.9556   -3.1071   33.9278 F       1  UNL1       -0.2343
     33 C           2.4753    2.0965   26.4205 C.3     1  UNL1        0.1425
     34 C           2.6654    0.8139   27.1747 C.3     1  UNL1        0.3049
     35 F           2.1487    0.0440   25.9956 F       1  UNL1       -0.2001
     36 F           3.1821    1.5837   28.3538 F       1  UNL1       -0.2001
     37 C           2.8555   -0.4687   27.9288 C.3     1  UNL1        0.2057
     38 O           3.1806   -1.7326   27.1892 O.3     1  UNL1       -0.3771
     39 H           2.4282   -1.9829   26.6304 H       1  UNL1        0.2106
@<TRIPOS>BOND
     1     2     1    1
     2     2     3    1
     3     3     4    1
     4     4     5    2
     5     5     6    1
     6     6     7    2
     7     7     8    1
     8     8     9    1
     9     9    10    2
    10    10    11    1
    11    11    12    2
    12     5    13    1
    13    13    15    1
    14    15    16   ar
    15    16    17    1
    16    16    18   ar
    17    18    19   ar
    18    19    23    1
    19    23    25    1
    20    25    26    1
    21    26    27    1
    22    27    29    1
    23    29    30    1
    24    30    31    1
    25    31    32    1
    26    27    28    1
    27    19    20   ar
    28    20    21   ar
    29    21    22    1
    30    13    14    1
    31    14    33    1
    32    33    34    1
    33    34    35    1
    34    34    36    1
    35    34    37    1
    36    37    38    1
    37    14     2    1
    38    12     4    1
    39    21    15   ar
    40    12     7    1
    41    28    25    1
    42    23    24    1
    43    38    39    1
@<TRIPOS>MOLECULE
*****
 39 43 0 0 0
SMALL
GASTEIGER

@<TRIPOS>ATOM
      1 C           8.7403   -2.7617   18.7749 C.3     1  UNL1        0.0177
      2 C           8.0254   -2.9097   20.0853 C.3     1  UNL1        0.0627
      3 C           8.4396   -3.9823   21.0487 C.3     1  UNL1        0.0436
      4 C           7.7247   -4.1303   22.3590 C.2     1  UNL1       -0.0045
      5 C           6.5956   -3.2058   22.7059 C.2     1  UNL1        0.0735
      6 N           6.0816   -3.5903   24.0616 N.2     1  UNL1       -0.2523
      7 C           6.8930   -4.7525   24.5525 C.2     1  UNL1        0.0627
      8 C           6.8383   -5.5499   25.8218 C.3     1  UNL1        0.0717
      9 C           7.7992   -6.6811   26.0387 C.2     1  UNL1       -0.0198
     10 C           8.8147   -7.0149   24.9864 C.2     1  UNL1       -0.0042
     11 C           8.8693   -6.2174   23.7172 C.2     1  UNL1        0.0006
     12 C           7.9085   -5.0862   23.5002 C.2     1  UNL1        0.0111
     13 C           6.1814   -2.1332   21.7426 C.3     1  UNL1        0.1250
     14 N           6.8963   -1.9852   20.4322 N.3     1  UNL1       -0.2618
     15 C           5.0523   -1.2086   22.0895 C.ar    1  UNL1        0.0529
     16 C           5.3151    0.0235   22.9034 C.ar    1  UNL1        0.1411
     17 F           6.7069    0.3313   23.3704 F       1  UNL1       -0.2043
     18 C           4.1859    0.9481   23.2503 C.ar    1  UNL1        0.0438
     19 C           2.7941    0.6404   22.7833 C.ar    1  UNL1        0.0492
     20 C           2.5313   -0.5919   21.9694 C.ar    1  UNL1        0.0438
     21 C           3.6604   -1.5164   21.6225 C.ar    1  UNL1        0.1411
     22 F           3.3978   -2.7486   20.8085 F       1  UNL1       -0.2043
     23 N           1.6650    1.5649   23.1303 N.pl3   1  UNL1       -0.3316
     24 H           1.2356    2.1033   22.4266 H       1  UNL1        0.1468
     25 C           1.1900    1.6693   24.5493 C.3     1  UNL1        0.1014
     26 C          -0.1223    1.4647   25.2463 C.3     1  UNL1        0.0933
     27 N           0.5184    1.8168   26.5561 N.3     1  UNL1       -0.2697
     28 C           1.8308    2.0214   25.8590 C.3     1  UNL1        0.0933
     29 C           0.0434    1.9212   27.9751 C.3     1  UNL1        0.0751
     30 C           0.0675    0.7137   28.8647 C.3     1  UNL1        0.0554
     31 C          -0.9640   -0.3622   28.6969 C.3     1  UNL1        0.1947
     32 F          -2.3073   -0.2218   29.3496 F       1  UNL1       -0.2343
     33 C           6.4821   -0.9126   19.4688 C.3     1  UNL1        0.1425
     34 C           5.2332   -1.0773   18.6546 C.3     1  UNL1        0.3049
     35 F           5.5518   -2.5301   18.4598 F       1  UNL1       -0.2001
     36 F           4.9145    0.3754   18.8494 F       1  UNL1       -0.2001
     37 C           3.9843   -1.2421   17.8404 C.3     1  UNL1        0.2057
     38 O           4.0616   -1.2537   16.3423 O.3     1  UNL1       -0.3771
     39 H           4.3474   -0.3822   16.0266 H       1  UNL1        0.2106
@<TRIPOS>BOND
     1     2     1    1
     2     2     3    1
     3     3     4    1
     4     4     5    2
     5     5     6    1
     6     6     7    2
     7     7     8    1
     8     8     9    1
     9     9    10    2
    10    10    11    1
    11    11    12    2
    12     5    13    1
    13    13    15    1
    14    15    16   ar
    15    16    17    1
    16    16    18   ar
    17    18    19   ar
    18    19    23    1
    19    23    25    1
    20    25    26    1
    21    26    27    1
    22    27    29    1
    23    29    30    1
    24    30    31    1
    25    31    32    1
    26    27    28    1
    27    19    20   ar
    28    20    21   ar
    29    21    22    1
    30    13    14    1
    31    14    33    1
    32    33    34    1
    33    34    35    1
    34    34    36    1
    35    34    37    1
    36    37    38    1
    37    14     2    1
    38    12     4    1
    39    21    15   ar
    40    12     7    1
    41    28    25    1
    42    23    24    1
    43    38    39    1
@<TRIPOS>MOLECULE
*****
 39 43 0 0 0
SMALL
GASTEIGER

@<TRIPOS>ATOM
      1 C           1.7822    2.6038   31.0222 C.3     1  UNL1        0.0177
      2 C           2.5617    2.0113   32.1587 C.3     1  UNL1        0.0627
      3 C           2.3162    2.4810   33.5619 C.3     1  UNL1        0.0436
      4 C           3.0957    1.8886   34.6983 C.2     1  UNL1       -0.0045
      5 C           4.1206    0.8264   34.4315 C.2     1  UNL1        0.0735
      6 N           4.7305    0.4308   35.7435 N.2     1  UNL1       -0.2523
      7 C           4.0825    1.2484   36.8213 C.2     1  UNL1        0.0627
      8 C           4.2820    1.2890   38.3074 C.3     1  UNL1        0.0717
      9 C           3.4711    2.2305   39.1475 C.2     1  UNL1       -0.0198
     10 C           2.4606    3.1315   38.5015 C.2     1  UNL1       -0.0042
     11 C           2.2612    3.0909   37.0154 C.2     1  UNL1        0.0006
     12 C           3.0721    2.1494   36.1753 C.2     1  UNL1        0.0111
     13 C           4.3661    0.3566   33.0282 C.3     1  UNL1        0.1250
     14 N           3.5867    0.9491   31.8918 N.3     1  UNL1       -0.2618
     15 C           5.3911   -0.7055   32.7613 C.ar    1  UNL1        0.0529
     16 C           4.9935   -2.1517   32.7751 C.ar    1  UNL1        0.1411
     17 F           3.5709   -2.5359   33.0557 F       1  UNL1       -0.2043
     18 C           6.0185   -3.2139   32.5082 C.ar    1  UNL1        0.0438
     19 C           7.4411   -2.8298   32.2276 C.ar    1  UNL1        0.0492
     20 C           7.8387   -1.3835   32.2138 C.ar    1  UNL1        0.0438
     21 C           6.8137   -0.3214   32.4807 C.ar    1  UNL1        0.1411
     22 F           7.2112    1.1249   32.4669 F       1  UNL1       -0.2043
     23 N           8.4660   -3.8920   31.9607 N.pl3   1  UNL1       -0.3316
     24 H           9.2451   -3.9848   32.5554 H       1  UNL1        0.1468
     25 C           8.3039   -4.8129   30.7877 C.3     1  UNL1        0.1014
     26 C           9.0932   -5.0951   29.5438 C.3     1  UNL1        0.0933
     27 N           8.0747   -6.1152   29.1290 N.3     1  UNL1       -0.2697
     28 C           7.2854   -5.8329   30.3729 C.3     1  UNL1        0.0933
     29 C           7.9127   -7.0360   27.9560 C.3     1  UNL1        0.0751
     30 C           7.1275   -6.5927   26.7573 C.3     1  UNL1        0.0554
     31 C           7.3134   -5.2091   26.2088 C.3     1  UNL1        0.1947
     32 F           6.4096   -4.0979   26.6543 F       1  UNL1       -0.2343
     33 C           3.8321    0.4794   30.4885 C.3     1  UNL1        0.1425
     34 C           2.6943   -0.0433   29.6627 C.3     1  UNL1        0.3049
     35 F           3.0278    0.9405   28.5806 F       1  UNL1       -0.2001
     36 F           2.3607   -1.0270   30.7448 F       1  UNL1       -0.2001
     37 C           1.5564   -0.5659   28.8369 C.3     1  UNL1        0.2057
     38 O           0.1617   -0.5550   29.3892 O.3     1  UNL1       -0.3771
     39 H           0.1078   -1.1629   30.1431 H       1  UNL1        0.2106
@<TRIPOS>BOND
     1     2     1    1
     2     2     3    1
     3     3     4    1
     4     4     5    2
     5     5     6    1
     6     6     7    2
     7     7     8    1
     8     8     9    1
     9     9    10    2
    10    10    11    1
    11    11    12    2
    12     5    13    1
    13    13    15    1
    14    15    16   ar
    15    16    17    1
    16    16    18   ar
    17    18    19   ar
    18    19    23    1
    19    23    25    1
    20    25    26    1
    21    26    27    1
    22    27    29    1
    23    29    30    1
    24    30    31    1
    25    31    32    1
    26    27    28    1
    27    19    20   ar
    28    20    21   ar
    29    21    22    1
    30    13    14    1
    31    14    33    1
    32    33    34    1
    33    34    35    1
    34    34    36    1
    35    34    37    1
    36    37    38    1
    37    14     2    1
    38    12     4    1
    39    21    15   ar
    40    12     7    1
    41    28    25    1
    42    23    24    1
    43    38    39    1
@<TRIPOS>MOLECULE
*****
 39 43 0 0 0
SMALL
GASTEIGER

@<TRIPOS>ATOM
      1 C          -2.0016    4.6109   23.1666 C.3     1  UNL1        0.0177
      2 C          -0.9714    3.6030   23.5826 C.3     1  UNL1        0.0627
      3 C          -0.3307    2.7177   22.5551 C.3     1  UNL1        0.0436
      4 C           0.6995    1.7098   22.9710 C.2     1  UNL1       -0.0045
      5 C           1.0890    1.5874   24.4144 C.2     1  UNL1        0.0735
      6 N           2.1268    0.5100   24.5246 N.2     1  UNL1       -0.2523
      7 C           2.3787   -0.0334   23.1493 C.2     1  UNL1        0.0627
      8 C           3.2974   -1.1076   22.6473 C.3     1  UNL1        0.0717
      9 C           3.3339   -1.4403   21.1852 C.2     1  UNL1       -0.0198
     10 C           2.4518   -0.6987   20.2250 C.2     1  UNL1       -0.0042
     11 C           1.5331    0.3755   20.7270 C.2     1  UNL1        0.0006
     12 C           1.4966    0.7082   22.1892 C.2     1  UNL1        0.0111
     13 C           0.4483    2.4728   25.4418 C.3     1  UNL1        0.1250
     14 N          -0.5819    3.4806   25.0259 N.3     1  UNL1       -0.2618
     15 C           0.8377    2.3503   26.8852 C.ar    1  UNL1        0.0529
     16 C           0.2075    1.2953   27.7451 C.ar    1  UNL1        0.1411
     17 F          -0.8122    0.3627   27.1618 F       1  UNL1       -0.2043
     18 C           0.5971    1.1729   29.1886 C.ar    1  UNL1        0.0438
     19 C           1.6168    2.1055   29.7719 C.ar    1  UNL1        0.0492
     20 C           2.2471    3.1606   28.9119 C.ar    1  UNL1        0.0438
     21 C           1.8575    3.2830   27.4686 C.ar    1  UNL1        0.1411
     22 F           2.4878    4.3380   26.6085 F       1  UNL1       -0.2043
     23 N           2.0063    1.9830   31.2153 N.pl3   1  UNL1       -0.3316
     24 H           1.8057    2.7144   31.8430 H       1  UNL1        0.1468
     25 C           2.7014    0.7462   31.7022 C.3     1  UNL1        0.1014
     26 C           3.3833    0.3448   32.9765 C.3     1  UNL1        0.0933
     27 N           3.6845   -1.0029   32.3908 N.3     1  UNL1       -0.2697
     28 C           3.0026   -0.6014   31.1165 C.3     1  UNL1        0.0933
     29 C           4.3796   -2.2397   32.8778 C.3     1  UNL1        0.0751
     30 C           5.8764   -2.3262   32.8316 C.3     1  UNL1        0.0554
     31 C           6.5398   -3.5049   32.1833 C.3     1  UNL1        0.1947
     32 F           6.2885   -4.8883   32.7057 F       1  UNL1       -0.2343
     33 C          -1.2226    4.3660   26.0534 C.3     1  UNL1        0.1425
     34 C          -2.6793    4.2091   26.3751 C.3     1  UNL1        0.3049
     35 F          -2.8835    5.6806   26.1679 F       1  UNL1       -0.2001
     36 F          -2.4751    2.7376   26.5823 F       1  UNL1       -0.2001
     37 C          -4.1359    4.0523   26.6969 C.3     1  UNL1        0.2057
     38 O          -4.7732    4.9276   27.7352 O.3     1  UNL1       -0.3771
     39 H          -4.3925    4.7275   28.6046 H       1  UNL1        0.2106
@<TRIPOS>BOND
     1     2     1    1
     2     2     3    1
     3     3     4    1
     4     4     5    2
     5     5     6    1
     6     6     7    2
     7     7     8    1
     8     8     9    1
     9     9    10    2
    10    10    11    1
    11    11    12    2
    12     5    13    1
    13    13    15    1
    14    15    16   ar
    15    16    17    1
    16    16    18   ar
    17    18    19   ar
    18    19    23    1
    19    23    25    1
    20    25    26    1
    21    26    27    1
    22    27    29    1
    23    29    30    1
    24    30    31    1
    25    31    32    1
    26    27    28    1
    27    19    20   ar
    28    20    21   ar
    29    21    22    1
    30    13    14    1
    31    14    33    1
    32    33    34    1
    33    34    35    1
    34    34    36    1
    35    34    37    1
    36    37    38    1
    37    14     2    1
    38    12     4    1
    39    21    15   ar
    40    12     7    1
    41    28    25    1
    42    23    24    1
    43    38    39    1
@<TRIPOS>MOLECULE
*****
 39 43 0 0 0
SMALL
GASTEIGER

@<TRIPOS>ATOM
      1 C           9.3075   -2.9540   18.8386 C.3     1  UNL1        0.0177
      2 C           8.5623   -3.2048   20.1161 C.3     1  UNL1        0.0627
      3 C           8.9553   -4.3504   21.0011 C.3     1  UNL1        0.0436
      4 C           8.2102   -4.6013   22.2785 C.2     1  UNL1       -0.0045
      5 C           7.0721   -3.7065   22.6710 C.2     1  UNL1        0.0735
      6 N           6.5270   -4.1968   23.9796 N.2     1  UNL1       -0.2523
      7 C           7.3283   -5.3946   24.3959 C.2     1  UNL1        0.0627
      8 C           7.2451   -6.2899   25.5965 C.3     1  UNL1        0.0717
      9 C           8.2021   -7.4352   25.7458 C.2     1  UNL1       -0.0198
     10 C           9.2424   -7.6852   24.6944 C.2     1  UNL1       -0.0042
     11 C           9.3256   -6.7898   23.4938 C.2     1  UNL1        0.0006
     12 C           8.3686   -5.6446   23.3446 C.2     1  UNL1        0.0111
     13 C           6.6791   -2.5609   21.7860 C.3     1  UNL1        0.1250
     14 N           7.4242   -2.3101   20.5086 N.3     1  UNL1       -0.2618
     15 C           5.5409   -1.6661   22.1784 C.ar    1  UNL1        0.0529
     16 C           4.1408   -2.0075   21.7626 C.ar    1  UNL1        0.1411
     17 F           3.8787   -3.2436   20.9544 F       1  UNL1       -0.2043
     18 C           3.0026   -1.1126   22.1551 C.ar    1  UNL1        0.0438
     19 C           3.2647    0.1235   22.9634 C.ar    1  UNL1        0.0492
     20 C           4.6649    0.4648   23.3792 C.ar    1  UNL1        0.0438
     21 C           5.8030   -0.4299   22.9868 C.ar    1  UNL1        0.1411
     22 F           7.2032   -0.0887   23.4025 F       1  UNL1       -0.2043
     23 N           2.1266    1.0183   23.3559 N.pl3   1  UNL1       -0.3316
     24 H           1.6732    1.5656   22.6746 H       1  UNL1        0.1468
     25 C           1.6791    1.0791   24.7863 C.3     1  UNL1        0.1014
     26 C           2.3751    1.1316   26.1140 C.3     1  UNL1        0.0933
     27 N           1.0463    1.1651   26.8092 N.3     1  UNL1       -0.2697
     28 C           0.3504    1.1126   25.4814 C.3     1  UNL1        0.0933
     29 C           0.5989    1.2259   28.2396 C.3     1  UNL1        0.0751
     30 C           0.7579    0.0269   29.1268 C.3     1  UNL1        0.0554
     31 C           2.1290   -0.4704   29.4769 C.3     1  UNL1        0.1947
     32 F           2.3660   -1.1548   30.7904 F       1  UNL1       -0.2343
     33 C           7.0312   -1.1645   19.6236 C.3     1  UNL1        0.1425
     34 C           5.7129   -1.1872   18.9084 C.3     1  UNL1        0.3049
     35 F           5.9493   -2.6161   18.5180 F       1  UNL1       -0.2001
     36 F           5.4764    0.2417   19.2988 F       1  UNL1       -0.2001
     37 C           4.3946   -1.2099   18.1932 C.3     1  UNL1        0.2057
     38 O           4.3383   -1.5569   16.7348 O.3     1  UNL1       -0.3771
     39 H           4.7898   -0.8690   16.2212 H       1  UNL1        0.2106
@<TRIPOS>BOND
     1     2     1    1
     2     2     3    1
     3     3     4    1
     4     4     5    2
     5     5     6    1
     6     6     7    2
     7     7     8    1
     8     8     9    1
     9     9    10    2
    10    10    11    1
    11    11    12    2
    12     5    13    1
    13    13    15    1
    14    15    16   ar
    15    16    17    1
    16    16    18   ar
    17    18    19   ar
    18    19    23    1
    19    23    25    1
    20    25    26    1
    21    26    27    1
    22    27    29    1
    23    29    30    1
    24    30    31    1
    25    31    32    1
    26    27    28    1
    27    19    20   ar
    28    20    21   ar
    29    21    22    1
    30    13    14    1
    31    14    33    1
    32    33    34    1
    33    34    35    1
    34    34    36    1
    35    34    37    1
    36    37    38    1
    37    14     2    1
    38    12     4    1
    39    21    15   ar
    40    12     7    1
    41    28    25    1
    42    23    24    1
    43    38    39    1
@<TRIPOS>MOLECULE
*****
 39 43 0 0 0
SMALL
GASTEIGER

@<TRIPOS>ATOM
      1 C           2.2712    2.4787   23.2179 C.3     1  UNL1        0.0177
      2 C           1.1057    2.6899   24.1384 C.3     1  UNL1        0.0627
      3 C          -0.2432    3.0269   23.5753 C.3     1  UNL1        0.0436
      4 C          -1.4086    3.2382   24.4957 C.2     1  UNL1       -0.0045
      5 C          -1.2251    3.1125   25.9791 C.2     1  UNL1        0.0735
      6 N          -2.5491    3.3746   26.6337 N.2     1  UNL1       -0.2523
      7 C          -3.5507    3.6624   25.5549 C.2     1  UNL1        0.0627
      8 C          -5.0136    3.9903   25.6050 C.3     1  UNL1        0.0717
      9 C          -5.7715    4.2339   24.3338 C.2     1  UNL1       -0.0198
     10 C          -5.0667    4.1496   23.0124 C.2     1  UNL1       -0.0042
     11 C          -3.6039    3.8216   22.9623 C.2     1  UNL1        0.0006
     12 C          -2.8459    3.5781   24.2335 C.2     1  UNL1        0.0111
     13 C           0.1237    2.7755   26.5422 C.3     1  UNL1        0.1250
     14 N           1.2892    2.5642   25.6218 N.3     1  UNL1       -0.2618
     15 C           0.3072    2.6498   28.0256 C.ar    1  UNL1        0.0529
     16 C          -0.1366    1.4040   28.7332 C.ar    1  UNL1        0.1411
     17 F          -0.7639    0.2838   27.9575 F       1  UNL1       -0.2043
     18 C           0.0469    1.2783   30.2167 C.ar    1  UNL1        0.0438
     19 C           0.6742    2.3984   30.9924 C.ar    1  UNL1        0.0492
     20 C           1.1180    3.6443   30.2847 C.ar    1  UNL1        0.0438
     21 C           0.9345    3.7700   28.8013 C.ar    1  UNL1        0.1411
     22 F           1.3783    5.0158   28.0935 F       1  UNL1       -0.2043
     23 N           0.8576    2.2727   32.4758 N.pl3   1  UNL1       -0.3316
     24 H           0.0811    2.3497   33.0761 H       1  UNL1        0.1468
     25 C           2.2242    2.0298   33.0447 C.3     1  UNL1        0.1014
     26 C           3.1441    0.8479   33.1269 C.3     1  UNL1        0.0933
     27 N           4.1568    1.6863   33.8491 N.3     1  UNL1       -0.2697
     28 C           3.2369    2.8682   33.7668 C.3     1  UNL1        0.0933
     29 C           5.5233    1.4434   34.4179 C.3     1  UNL1        0.0751
     30 C           5.6865    1.1562   35.8811 C.3     1  UNL1        0.0554
     31 C           4.9089    0.0431   36.5182 C.3     1  UNL1        0.1947
     32 F           3.9159    0.3457   37.6010 F       1  UNL1       -0.2343
     33 C           2.6380    2.2272   26.1848 C.3     1  UNL1        0.1425
     34 C           2.8906    0.8667   26.7636 C.3     1  UNL1        0.3049
     35 F           3.3951    1.4979   28.0273 F       1  UNL1       -0.2001
     36 F           2.3861    0.2354   25.4999 F       1  UNL1       -0.2001
     37 C           3.1431   -0.4939   27.3424 C.3     1  UNL1        0.2057
     38 O           2.1236   -1.1273   28.2421 O.3     1  UNL1       -0.3771
     39 H           2.0515   -0.6132   29.0615 H       1  UNL1        0.2106
@<TRIPOS>BOND
     1     2     1    1
     2     2     3    1
     3     3     4    1
     4     4     5    2
     5     5     6    1
     6     6     7    2
     7     7     8    1
     8     8     9    1
     9     9    10    2
    10    10    11    1
    11    11    12    2
    12     5    13    1
    13    13    15    1
    14    15    16   ar
    15    16    17    1
    16    16    18   ar
    17    18    19   ar
    18    19    23    1
    19    23    25    1
    20    25    26    1
    21    26    27    1
    22    27    29    1
    23    29    30    1
    24    30    31    1
    25    31    32    1
    26    27    28    1
    27    19    20   ar
    28    20    21   ar
    29    21    22    1
    30    13    14    1
    31    14    33    1
    32    33    34    1
    33    34    35    1
    34    34    36    1
    35    34    37    1
    36    37    38    1
    37    14     2    1
    38    12     4    1
    39    21    15   ar
    40    12     7    1
    41    28    25    1
    42    23    24    1
    43    38    39    1
