@<TRIPOS>MOLECULE
*****
 41 45 0 0 0
SMALL
GASTEIGER

@<TRIPOS>ATOM
      1 C           4.9917   -3.3492   22.4135 C.ar    1  UNL1        0.0611
      2 C           6.0588   -3.9982   23.2442 C.ar    1  UNL1        0.1037
      3 N           6.0911   -3.3104   24.5768 N.ar    1  UNL1       -0.2269
      4 C           5.0440   -2.2364   24.5697 C.ar    1  UNL1        0.1407
      5 N           4.6215   -1.2397   25.6080 N.ar    1  UNL1       -0.3374
      6 C           3.5195   -0.2669   25.3092 C.ar    1  UNL1        0.0735
      7 C           2.8400   -0.2909   23.9722 C.ar    1  UNL1        0.0202
      8 C           3.2625   -1.2877   22.9339 C.ar    1  UNL1        0.0047
      9 C           4.3645   -2.2604   23.2327 C.ar    1  UNL1        0.0386
     10 H           5.0675   -1.2239   26.4855 H       1  UNL1        0.1674
     11 C           1.7379    0.6818   23.6734 C.ar    1  UNL1        0.0411
     12 C           0.9291    1.4363   24.6867 C.ar    1  UNL1        0.1217
     13 N          -0.0575    2.2917   23.9485 N.ar    1  UNL1       -0.1676
     14 N           0.1415    2.0658   22.4790 N.ar    1  UNL1       -0.2480
     15 C           1.2511    1.0709   22.3090 C.ar    1  UNL1        0.0967
     16 C          -0.6331    2.7201   21.3735 C.3     1  UNL1        0.1448
     17 C          -1.9663    3.3450   21.6599 C.3     1  UNL1        0.0989
     18 N          -2.9870    3.4681   20.5677 N.3     1  UNL1       -0.2667
     19 C          -4.4355    3.2136   20.8627 C.3     1  UNL1        0.1047
     20 C          -5.4562    3.3367   19.7705 C.3     1  UNL1        0.1595
     21 O          -5.0285    3.7143   18.3833 O.3     1  UNL1       -0.3508
     22 C          -3.5800    3.9688   18.0883 C.3     1  UNL1        0.1595
     23 C          -2.5592    3.8457   19.1805 C.3     1  UNL1        0.1047
     24 C           4.6174   -3.7234   21.0100 C.2     1  UNL1        0.2015
     25 O           3.9094   -5.0183   20.7424 O.2     1  UNL1       -0.2864
     26 C           4.2189   -1.0130   18.1385 C.ar    1  UNL1        0.0920
     27 C           5.6187   -0.9607   17.6018 C.ar    1  UNL1        0.0204
     28 C           6.6846   -1.8293   18.2012 C.ar    1  UNL1        0.0312
     29 C           6.3509   -2.7502   19.3372 C.ar    1  UNL1        0.1454
     30 F           7.4169   -3.6187   19.9366 F       1  UNL1       -0.2040
     31 C           4.9512   -2.8025   19.8739 C.ar    1  UNL1        0.0951
     32 C           3.8852   -1.9339   19.2745 C.ar    1  UNL1        0.1598
     33 F           2.4855   -1.9863   19.8112 F       1  UNL1       -0.2026
     34 N           3.1529   -0.1444   17.5391 N.pl3   1  UNL1       -0.2166
     35 H           2.7843   -0.3590   16.6518 H       1  UNL1        0.1734
     36 S           2.6486    1.0511   18.2916 S.O2    1  UNL1        0.0540
     37 O           1.2549    0.4993   18.2341 O.2     1  UNL1       -0.1545
     38 O           4.0422    1.6028   18.3491 O.2     1  UNL1       -0.1545
     39 C           2.1443    2.2466   19.0442 C.3     1  UNL1        0.1724
     40 C           0.9232    4.2137   17.8652 C.3     1  UNL1        0.0019
     41 C           2.1820    3.6043   18.4075 C.3     1  UNL1        0.0273
@<TRIPOS>BOND
     1    40    41    1
     2    41    39    1
     3    39    36    1
     4    36    37    2
     5    36    38    2
     6    36    34    1
     7    34    26    1
     8    26    27   ar
     9    27    28   ar
    10    28    29   ar
    11    29    30    1
    12    29    31   ar
    13    31    24    1
    14    24    25    2
    15    24     1    1
    16     1     2   ar
    17     2     3   ar
    18     3     4   ar
    19     4     5   ar
    20     5     6   ar
    21     6     7   ar
    22     7    11    1
    23    11    12   ar
    24    12    13   ar
    25    13    14   ar
    26    14    16    1
    27    16    17    1
    28    17    18    1
    29    18    19    1
    30    19    20    1
    31    20    21    1
    32    21    22    1
    33    22    23    1
    34    14    15   ar
    35     7     8   ar
    36     8     9   ar
    37    31    32   ar
    38    32    33    1
    39    32    26   ar
    40     9     1   ar
    41     9     4    1
    42    15    11   ar
    43    23    18    1
    44    34    35    1
    45     5    10    1
@<TRIPOS>MOLECULE
*****
 41 45 0 0 0
SMALL
GASTEIGER

@<TRIPOS>ATOM
      1 C           4.3492   -2.8058   21.3390 C.ar    1  UNL1        0.0611
      2 C           5.3623   -3.8535   21.6940 C.ar    1  UNL1        0.1037
      3 N           5.6514   -3.7401   23.1615 N.ar    1  UNL1       -0.2269
      4 C           4.8170   -2.6225   23.7134 C.ar    1  UNL1        0.1407
      5 N           4.6861   -2.0559   25.0961 N.ar    1  UNL1       -0.3374
      6 C           3.7504   -0.9120   25.3524 C.ar    1  UNL1        0.0735
      7 C           2.9456   -0.3345   24.2260 C.ar    1  UNL1        0.0202
      8 C           3.0765   -0.9010   22.8433 C.ar    1  UNL1        0.0047
      9 C           4.0122   -2.0450   22.5870 C.ar    1  UNL1        0.0386
     10 H           5.2144   -2.4349   25.8354 H       1  UNL1        0.1674
     11 C           2.0098    0.8095   24.4823 C.ar    1  UNL1        0.0411
     12 C           0.7940    1.1523   23.6735 C.ar    1  UNL1        0.1217
     13 N           0.1583    2.3661   24.2837 N.ar    1  UNL1       -0.1676
     14 N           0.9813    2.7736   25.4698 N.ar    1  UNL1       -0.2480
     15 C           2.1256    1.8115   25.5925 C.ar    1  UNL1        0.0967
     16 C           0.7081    3.9386   26.3743 C.3     1  UNL1        0.1448
     17 C           0.0038    3.7244   27.6812 C.3     1  UNL1        0.0989
     18 N           0.0371    2.3767   28.3391 N.3     1  UNL1       -0.2667
     19 C          -1.0217    1.3620   28.0243 C.3     1  UNL1        0.1047
     20 C          -0.9884    0.0145   28.6821 C.3     1  UNL1        0.1595
     21 O           0.1039   -0.3184   29.6548 O.3     1  UNL1       -0.3508
     22 C           1.1627    0.6963   29.9696 C.3     1  UNL1        0.1595
     23 C           1.1294    2.0439   29.3117 C.3     1  UNL1        0.1047
     24 C           3.7741   -2.5618   19.9753 C.2     1  UNL1        0.2015
     25 O           3.3542   -3.7202   19.1200 O.2     1  UNL1       -0.2864
     26 C           2.0958    0.8432   18.8175 C.ar    1  UNL1        0.0920
     27 C           3.3083    1.6461   18.4498 C.ar    1  UNL1        0.0204
     28 C           4.6760    1.0465   18.5906 C.ar    1  UNL1        0.0312
     29 C           4.8313   -0.3561   19.0991 C.ar    1  UNL1        0.1454
     30 F           6.1990   -0.9558   19.2399 F       1  UNL1       -0.2040
     31 C           3.6188   -1.1591   19.4668 C.ar    1  UNL1        0.0951
     32 C           2.2511   -0.5594   19.3260 C.ar    1  UNL1        0.1598
     33 F           1.0387   -1.3625   19.6937 F       1  UNL1       -0.2026
     34 N           0.7281    1.4428   18.6767 N.pl3   1  UNL1       -0.2166
     35 H           0.1779    1.2338   17.8875 H       1  UNL1        0.1734
     36 S           0.1988    2.3608   19.7383 S.O2    1  UNL1        0.0540
     37 O          -0.3898    1.1856   20.4611 O.2     1  UNL1       -0.1545
     38 O           0.7874    3.5360   19.0156 O.2     1  UNL1       -0.1545
     39 C          -0.3305    3.2789   20.7999 C.3     1  UNL1        0.1724
     40 C          -2.7923    3.6283   20.0464 C.3     1  UNL1        0.0019
     41 C          -1.7966    3.2926   21.1168 C.3     1  UNL1        0.0273
@<TRIPOS>BOND
     1    40    41    1
     2    41    39    1
     3    39    36    1
     4    36    37    2
     5    36    38    2
     6    36    34    1
     7    34    26    1
     8    26    27   ar
     9    27    28   ar
    10    28    29   ar
    11    29    30    1
    12    29    31   ar
    13    31    24    1
    14    24    25    2
    15    24     1    1
    16     1     2   ar
    17     2     3   ar
    18     3     4   ar
    19     4     5   ar
    20     5     6   ar
    21     6     7   ar
    22     7    11    1
    23    11    12   ar
    24    12    13   ar
    25    13    14   ar
    26    14    16    1
    27    16    17    1
    28    17    18    1
    29    18    19    1
    30    19    20    1
    31    20    21    1
    32    21    22    1
    33    22    23    1
    34    14    15   ar
    35     7     8   ar
    36     8     9   ar
    37    31    32   ar
    38    32    33    1
    39    32    26   ar
    40     9     1   ar
    41     9     4    1
    42    15    11   ar
    43    23    18    1
    44    34    35    1
    45     5    10    1
@<TRIPOS>MOLECULE
*****
 41 45 0 0 0
SMALL
GASTEIGER

@<TRIPOS>ATOM
      1 C           1.2585    0.9261   22.4776 C.ar    1  UNL1        0.0611
      2 C           0.5467    1.8978   23.3714 C.ar    1  UNL1        0.1037
      3 N           1.0537    1.6991   24.7691 N.ar    1  UNL1       -0.2269
      4 C           2.0789    0.6046   24.7391 C.ar    1  UNL1        0.1407
      5 N           2.9135   -0.0188   25.8183 N.ar    1  UNL1       -0.3374
      6 C           3.8747   -1.1199   25.4814 C.ar    1  UNL1        0.0735
      7 C           4.0013   -1.5977   24.0652 C.ar    1  UNL1        0.0202
      8 C           3.1667   -0.9743   22.9859 C.ar    1  UNL1        0.0047
      9 C           2.2055    0.1268   23.3228 C.ar    1  UNL1        0.0386
     10 H           2.8304    0.2948   26.7478 H       1  UNL1        0.1674
     11 C           4.9625   -2.6989   23.7282 C.ar    1  UNL1        0.0411
     12 C           4.9787   -3.4972   22.4584 C.ar    1  UNL1        0.1217
     13 N           6.1025   -4.4868   22.5473 N.ar    1  UNL1       -0.1676
     14 N           6.7808   -4.3000   23.8721 N.ar    1  UNL1       -0.2480
     15 C           6.0763   -3.1950   24.6019 C.ar    1  UNL1        0.0967
     16 C           7.9572   -5.0811   24.3782 C.3     1  UNL1        0.1448
     17 C           7.7396   -6.3418   25.1612 C.3     1  UNL1        0.0989
     18 N           7.6973   -6.2961   26.6599 N.3     1  UNL1       -0.2667
     19 C           8.7271   -7.0348   27.4622 C.3     1  UNL1        0.1047
     20 C           8.6848   -6.9891   28.9608 C.3     1  UNL1        0.1595
     21 O           7.6126   -6.2046   29.6573 O.3     1  UNL1       -0.3508
     22 C           6.5828   -5.4658   28.8550 C.3     1  UNL1        0.1595
     23 C           6.6251   -5.5116   27.3563 C.3     1  UNL1        0.1047
     24 C           1.0586    0.7793   20.9982 C.2     1  UNL1        0.2015
     25 O          -0.2949    0.4281   20.4555 O.2     1  UNL1       -0.2864
     26 C           3.9580    0.0175   18.3976 C.ar    1  UNL1        0.0920
     27 C           4.5195    1.3926   18.1882 C.ar    1  UNL1        0.0204
     28 C           3.9273    2.5633   18.9154 C.ar    1  UNL1        0.0312
     29 C           2.7737    2.3589   19.8521 C.ar    1  UNL1        0.1454
     30 F           2.1815    3.5295   20.5793 F       1  UNL1       -0.2040
     31 C           2.2123    0.9838   20.0615 C.ar    1  UNL1        0.0951
     32 C           2.8044   -0.1869   19.3343 C.ar    1  UNL1        0.1598
     33 F           2.2430   -1.5620   19.5438 F       1  UNL1       -0.2026
     34 N           4.5502   -1.1532   17.6704 N.pl3   1  UNL1       -0.2166
     35 H           4.0705   -1.5543   16.9100 H       1  UNL1        0.1734
     36 S           5.8734   -1.7127   18.1017 S.O2    1  UNL1        0.0540
     37 O           5.1830   -2.5426   19.1431 O.2     1  UNL1       -0.1545
     38 O           6.5638   -0.8828   17.0603 O.2     1  UNL1       -0.1545
     39 C           7.1966   -2.2722   18.5330 C.3     1  UNL1        0.1724
     40 C           8.6533   -2.8677   20.6003 C.3     1  UNL1        0.0019
     41 C           7.7675   -1.9024   19.8700 C.3     1  UNL1        0.0273
@<TRIPOS>BOND
     1    40    41    1
     2    41    39    1
     3    39    36    1
     4    36    37    2
     5    36    38    2
     6    36    34    1
     7    34    26    1
     8    26    27   ar
     9    27    28   ar
    10    28    29   ar
    11    29    30    1
    12    29    31   ar
    13    31    24    1
    14    24    25    2
    15    24     1    1
    16     1     2   ar
    17     2     3   ar
    18     3     4   ar
    19     4     5   ar
    20     5     6   ar
    21     6     7   ar
    22     7    11    1
    23    11    12   ar
    24    12    13   ar
    25    13    14   ar
    26    14    16    1
    27    16    17    1
    28    17    18    1
    29    18    19    1
    30    19    20    1
    31    20    21    1
    32    21    22    1
    33    22    23    1
    34    14    15   ar
    35     7     8   ar
    36     8     9   ar
    37    31    32   ar
    38    32    33    1
    39    32    26   ar
    40     9     1   ar
    41     9     4    1
    42    15    11   ar
    43    23    18    1
    44    34    35    1
    45     5    10    1
@<TRIPOS>MOLECULE
*****
 41 45 0 0 0
SMALL
GASTEIGER

@<TRIPOS>ATOM
      1 C           4.9558   -3.2931   22.4571 C.ar    1  UNL1        0.0611
      2 C           6.0077   -3.9373   23.3106 C.ar    1  UNL1        0.1037
      3 N           6.0310   -3.2277   24.6319 N.ar    1  UNL1       -0.2269
      4 C           4.9936   -2.1449   24.5950 C.ar    1  UNL1        0.1407
      5 N           4.5683   -1.1274   25.6117 N.ar    1  UNL1       -0.3374
      6 C           3.4784   -0.1502   25.2842 C.ar    1  UNL1        0.0735
      7 C           2.8139   -0.1906   23.9400 C.ar    1  UNL1        0.0202
      8 C           3.2392   -1.2081   22.9234 C.ar    1  UNL1        0.0047
      9 C           4.3291   -2.1853   23.2508 C.ar    1  UNL1        0.0386
     10 H           5.0045   -1.1009   26.4939 H       1  UNL1        0.1674
     11 C           1.7239    0.7866   23.6126 C.ar    1  UNL1        0.0411
     12 C           1.0945    0.9867   22.2658 C.ar    1  UNL1        0.1217
     13 N           0.0537    2.0590   22.3952 N.ar    1  UNL1       -0.1676
     14 N           0.0397    2.5216   23.8221 N.ar    1  UNL1       -0.2480
     15 C           1.0720    1.7352   24.5744 C.ar    1  UNL1        0.0967
     16 C          -0.8502    3.5841   24.3958 C.3     1  UNL1        0.1448
     17 C          -2.0858    3.1986   25.1539 C.3     1  UNL1        0.0989
     18 N          -3.4392    3.5498   24.6106 N.3     1  UNL1       -0.2667
     19 C          -4.5507    3.9192   25.5476 C.3     1  UNL1        0.1047
     20 C          -5.9040    4.2704   25.0044 C.3     1  UNL1        0.1595
     21 O          -6.1458    4.2521   23.5241 O.3     1  UNL1       -0.3508
     22 C          -5.0343    3.8827   22.5871 C.3     1  UNL1        0.1595
     23 C          -3.6809    3.5315   23.1304 C.3     1  UNL1        0.1047
     24 C           4.5941   -3.6873   21.0557 C.2     1  UNL1        0.2015
     25 O           3.9206   -5.0023   20.7967 O.2     1  UNL1       -0.2864
     26 C           4.1275   -1.0214   18.1530 C.ar    1  UNL1        0.0920
     27 C           5.5296   -0.9250   17.6287 C.ar    1  UNL1        0.0204
     28 C           6.6198   -1.7493   18.2467 C.ar    1  UNL1        0.0312
     29 C           6.3080   -2.6701   19.3890 C.ar    1  UNL1        0.1454
     30 F           7.3982   -3.4944   20.0070 F       1  UNL1       -0.2040
     31 C           4.9060   -2.7665   19.9133 C.ar    1  UNL1        0.0951
     32 C           3.8157   -1.9422   19.2953 C.ar    1  UNL1        0.1598
     33 F           2.4137   -2.0387   19.8197 F       1  UNL1       -0.2026
     34 N           3.0373   -0.1971   17.5350 N.pl3   1  UNL1       -0.2166
     35 H           2.6933   -0.4262   16.6414 H       1  UNL1        0.1734
     36 S           2.4711    0.9762   18.2785 S.O2    1  UNL1        0.0540
     37 O           1.1159    0.3334   18.2609 O.2     1  UNL1       -0.1545
     38 O           3.8263    1.6190   18.2960 O.2     1  UNL1       -0.1545
     39 C           1.9051    2.1495   19.0219 C.3     1  UNL1        0.1724
     40 C           0.1905    3.7571   17.9145 C.3     1  UNL1        0.0019
     41 C           0.4854    2.5727   18.7864 C.3     1  UNL1        0.0273
@<TRIPOS>BOND
     1    40    41    1
     2    41    39    1
     3    39    36    1
     4    36    37    2
     5    36    38    2
     6    36    34    1
     7    34    26    1
     8    26    27   ar
     9    27    28   ar
    10    28    29   ar
    11    29    30    1
    12    29    31   ar
    13    31    24    1
    14    24    25    2
    15    24     1    1
    16     1     2   ar
    17     2     3   ar
    18     3     4   ar
    19     4     5   ar
    20     5     6   ar
    21     6     7   ar
    22     7    11    1
    23    11    12   ar
    24    12    13   ar
    25    13    14   ar
    26    14    16    1
    27    16    17    1
    28    17    18    1
    29    18    19    1
    30    19    20    1
    31    20    21    1
    32    21    22    1
    33    22    23    1
    34    14    15   ar
    35     7     8   ar
    36     8     9   ar
    37    31    32   ar
    38    32    33    1
    39    32    26   ar
    40     9     1   ar
    41     9     4    1
    42    15    11   ar
    43    23    18    1
    44    34    35    1
    45     5    10    1
@<TRIPOS>MOLECULE
*****
 41 45 0 0 0
SMALL
GASTEIGER

@<TRIPOS>ATOM
      1 C           6.6382   -3.3283   29.7633 C.ar    1  UNL1        0.0611
      2 C           6.7357   -4.2417   30.9491 C.ar    1  UNL1        0.1037
      3 N           6.9230   -5.6409   30.4423 N.ar    1  UNL1       -0.2269
      4 C           6.9412   -5.5925   28.9432 C.ar    1  UNL1        0.1407
      5 N           7.0954   -6.6651   27.9061 N.ar    1  UNL1       -0.3374
      6 C           7.0735   -6.3084   26.4493 C.ar    1  UNL1        0.0735
      7 C           6.8975   -4.8791   26.0296 C.ar    1  UNL1        0.0202
      8 C           6.7434   -3.8065   27.0667 C.ar    1  UNL1        0.0047
      9 C           6.7652   -4.1632   28.5235 C.ar    1  UNL1        0.0386
     10 H           7.2109   -7.6032   28.1815 H       1  UNL1        0.1674
     11 C           6.8757   -4.5225   24.5727 C.ar    1  UNL1        0.0411
     12 C           7.6086   -5.2402   23.4783 C.ar    1  UNL1        0.1217
     13 N           7.3030   -4.5469   22.1837 N.ar    1  UNL1       -0.1676
     14 N           6.3811   -3.4007   22.4781 N.ar    1  UNL1       -0.2480
     15 C           6.1171   -3.3857   23.9546 C.ar    1  UNL1        0.0967
     16 C           5.8216   -2.4385   21.4725 C.3     1  UNL1        0.1448
     17 C           5.0569   -2.9514   20.2884 C.3     1  UNL1        0.0989
     18 N           4.3087   -1.9954   19.4074 N.3     1  UNL1       -0.2667
     19 C           3.2002   -1.1609   19.9774 C.3     1  UNL1        0.1047
     20 C           2.4520   -0.2050   19.0965 C.3     1  UNL1        0.1595
     21 O           2.8122   -0.0834   17.6455 O.3     1  UNL1       -0.3508
     22 C           3.9207   -0.9179   17.0754 C.3     1  UNL1        0.1595
     23 C           4.6689   -1.8740   17.9565 C.3     1  UNL1        0.1047
     24 C           6.4472   -1.8413   29.8090 C.2     1  UNL1        0.2015
     25 O           7.6120   -0.9277   29.5674 O.2     1  UNL1       -0.2864
     26 C           2.7382   -0.5342   29.2748 C.ar    1  UNL1        0.0920
     27 C           2.3795   -0.1207   30.6714 C.ar    1  UNL1        0.0204
     28 C           3.3766   -0.2808   31.7804 C.ar    1  UNL1        0.0312
     29 C           4.7325   -0.8543   31.4931 C.ar    1  UNL1        0.1454
     30 F           5.7297   -1.0143   32.6022 F       1  UNL1       -0.2040
     31 C           5.0913   -1.2677   30.0965 C.ar    1  UNL1        0.0951
     32 C           4.0941   -1.1077   28.9874 C.ar    1  UNL1        0.1598
     33 F           4.4530   -1.5211   27.5909 F       1  UNL1       -0.2026
     34 N           1.7411   -0.3741   28.1657 N.pl3   1  UNL1       -0.2166
     35 H           1.6647   -1.0654   27.4689 H       1  UNL1        0.1734
     36 S           0.8605    0.8392   28.1183 S.O2    1  UNL1        0.0540
     37 O          -0.3252   -0.0074   28.4752 O.2     1  UNL1       -0.1545
     38 O           2.0461    1.6858   27.7613 O.2     1  UNL1       -0.1545
     39 C          -0.0201    2.0526   28.0708 C.3     1  UNL1        0.1724
     40 C          -0.7154    2.0597   25.5674 C.3     1  UNL1        0.0019
     41 C          -1.0822    2.1678   27.0178 C.3     1  UNL1        0.0273
@<TRIPOS>BOND
     1    40    41    1
     2    41    39    1
     3    39    36    1
     4    36    37    2
     5    36    38    2
     6    36    34    1
     7    34    26    1
     8    26    27   ar
     9    27    28   ar
    10    28    29   ar
    11    29    30    1
    12    29    31   ar
    13    31    24    1
    14    24    25    2
    15    24     1    1
    16     1     2   ar
    17     2     3   ar
    18     3     4   ar
    19     4     5   ar
    20     5     6   ar
    21     6     7   ar
    22     7    11    1
    23    11    12   ar
    24    12    13   ar
    25    13    14   ar
    26    14    16    1
    27    16    17    1
    28    17    18    1
    29    18    19    1
    30    19    20    1
    31    20    21    1
    32    21    22    1
    33    22    23    1
    34    14    15   ar
    35     7     8   ar
    36     8     9   ar
    37    31    32   ar
    38    32    33    1
    39    32    26   ar
    40     9     1   ar
    41     9     4    1
    42    15    11   ar
    43    23    18    1
    44    34    35    1
    45     5    10    1
@<TRIPOS>MOLECULE
*****
 41 45 0 0 0
SMALL
GASTEIGER

@<TRIPOS>ATOM
      1 C          -4.5201  -19.9125   20.1279 C.ar    1  UNL1        0.0611
      2 C          -3.6388  -19.9065   18.9141 C.ar    1  UNL1        0.1037
      3 N          -2.5724  -18.8720   19.1207 N.ar    1  UNL1       -0.2269
      4 C          -2.7947  -18.2387   20.4621 C.ar    1  UNL1        0.1407
      5 N          -2.0565  -17.1595   21.1972 N.ar    1  UNL1       -0.3374
      6 C          -2.5220  -16.7233   22.5548 C.ar    1  UNL1        0.0735
      7 C          -3.7258  -17.3664   23.1772 C.ar    1  UNL1        0.0202
      8 C          -4.4640  -18.4455   22.4422 C.ar    1  UNL1        0.0047
      9 C          -3.9985  -18.8817   21.0846 C.ar    1  UNL1        0.0386
     10 H          -1.2664  -16.7374   20.7887 H       1  UNL1        0.1674
     11 C          -4.1913  -16.9302   24.5349 C.ar    1  UNL1        0.0411
     12 C          -3.7821  -17.5369   25.8443 C.ar    1  UNL1        0.1217
     13 N          -4.4857  -16.7924   26.9401 N.ar    1  UNL1       -0.1676
     14 N          -5.3297  -15.7256   26.3079 N.ar    1  UNL1       -0.2480
     15 C          -5.1478  -15.8107   24.8214 C.ar    1  UNL1        0.0967
     16 C          -6.2024  -14.7457   27.0347 C.3     1  UNL1        0.1448
     17 C          -7.6117  -15.1163   27.3901 C.3     1  UNL1        0.0989
     18 N          -8.4345  -15.9345   26.4395 N.3     1  UNL1       -0.2667
     19 C          -8.9087  -17.2996   26.8415 C.3     1  UNL1        0.1047
     20 C          -9.7315  -18.1178   25.8910 C.3     1  UNL1        0.1595
     21 O         -10.0801  -17.5708   24.5384 O.3     1  UNL1       -0.3508
     22 C          -9.6059  -16.2057   24.1365 C.3     1  UNL1        0.1595
     23 C          -8.7831  -15.3875   25.0871 C.3     1  UNL1        0.1047
     24 C          -5.7136  -20.7944   20.3465 C.2     1  UNL1        0.2015
     25 O          -5.6414  -22.2528   20.0039 O.2     1  UNL1       -0.2864
     26 C          -9.1325  -18.7955   20.6043 C.ar    1  UNL1        0.0920
     27 C          -9.5112  -19.0644   22.0306 C.ar    1  UNL1        0.0204
     28 C          -8.6241  -19.9099   22.8955 C.ar    1  UNL1        0.0312
     29 C          -7.3582  -20.4865   22.3342 C.ar    1  UNL1        0.1454
     30 F          -6.4711  -21.3320   23.1992 F       1  UNL1       -0.2040
     31 C          -6.9796  -20.2177   20.9079 C.ar    1  UNL1        0.0951
     32 C          -7.8667  -19.3722   20.0430 C.ar    1  UNL1        0.1598
     33 F          -7.4879  -19.1034   18.6167 F       1  UNL1       -0.2026
     34 N         -10.0196  -17.9500   19.7393 N.pl3   1  UNL1       -0.2166
     35 H          -9.8296  -17.8613   18.7774 H       1  UNL1        0.1734
     36 S         -11.1963  -17.2396   20.3400 S.O2    1  UNL1        0.0540
     37 O         -12.0498  -18.4493   20.0986 O.2     1  UNL1       -0.1545
     38 O         -10.3428  -16.0300   20.5814 O.2     1  UNL1       -0.1545
     39 C         -12.3729  -16.5292   20.9407 C.3     1  UNL1        0.1724
     40 C         -13.2192  -17.6314   23.1359 C.3     1  UNL1        0.0019
     41 C         -12.5460  -16.4918   22.4302 C.3     1  UNL1        0.0273
@<TRIPOS>BOND
     1    40    41    1
     2    41    39    1
     3    39    36    1
     4    36    37    2
     5    36    38    2
     6    36    34    1
     7    34    26    1
     8    26    27   ar
     9    27    28   ar
    10    28    29   ar
    11    29    30    1
    12    29    31   ar
    13    31    24    1
    14    24    25    2
    15    24     1    1
    16     1     2   ar
    17     2     3   ar
    18     3     4   ar
    19     4     5   ar
    20     5     6   ar
    21     6     7   ar
    22     7    11    1
    23    11    12   ar
    24    12    13   ar
    25    13    14   ar
    26    14    16    1
    27    16    17    1
    28    17    18    1
    29    18    19    1
    30    19    20    1
    31    20    21    1
    32    21    22    1
    33    22    23    1
    34    14    15   ar
    35     7     8   ar
    36     8     9   ar
    37    31    32   ar
    38    32    33    1
    39    32    26   ar
    40     9     1   ar
    41     9     4    1
    42    15    11   ar
    43    23    18    1
    44    34    35    1
    45     5    10    1
@<TRIPOS>MOLECULE
*****
 41 45 0 0 0
SMALL
GASTEIGER

@<TRIPOS>ATOM
      1 C          -3.8691  -16.9416   23.0379 C.ar    1  UNL1        0.0611
      2 C          -2.4564  -17.2383   23.4456 C.ar    1  UNL1        0.1037
      3 N          -2.0681  -18.5571   22.8456 N.ar    1  UNL1       -0.2269
      4 C          -3.2409  -19.0755   22.0671 C.ar    1  UNL1        0.1407
      5 N          -3.4390  -20.3276   21.2654 N.ar    1  UNL1       -0.3374
      6 C          -4.7502  -20.5813   20.5825 C.ar    1  UNL1        0.0735
      7 C          -5.8633  -19.5828   20.7014 C.ar    1  UNL1        0.0202
      8 C          -5.6651  -18.3307   21.5031 C.ar    1  UNL1        0.0047
      9 C          -4.3539  -18.0770   22.1860 C.ar    1  UNL1        0.0386
     10 H          -2.7085  -20.9830   21.1874 H       1  UNL1        0.1674
     11 C          -7.1745  -19.8366   20.0185 C.ar    1  UNL1        0.0411
     12 C          -7.4438  -20.8978   18.9932 C.ar    1  UNL1        0.1217
     13 N          -8.8823  -20.7908   18.5820 N.ar    1  UNL1       -0.1676
     14 N          -9.5022  -19.6633   19.3532 N.ar    1  UNL1       -0.2480
     15 C          -8.4467  -19.0736   20.2410 C.ar    1  UNL1        0.0967
     16 C         -10.9273  -19.2059   19.2541 C.3     1  UNL1        0.1448
     17 C         -11.2777  -17.7759   19.5408 C.3     1  UNL1        0.0989
     18 N         -11.9148  -17.4075   20.8479 N.3     1  UNL1       -0.2667
     19 C         -11.7972  -16.0066   21.3711 C.3     1  UNL1        0.1047
     20 C         -12.4342  -15.6381   22.6780 C.3     1  UNL1        0.1595
     21 O         -13.1890  -16.6705   23.4619 O.3     1  UNL1       -0.3508
     22 C         -13.3067  -18.0714   22.9387 C.3     1  UNL1        0.1595
     23 C         -12.6696  -18.4399   21.6317 C.3     1  UNL1        0.1047
     24 C          -4.6584  -15.7233   23.4159 C.2     1  UNL1        0.2015
     25 O          -4.4096  -14.4211   22.7145 O.2     1  UNL1       -0.2864
     26 C          -8.1346  -16.3125   25.2378 C.ar    1  UNL1        0.0920
     27 C          -7.7731  -15.9755   26.6540 C.ar    1  UNL1        0.0204
     28 C          -6.3733  -15.5546   26.9909 C.ar    1  UNL1        0.0312
     29 C          -5.3351  -15.4705   25.9116 C.ar    1  UNL1        0.1454
     30 F          -3.9354  -15.0495   26.2484 F       1  UNL1       -0.2040
     31 C          -5.6967  -15.8074   24.4953 C.ar    1  UNL1        0.0951
     32 C          -7.0964  -16.2284   24.1584 C.ar    1  UNL1        0.1598
     33 F          -7.4579  -16.5653   22.7421 F       1  UNL1       -0.2026
     34 N          -9.5344  -16.7334   24.9009 N.pl3   1  UNL1       -0.2166
     35 H         -10.2321  -16.0536   24.7588 H       1  UNL1        0.1734
     36 S          -9.8710  -18.1902   24.7805 S.O2    1  UNL1        0.0540
     37 O          -9.9791  -18.0422   23.2918 O.2     1  UNL1       -0.1545
     38 O          -9.7628  -18.3382   26.2693 O.2     1  UNL1       -0.1545
     39 C         -10.2075  -19.6470   24.6602 C.3     1  UNL1        0.1724
     40 C          -8.2584  -20.7723   23.3621 C.3     1  UNL1        0.0019
     41 C          -9.7152  -20.4358   23.4832 C.3     1  UNL1        0.0273
@<TRIPOS>BOND
     1    40    41    1
     2    41    39    1
     3    39    36    1
     4    36    37    2
     5    36    38    2
     6    36    34    1
     7    34    26    1
     8    26    27   ar
     9    27    28   ar
    10    28    29   ar
    11    29    30    1
    12    29    31   ar
    13    31    24    1
    14    24    25    2
    15    24     1    1
    16     1     2   ar
    17     2     3   ar
    18     3     4   ar
    19     4     5   ar
    20     5     6   ar
    21     6     7   ar
    22     7    11    1
    23    11    12   ar
    24    12    13   ar
    25    13    14   ar
    26    14    16    1
    27    16    17    1
    28    17    18    1
    29    18    19    1
    30    19    20    1
    31    20    21    1
    32    21    22    1
    33    22    23    1
    34    14    15   ar
    35     7     8   ar
    36     8     9   ar
    37    31    32   ar
    38    32    33    1
    39    32    26   ar
    40     9     1   ar
    41     9     4    1
    42    15    11   ar
    43    23    18    1
    44    34    35    1
    45     5    10    1
@<TRIPOS>MOLECULE
*****
 41 45 0 0 0
SMALL
GASTEIGER

@<TRIPOS>ATOM
      1 C           5.5145   -3.0332   23.5669 C.ar    1  UNL1        0.0611
      2 C           5.9707   -3.1517   24.9910 C.ar    1  UNL1        0.1037
      3 N           5.1747   -2.1833   25.8147 N.ar    1  UNL1       -0.2269
      4 C           4.2266   -1.4663   24.8999 C.ar    1  UNL1        0.1407
      5 N           3.1992   -0.4029   25.1524 N.ar    1  UNL1       -0.3374
      6 C           2.3819    0.1351   24.0156 C.ar    1  UNL1        0.0735
      7 C           2.5918   -0.3901   22.6263 C.ar    1  UNL1        0.0202
      8 C           3.6192   -1.4535   22.3739 C.ar    1  UNL1        0.0047
      9 C           4.4366   -1.9915   23.5106 C.ar    1  UNL1        0.0386
     10 H           3.0614   -0.0582   26.0642 H       1  UNL1        0.1674
     11 C           1.7744    0.1480   21.4895 C.ar    1  UNL1        0.0411
     12 C           1.5651   -0.5175   20.1616 C.ar    1  UNL1        0.1217
     13 N           0.6841    0.3692   19.3324 N.ar    1  UNL1       -0.1676
     14 N           0.3489    1.5828   20.1479 N.ar    1  UNL1       -0.2480
     15 C           1.0228    1.4461   21.4810 C.ar    1  UNL1        0.0967
     16 C          -0.5094    2.7315   19.7075 C.3     1  UNL1        0.1448
     17 C          -0.9736    3.7477   20.7084 C.3     1  UNL1        0.0989
     18 N          -2.3085    3.5895   21.3739 N.3     1  UNL1       -0.2667
     19 C          -2.4365    3.7891   22.8550 C.3     1  UNL1        0.1047
     20 C          -3.7714    3.6309   23.5205 C.3     1  UNL1        0.1595
     21 O          -4.9784    3.2732   22.7049 O.3     1  UNL1       -0.3508
     22 C          -4.8504    3.0737   21.2238 C.3     1  UNL1        0.1595
     23 C          -3.5154    3.2318   20.5583 C.3     1  UNL1        0.1047
     24 C           6.0433   -3.8184   22.4034 C.2     1  UNL1        0.2015
     25 O           7.0437   -4.9128   22.6298 O.2     1  UNL1       -0.2864
     26 C           5.8299   -2.1873   18.7917 C.ar    1  UNL1        0.0920
     27 C           4.6284   -2.8908   18.2336 C.ar    1  UNL1        0.0204
     28 C           3.8986   -3.9035   19.0653 C.ar    1  UNL1        0.0312
     29 C           4.3702   -4.2127   20.4552 C.ar    1  UNL1        0.1454
     30 F           3.6403   -5.2254   21.2870 F       1  UNL1       -0.2040
     31 C           5.5716   -3.5092   21.0134 C.ar    1  UNL1        0.0951
     32 C           6.3015   -2.4965   20.1817 C.ar    1  UNL1        0.1598
     33 F           7.5030   -1.7931   20.7399 F       1  UNL1       -0.2026
     34 N           6.5597   -1.1746   17.9600 N.pl3   1  UNL1       -0.2166
     35 H           7.3966   -1.4226   17.5047 H       1  UNL1        0.1734
     36 S           6.0144    0.2159   17.8220 S.O2    1  UNL1        0.0540
     37 O           5.1878   -0.2246   16.6504 O.2     1  UNL1       -0.1545
     38 O           6.8410    0.6564   18.9935 O.2     1  UNL1       -0.1545
     39 C           5.4691    1.6064   17.6840 C.3     1  UNL1        0.1724
     40 C           3.9425    2.5975   19.5381 C.3     1  UNL1        0.0019
     41 C           4.0998    1.9301   18.2040 C.3     1  UNL1        0.0273
@<TRIPOS>BOND
     1    40    41    1
     2    41    39    1
     3    39    36    1
     4    36    37    2
     5    36    38    2
     6    36    34    1
     7    34    26    1
     8    26    27   ar
     9    27    28   ar
    10    28    29   ar
    11    29    30    1
    12    29    31   ar
    13    31    24    1
    14    24    25    2
    15    24     1    1
    16     1     2   ar
    17     2     3   ar
    18     3     4   ar
    19     4     5   ar
    20     5     6   ar
    21     6     7   ar
    22     7    11    1
    23    11    12   ar
    24    12    13   ar
    25    13    14   ar
    26    14    16    1
    27    16    17    1
    28    17    18    1
    29    18    19    1
    30    19    20    1
    31    20    21    1
    32    21    22    1
    33    22    23    1
    34    14    15   ar
    35     7     8   ar
    36     8     9   ar
    37    31    32   ar
    38    32    33    1
    39    32    26   ar
    40     9     1   ar
    41     9     4    1
    42    15    11   ar
    43    23    18    1
    44    34    35    1
    45     5    10    1
@<TRIPOS>MOLECULE
*****
 41 45 0 0 0
SMALL
GASTEIGER

@<TRIPOS>ATOM
      1 C           4.2730   -2.8319   21.4323 C.ar    1  UNL1        0.0611
      2 C           5.2699   -3.8965   21.7825 C.ar    1  UNL1        0.1037
      3 N           5.5990   -3.7621   23.2398 N.ar    1  UNL1       -0.2269
      4 C           4.8055   -2.6143   23.7902 C.ar    1  UNL1        0.1407
      5 N           4.7233   -2.0185   25.1643 N.ar    1  UNL1       -0.3374
      6 C           3.8216   -0.8477   25.4213 C.ar    1  UNL1        0.0735
      7 C           3.0021   -0.2728   24.3042 C.ar    1  UNL1        0.0202
      8 C           3.0843   -0.8686   22.9302 C.ar    1  UNL1        0.0047
      9 C           3.9860   -2.0394   22.6732 C.ar    1  UNL1        0.0386
     10 H           5.2612   -2.3958   25.8975 H       1  UNL1        0.1674
     11 C           2.1003    0.8981   24.5613 C.ar    1  UNL1        0.0411
     12 C           2.3880    2.0472   25.4816 C.ar    1  UNL1        0.1217
     13 N           1.2181    2.9847   25.4323 N.ar    1  UNL1       -0.1676
     14 N           0.2074    2.4150   24.4815 N.ar    1  UNL1       -0.2480
     15 C           0.7526    1.1254   23.9433 C.ar    1  UNL1        0.0967
     16 C          -1.1162    3.0274   24.1307 C.3     1  UNL1        0.1448
     17 C          -1.3444    3.5842   22.7567 C.3     1  UNL1        0.0989
     18 N          -2.7167    3.5504   22.1520 N.3     1  UNL1       -0.2667
     19 C          -3.9273    3.6141   23.0354 C.3     1  UNL1        0.1047
     20 C          -5.2995    3.5803   22.4308 C.3     1  UNL1        0.1595
     21 O          -5.4613    3.4827   20.9427 O.3     1  UNL1       -0.3508
     22 C          -4.2507    3.4189   20.0593 C.3     1  UNL1        0.1595
     23 C          -2.8783    3.4527   20.6640 C.3     1  UNL1        0.1047
     24 C           3.6691   -2.6003   20.0789 C.2     1  UNL1        0.2015
     25 O           3.1727   -3.7620   19.2704 O.2     1  UNL1       -0.2864
     26 C           2.1249    0.8808   18.9618 C.ar    1  UNL1        0.0920
     27 C           3.3469    1.5800   18.4444 C.ar    1  UNL1        0.0204
     28 C           4.6763    0.8858   18.4718 C.ar    1  UNL1        0.0312
     29 C           4.7838   -0.5076   19.0166 C.ar    1  UNL1        0.1454
     30 F           6.1132   -1.2017   19.0440 F       1  UNL1       -0.2040
     31 C           3.5617   -1.2068   19.5341 C.ar    1  UNL1        0.0951
     32 C           2.2323   -0.5126   19.5066 C.ar    1  UNL1        0.1598
     33 F           1.0103   -1.2119   20.0241 F       1  UNL1       -0.2026
     34 N           0.7954    1.5749   18.9344 N.pl3   1  UNL1       -0.2166
     35 H          -0.0161    1.0747   18.6887 H       1  UNL1        0.1734
     36 S           0.7026    3.0313   19.2812 S.O2    1  UNL1        0.0540
     37 O           1.1867    2.7317   20.6689 O.2     1  UNL1       -0.1545
     38 O           0.2184    3.3309   17.8935 O.2     1  UNL1       -0.1545
     39 C           0.6096    4.4877   19.6279 C.3     1  UNL1        0.1724
     40 C           2.9765    5.2819   18.9085 C.3     1  UNL1        0.0019
     41 C           1.8567    5.2734   19.9065 C.3     1  UNL1        0.0273
@<TRIPOS>BOND
     1    40    41    1
     2    41    39    1
     3    39    36    1
     4    36    37    2
     5    36    38    2
     6    36    34    1
     7    34    26    1
     8    26    27   ar
     9    27    28   ar
    10    28    29   ar
    11    29    30    1
    12    29    31   ar
    13    31    24    1
    14    24    25    2
    15    24     1    1
    16     1     2   ar
    17     2     3   ar
    18     3     4   ar
    19     4     5   ar
    20     5     6   ar
    21     6     7   ar
    22     7    11    1
    23    11    12   ar
    24    12    13   ar
    25    13    14   ar
    26    14    16    1
    27    16    17    1
    28    17    18    1
    29    18    19    1
    30    19    20    1
    31    20    21    1
    32    21    22    1
    33    22    23    1
    34    14    15   ar
    35     7     8   ar
    36     8     9   ar
    37    31    32   ar
    38    32    33    1
    39    32    26   ar
    40     9     1   ar
    41     9     4    1
    42    15    11   ar
    43    23    18    1
    44    34    35    1
    45     5    10    1
