@<TRIPOS>MOLECULE
*****
 30 32 0 0 0
SMALL
GASTEIGER

@<TRIPOS>ATOM
      1 C          -8.6316  -19.3874   22.9402 C.ar    1  UNL1        0.0800
      2 C          -7.6081  -19.8689   21.9551 C.ar    1  UNL1        0.0234
      3 C          -6.3585  -19.0726   21.7222 C.ar    1  UNL1        0.0722
      4 C          -6.1324  -17.7947   22.4746 C.ar    1  UNL1        0.0857
      5 N          -7.1559  -17.3132   23.4597 N.ar    1  UNL1       -0.2917
      6 C          -7.2076  -16.1012   24.3419 C.ar    1  UNL1        0.0567
      7 C          -6.1614  -15.0299   24.4304 C.3     1  UNL1        0.0517
      8 C          -8.4892  -16.1484   25.1199 C.ar    1  UNL1        0.0730
      9 C          -8.9496  -15.1326   26.1231 C.3     1  UNL1        0.0534
     10 N          -9.2296  -17.3897   24.7186 N.ar    1  UNL1       -0.2299
     11 C          -8.4055  -18.1096   23.6926 C.ar    1  UNL1        0.1603
     12 C          -5.3350  -19.5540   20.7370 C.2     1  UNL1        0.2474
     13 O          -5.4413  -20.9341   20.1590 O.2     1  UNL1       -0.2701
     14 N          -4.2051  -18.6554   20.3299 N.am    1  UNL1       -0.2984
     15 H          -4.1353  -17.7496   20.7093 H       1  UNL1        0.1498
     16 C          -3.1815  -19.1368   19.3447 C.3     1  UNL1        0.1215
     17 C          -1.8246  -18.4989   19.3008 C.3     1  UNL1        0.1583
     18 O          -1.3708  -17.7862   18.0613 O.3     1  UNL1       -0.3802
     19 H          -1.2732  -18.4253   17.3382 H       1  UNL1        0.2105
     20 N          -9.8813  -20.1838   23.1731 N.pl3   1  UNL1       -0.3267
     21 H          -9.9596  -20.7547   23.9714 H       1  UNL1        0.1472
     22 C         -11.0116  -20.1103   22.1898 C.3     1  UNL1        0.1137
     23 C         -12.6579  -18.1435   23.7458 C.3     1  UNL1        0.0307
     24 C         -12.2100  -17.8109   22.3534 C.ar    1  UNL1       -0.0245
     25 C         -12.5853  -16.4949   21.7390 C.ar    1  UNL1       -0.0045
     26 C         -12.1373  -16.1624   20.3466 C.ar    1  UNL1       -0.0007
     27 C         -11.3142  -17.1458   19.5686 C.ar    1  UNL1       -0.0045
     28 C         -10.9389  -18.4618   20.1829 C.ar    1  UNL1       -0.0245
     29 C         -10.1158  -19.4452   19.4049 C.3     1  UNL1        0.0307
     30 C         -11.3869  -18.7944   21.5754 C.ar    1  UNL1       -0.0105
@<TRIPOS>BOND
     1    23    24    1
     2    24    25   ar
     3    25    26   ar
     4    26    27   ar
     5    27    28   ar
     6    28    29    1
     7    28    30   ar
     8    30    22    1
     9    22    20    1
    10    20     1    1
    11     1     2   ar
    12     2     3   ar
    13     3    12    1
    14    12    13    2
    15    12    14   am
    16    14    16    1
    17    16    17    1
    18    17    18    1
    19     3     4   ar
    20     4     5   ar
    21     5     6   ar
    22     6     7    1
    23     6     8   ar
    24     8     9    1
    25     8    10   ar
    26    10    11   ar
    27    30    24   ar
    28    11     1   ar
    29    11     5   ar
    30    20    21    1
    31    14    15    1
    32    18    19    1
@<TRIPOS>MOLECULE
*****
 30 32 0 0 0
SMALL
GASTEIGER

@<TRIPOS>ATOM
      1 C          -7.1060  -18.4565   21.6739 C.ar    1  UNL1        0.0800
      2 C          -5.7627  -18.9129   21.1868 C.ar    1  UNL1        0.0234
      3 C          -4.5144  -18.4142   21.8524 C.ar    1  UNL1        0.0722
      4 C          -4.6094  -17.4590   23.0051 C.ar    1  UNL1        0.0857
      5 N          -5.9527  -17.0026   23.4921 N.ar    1  UNL1       -0.2917
      6 C          -6.3567  -16.0734   24.5982 C.ar    1  UNL1        0.0567
      7 C          -5.4261  -15.3472   25.5237 C.3     1  UNL1        0.0517
      8 C          -7.8547  -15.9978   24.6161 C.ar    1  UNL1        0.0730
      9 C          -8.6851  -15.1828   25.5629 C.3     1  UNL1        0.0534
     10 N          -8.3765  -16.8803   23.5212 N.ar    1  UNL1       -0.2299
     11 C          -7.2009  -17.5013   22.8265 C.ar    1  UNL1        0.1603
     12 C          -3.1711  -18.8706   21.3654 C.2     1  UNL1        0.2474
     13 O          -2.5856  -20.1546   21.8737 O.2     1  UNL1       -0.2701
     14 N          -2.4133  -18.0430   20.3699 N.am    1  UNL1       -0.2984
     15 H          -2.7977  -17.2003   20.0363 H       1  UNL1        0.1498
     16 C          -1.0701  -18.4994   19.8829 C.3     1  UNL1        0.1215
     17 C           0.1267  -17.6087   20.0392 C.3     1  UNL1        0.1583
     18 O           1.3124  -18.0775   20.8295 O.3     1  UNL1       -0.3802
     19 H           1.0612  -18.1769   21.7612 H       1  UNL1        0.2105
     20 N          -8.3543  -18.9552   21.0083 N.pl3   1  UNL1       -0.3267
     21 H          -8.5187  -18.7564   20.0582 H       1  UNL1        0.1472
     22 C          -9.3522  -19.7569   21.7903 C.3     1  UNL1        0.1137
     23 C         -10.0707  -19.8625   24.7011 C.3     1  UNL1        0.0307
     24 C         -10.9768  -19.1658   23.7297 C.ar    1  UNL1       -0.0245
     25 C         -12.2422  -18.5219   24.2137 C.ar    1  UNL1       -0.0045
     26 C         -13.1483  -17.8253   23.2424 C.ar    1  UNL1       -0.0007
     27 C         -12.7890  -17.7725   21.7870 C.ar    1  UNL1       -0.0045
     28 C         -11.5237  -18.4163   21.3029 C.ar    1  UNL1       -0.0245
     29 C         -11.1645  -18.3635   19.8476 C.3     1  UNL1        0.0307
     30 C         -10.6175  -19.1130   22.2743 C.ar    1  UNL1       -0.0105
@<TRIPOS>BOND
     1    23    24    1
     2    24    25   ar
     3    25    26   ar
     4    26    27   ar
     5    27    28   ar
     6    28    29    1
     7    28    30   ar
     8    30    22    1
     9    22    20    1
    10    20     1    1
    11     1     2   ar
    12     2     3   ar
    13     3    12    1
    14    12    13    2
    15    12    14   am
    16    14    16    1
    17    16    17    1
    18    17    18    1
    19     3     4   ar
    20     4     5   ar
    21     5     6   ar
    22     6     7    1
    23     6     8   ar
    24     8     9    1
    25     8    10   ar
    26    10    11   ar
    27    30    24   ar
    28    11     1   ar
    29    11     5   ar
    30    20    21    1
    31    14    15    1
    32    18    19    1
@<TRIPOS>MOLECULE
*****
 30 32 0 0 0
SMALL
GASTEIGER

@<TRIPOS>ATOM
      1 C          -7.7208  -18.4005   21.2224 C.ar    1  UNL1        0.0800
      2 C          -8.0351  -17.4233   22.3162 C.ar    1  UNL1        0.0234
      3 C          -6.9497  -16.9585   23.2413 C.ar    1  UNL1        0.0722
      4 C          -5.5500  -17.4707   23.0726 C.ar    1  UNL1        0.0857
      5 N          -5.2357  -18.4479   21.9788 N.ar    1  UNL1       -0.2917
      6 C          -3.9592  -19.1221   21.5715 C.ar    1  UNL1        0.0567
      7 C          -2.6212  -18.9457   22.2261 C.3     1  UNL1        0.0517
      8 C          -4.2557  -20.0037   20.3946 C.ar    1  UNL1        0.0730
      9 C          -3.2661  -20.8636   19.6657 C.3     1  UNL1        0.0534
     10 N          -5.7154  -19.8743   20.0746 N.ar    1  UNL1       -0.2299
     11 C          -6.3211  -18.9128   21.0538 C.ar    1  UNL1        0.1603
     12 C          -7.2640  -15.9813   24.3351 C.2     1  UNL1        0.2474
     13 O          -6.3788  -14.7903   24.5539 O.2     1  UNL1       -0.2701
     14 N          -8.4635  -16.1951   25.2100 N.am    1  UNL1       -0.2984
     15 H          -9.0444  -16.9768   25.0664 H       1  UNL1        0.1498
     16 C          -8.7778  -15.2180   26.3038 C.3     1  UNL1        0.1215
     17 C          -7.9531  -15.2039   27.5567 C.3     1  UNL1        0.1583
     18 O          -6.5797  -14.6009   27.5439 O.3     1  UNL1       -0.3802
     19 H          -5.9998  -15.1296   26.9738 H       1  UNL1        0.2105
     20 N          -8.8062  -18.8654   20.2973 N.pl3   1  UNL1       -0.3267
     21 H          -8.7312  -18.7025   19.3292 H       1  UNL1        0.1472
     22 C         -10.0059  -19.5785   20.8471 C.3     1  UNL1        0.1137
     23 C         -11.5975  -17.3286   19.6618 C.3     1  UNL1        0.0307
     24 C         -11.7940  -17.7106   21.0989 C.ar    1  UNL1       -0.0245
     25 C         -12.7864  -16.9677   21.9435 C.ar    1  UNL1       -0.0045
     26 C         -12.9830  -17.3497   23.3807 C.ar    1  UNL1       -0.0007
     27 C         -12.1872  -18.4746   23.9733 C.ar    1  UNL1       -0.0045
     28 C         -11.1948  -19.2175   23.1288 C.ar    1  UNL1       -0.0245
     29 C         -10.3990  -20.3425   23.7214 C.3     1  UNL1        0.0307
     30 C         -10.9982  -18.8356   21.6916 C.ar    1  UNL1       -0.0105
@<TRIPOS>BOND
     1    23    24    1
     2    24    25   ar
     3    25    26   ar
     4    26    27   ar
     5    27    28   ar
     6    28    29    1
     7    28    30   ar
     8    30    22    1
     9    22    20    1
    10    20     1    1
    11     1     2   ar
    12     2     3   ar
    13     3    12    1
    14    12    13    2
    15    12    14   am
    16    14    16    1
    17    16    17    1
    18    17    18    1
    19     3     4   ar
    20     4     5   ar
    21     5     6   ar
    22     6     7    1
    23     6     8   ar
    24     8     9    1
    25     8    10   ar
    26    10    11   ar
    27    30    24   ar
    28    11     1   ar
    29    11     5   ar
    30    20    21    1
    31    14    15    1
    32    18    19    1
@<TRIPOS>MOLECULE
*****
 30 32 0 0 0
SMALL
GASTEIGER

@<TRIPOS>ATOM
      1 C          -7.1218  -18.7898   21.9011 C.ar    1  UNL1        0.0800
      2 C          -6.9938  -17.8279   23.0449 C.ar    1  UNL1        0.0234
      3 C          -8.1139  -16.8802   23.3567 C.ar    1  UNL1        0.0722
      4 C          -9.3620  -16.8945   22.5248 C.ar    1  UNL1        0.0857
      5 N          -9.4900  -17.8565   21.3810 N.ar    1  UNL1       -0.2917
      6 C         -10.5917  -18.0997   20.3925 C.ar    1  UNL1        0.0567
      7 C         -11.9024  -17.3726   20.3366 C.3     1  UNL1        0.0517
      8 C         -10.1524  -19.1977   19.4698 C.ar    1  UNL1        0.0730
      9 C         -10.9470  -19.7614   18.3291 C.3     1  UNL1        0.0534
     10 N          -8.7793  -19.6331   19.8880 N.ar    1  UNL1       -0.2299
     11 C          -8.3699  -18.8041   21.0692 C.ar    1  UNL1        0.1603
     12 C          -7.9860  -15.9182   24.5005 C.2     1  UNL1        0.2474
     13 O          -7.5601  -14.5026   24.2459 O.2     1  UNL1       -0.2701
     14 N          -8.2840  -16.3717   25.8989 N.am    1  UNL1       -0.2984
     15 H          -8.5635  -17.3008   26.0660 H       1  UNL1        0.1498
     16 C          -8.1560  -15.4098   27.0427 C.3     1  UNL1        0.1215
     17 C          -6.7980  -14.9803   27.5132 C.3     1  UNL1        0.1583
     18 O          -5.8280  -14.3686   26.5462 O.3     1  UNL1       -0.3802
     19 H          -5.5692  -15.0302   25.8857 H       1  UNL1        0.2105
     20 N          -6.0017  -19.7376   21.5893 N.pl3   1  UNL1       -0.3267
     21 H          -6.1350  -20.4578   20.9315 H       1  UNL1        0.1472
     22 C          -4.6785  -19.5879   22.2797 C.3     1  UNL1        0.1137
     23 C          -3.7778  -17.2714   23.9598 C.3     1  UNL1        0.0307
     24 C          -3.2083  -17.4678   22.5861 C.ar    1  UNL1       -0.0245
     25 C          -2.1884  -16.5060   22.0524 C.ar    1  UNL1       -0.0045
     26 C          -1.6189  -16.7024   20.6788 C.ar    1  UNL1       -0.0007
     27 C          -2.0693  -17.8606   19.8387 C.ar    1  UNL1       -0.0045
     28 C          -3.0891  -18.8224   20.3723 C.ar    1  UNL1       -0.0245
     29 C          -3.5395  -19.9806   19.5322 C.3     1  UNL1        0.0307
     30 C          -3.6586  -18.6261   21.7461 C.ar    1  UNL1       -0.0105
@<TRIPOS>BOND
     1    23    24    1
     2    24    25   ar
     3    25    26   ar
     4    26    27   ar
     5    27    28   ar
     6    28    29    1
     7    28    30   ar
     8    30    22    1
     9    22    20    1
    10    20     1    1
    11     1     2   ar
    12     2     3   ar
    13     3    12    1
    14    12    13    2
    15    12    14   am
    16    14    16    1
    17    16    17    1
    18    17    18    1
    19     3     4   ar
    20     4     5   ar
    21     5     6   ar
    22     6     7    1
    23     6     8   ar
    24     8     9    1
    25     8    10   ar
    26    10    11   ar
    27    30    24   ar
    28    11     1   ar
    29    11     5   ar
    30    20    21    1
    31    14    15    1
    32    18    19    1
@<TRIPOS>MOLECULE
*****
 30 32 0 0 0
SMALL
GASTEIGER

@<TRIPOS>ATOM
      1 C         -14.9082   -6.4667   19.3764 C.ar    1  UNL1        0.0800
      2 C         -15.5142   -5.1161   19.6179 C.ar    1  UNL1        0.0234
      3 C         -17.0020   -4.9733   19.7440 C.ar    1  UNL1        0.0722
      4 C         -17.8839   -6.1812   19.6284 C.ar    1  UNL1        0.0857
      5 N         -17.2779   -7.5319   19.3869 N.ar    1  UNL1       -0.2917
      6 C         -17.8890   -8.8927   19.2297 C.ar    1  UNL1        0.0567
      7 C         -19.3533   -9.2134   19.2859 C.3     1  UNL1        0.0517
      8 C         -16.7789   -9.8765   19.0065 C.ar    1  UNL1        0.0730
      9 C         -16.9382  -11.3537   18.8004 C.3     1  UNL1        0.0534
     10 N         -15.4816   -9.1237   19.0258 N.ar    1  UNL1       -0.2299
     11 C         -15.7900   -7.6746   19.2608 C.ar    1  UNL1        0.1603
     12 C         -17.6081   -3.6226   19.9856 C.2     1  UNL1        0.2474
     13 O         -18.9972   -3.5123   20.5406 O.2     1  UNL1       -0.2701
     14 N         -16.8250   -2.3822   19.6720 N.am    1  UNL1       -0.2984
     15 H         -15.9133   -2.4547   19.3077 H       1  UNL1        0.1498
     16 C         -17.4311   -1.0316   19.9136 C.3     1  UNL1        0.1215
     17 C         -16.6078    0.0606   20.5295 C.3     1  UNL1        0.1583
     18 O         -17.2221    0.9842   21.5394 O.3     1  UNL1       -0.3802
     19 H         -17.9087    1.5198   21.1121 H       1  UNL1        0.2105
     20 N         -13.4203   -6.6096   19.2503 N.pl3   1  UNL1       -0.3267
     21 H         -13.0358   -7.4247   18.8542 H       1  UNL1        0.1472
     22 C         -12.5182   -5.5103   19.7278 C.3     1  UNL1        0.1137
     23 C         -10.1611   -7.1077   18.7832 C.3     1  UNL1        0.0307
     24 C         -10.3448   -5.6941   18.3164 C.ar    1  UNL1       -0.0245
     25 C          -9.3498   -5.0791   17.3772 C.ar    1  UNL1       -0.0045
     26 C          -9.5335   -3.6655   16.9104 C.ar    1  UNL1       -0.0007
     27 C         -10.7121   -2.8668   17.3827 C.ar    1  UNL1       -0.0045
     28 C         -11.7070   -3.4817   18.3218 C.ar    1  UNL1       -0.0245
     29 C         -12.8856   -2.6831   18.7941 C.3     1  UNL1        0.0307
     30 C         -11.5233   -4.8954   18.7887 C.ar    1  UNL1       -0.0105
@<TRIPOS>BOND
     1    23    24    1
     2    24    25   ar
     3    25    26   ar
     4    26    27   ar
     5    27    28   ar
     6    28    29    1
     7    28    30   ar
     8    30    22    1
     9    22    20    1
    10    20     1    1
    11     1     2   ar
    12     2     3   ar
    13     3    12    1
    14    12    13    2
    15    12    14   am
    16    14    16    1
    17    16    17    1
    18    17    18    1
    19     3     4   ar
    20     4     5   ar
    21     5     6   ar
    22     6     7    1
    23     6     8   ar
    24     8     9    1
    25     8    10   ar
    26    10    11   ar
    27    30    24   ar
    28    11     1   ar
    29    11     5   ar
    30    20    21    1
    31    14    15    1
    32    18    19    1
@<TRIPOS>MOLECULE
*****
 30 32 0 0 0
SMALL
GASTEIGER

@<TRIPOS>ATOM
      1 C          -6.7686  -19.2322   21.7487 C.ar    1  UNL1        0.0800
      2 C          -7.1695  -18.2838   22.8395 C.ar    1  UNL1        0.0234
      3 C          -8.5357  -17.6648   22.8304 C.ar    1  UNL1        0.0722
      4 C          -9.5011  -17.9942   21.7306 C.ar    1  UNL1        0.0857
      5 N          -9.1002  -18.9426   20.6398 N.ar    1  UNL1       -0.2917
      6 C          -9.8323  -19.4530   19.4342 C.ar    1  UNL1        0.0567
      7 C         -11.2324  -19.0922   19.0348 C.3     1  UNL1        0.0517
      8 C          -8.9184  -20.3874   18.6982 C.ar    1  UNL1        0.0730
      9 C          -9.2443  -21.1252   17.4334 C.3     1  UNL1        0.0534
     10 N          -7.6216  -20.4546   19.4489 N.ar    1  UNL1       -0.2299
     11 C          -7.7339  -19.5616   20.6489 C.ar    1  UNL1        0.1603
     12 C          -8.9367  -16.7163   23.9212 C.2     1  UNL1        0.2474
     13 O         -10.2496  -15.9952   23.8429 O.2     1  UNL1       -0.2701
     14 N          -8.0247  -16.4890   25.0901 N.am    1  UNL1       -0.2984
     15 H          -7.1629  -16.9623   25.1415 H       1  UNL1        0.1498
     16 C          -8.4256  -15.5406   26.1809 C.3     1  UNL1        0.1215
     17 C          -7.4481  -15.1836   27.2612 C.3     1  UNL1        0.1583
     18 O          -6.1005  -14.6318   26.9009 O.3     1  UNL1       -0.3802
     19 H          -5.5872  -15.3105   26.4353 H       1  UNL1        0.2105
     20 N          -5.4022  -19.8512   21.7577 N.pl3   1  UNL1       -0.3267
     21 H          -5.2136  -20.6360   21.1941 H       1  UNL1        0.1472
     22 C          -4.3233  -19.2745   22.6256 C.3     1  UNL1        0.1137
     23 C          -2.4716  -20.2832   20.4917 C.3     1  UNL1        0.0307
     24 C          -2.3670  -18.8640   20.9660 C.ar    1  UNL1       -0.0245
     25 C          -1.3365  -17.9492   20.3733 C.ar    1  UNL1       -0.0045
     26 C          -1.2319  -16.5300   20.8476 C.ar    1  UNL1       -0.0007
     27 C          -2.1578  -16.0256   21.9146 C.ar    1  UNL1       -0.0045
     28 C          -3.1882  -16.9404   22.5072 C.ar    1  UNL1       -0.0245
     29 C          -4.1140  -16.4361   23.5742 C.3     1  UNL1        0.0307
     30 C          -3.2928  -18.3597   22.0330 C.ar    1  UNL1       -0.0105
@<TRIPOS>BOND
     1    23    24    1
     2    24    25   ar
     3    25    26   ar
     4    26    27   ar
     5    27    28   ar
     6    28    29    1
     7    28    30   ar
     8    30    22    1
     9    22    20    1
    10    20     1    1
    11     1     2   ar
    12     2     3   ar
    13     3    12    1
    14    12    13    2
    15    12    14   am
    16    14    16    1
    17    16    17    1
    18    17    18    1
    19     3     4   ar
    20     4     5   ar
    21     5     6   ar
    22     6     7    1
    23     6     8   ar
    24     8     9    1
    25     8    10   ar
    26    10    11   ar
    27    30    24   ar
    28    11     1   ar
    29    11     5   ar
    30    20    21    1
    31    14    15    1
    32    18    19    1
@<TRIPOS>MOLECULE
*****
 30 32 0 0 0
SMALL
GASTEIGER

@<TRIPOS>ATOM
      1 C           4.3726   -3.0815   20.5093 C.ar    1  UNL1        0.0800
      2 C           5.2839   -3.8325   21.4343 C.ar    1  UNL1        0.0234
      3 C           5.3651   -3.4487   22.8820 C.ar    1  UNL1        0.0722
      4 C           4.5350   -2.3140   23.4048 C.ar    1  UNL1        0.0857
      5 N           3.6238   -1.5630   22.4799 N.ar    1  UNL1       -0.2917
      6 C           2.6927   -0.4089   22.7064 C.ar    1  UNL1        0.0567
      7 C           2.4593    0.2925   24.0116 C.3     1  UNL1        0.0517
      8 C           2.0361   -0.0794   21.3986 C.ar    1  UNL1        0.0730
      9 C           1.0307    1.0093   21.1664 C.3     1  UNL1        0.0534
     10 N           2.5613   -1.0299   20.3638 N.ar    1  UNL1       -0.2299
     11 C           3.5426   -1.9467   21.0321 C.ar    1  UNL1        0.1603
     12 C           6.2763   -4.1997   23.8071 C.2     1  UNL1        0.2474
     13 O           7.2617   -5.1852   23.2524 O.2     1  UNL1       -0.2701
     14 N           6.2021   -3.9651   25.2868 N.am    1  UNL1       -0.2984
     15 H           5.5554   -3.3183   25.6508 H       1  UNL1        0.1498
     16 C           7.1133   -4.7161   26.2118 C.3     1  UNL1        0.1215
     17 C           6.6219   -5.9485   26.9116 C.3     1  UNL1        0.1583
     18 O           5.4248   -5.8725   27.8124 O.3     1  UNL1       -0.3802
     19 H           5.6342   -5.3211   28.5825 H       1  UNL1        0.2105
     20 N           4.2914   -3.4653   19.0615 N.pl3   1  UNL1       -0.3267
     21 H           3.5192   -3.9788   18.7309 H       1  UNL1        0.1472
     22 C           5.3867   -3.0666   18.1173 C.3     1  UNL1        0.1137
     23 C           8.0523   -2.4633   19.3545 C.3     1  UNL1        0.0307
     24 C           7.2417   -1.3588   18.7439 C.ar    1  UNL1       -0.0245
     25 C           7.7638    0.0474   18.7519 C.ar    1  UNL1       -0.0045
     26 C           6.9532    1.1519   18.1413 C.ar    1  UNL1       -0.0007
     27 C           5.6204    0.8503   17.5227 C.ar    1  UNL1       -0.0045
     28 C           5.0982   -0.5558   17.5147 C.ar    1  UNL1       -0.0245
     29 C           3.7654   -0.8574   16.8961 C.3     1  UNL1        0.0307
     30 C           5.9089   -1.6604   18.1253 C.ar    1  UNL1       -0.0105
@<TRIPOS>BOND
     1    23    24    1
     2    24    25   ar
     3    25    26   ar
     4    26    27   ar
     5    27    28   ar
     6    28    29    1
     7    28    30   ar
     8    30    22    1
     9    22    20    1
    10    20     1    1
    11     1     2   ar
    12     2     3   ar
    13     3    12    1
    14    12    13    2
    15    12    14   am
    16    14    16    1
    17    16    17    1
    18    17    18    1
    19     3     4   ar
    20     4     5   ar
    21     5     6   ar
    22     6     7    1
    23     6     8   ar
    24     8     9    1
    25     8    10   ar
    26    10    11   ar
    27    30    24   ar
    28    11     1   ar
    29    11     5   ar
    30    20    21    1
    31    14    15    1
    32    18    19    1
@<TRIPOS>MOLECULE
*****
 30 32 0 0 0
SMALL
GASTEIGER

@<TRIPOS>ATOM
      1 C          -7.0977  -18.1476   22.3948 C.ar    1  UNL1        0.0800
      2 C          -5.6056  -18.2669   22.2990 C.ar    1  UNL1        0.0234
      3 C          -4.9820  -18.9473   21.1166 C.ar    1  UNL1        0.0722
      4 C          -5.8506  -19.5084   20.0300 C.ar    1  UNL1        0.0857
      5 N          -7.3428  -19.3891   20.1258 N.ar    1  UNL1       -0.2917
      6 C          -8.4463  -19.8419   19.2164 C.ar    1  UNL1        0.0567
      7 C          -8.2744  -20.5679   17.9150 C.3     1  UNL1        0.0517
      8 C          -9.7520  -19.4414   19.8367 C.ar    1  UNL1        0.0730
      9 C         -11.1150  -19.6965   19.2647 C.3     1  UNL1        0.0534
     10 N          -9.4554  -18.7410   21.1296 N.ar    1  UNL1       -0.2299
     11 C          -7.9663  -18.7087   21.3082 C.ar    1  UNL1        0.1603
     12 C          -3.4898  -19.0666   21.0207 C.2     1  UNL1        0.2474
     13 O          -2.8464  -20.4212   20.9862 O.2     1  UNL1       -0.2701
     14 N          -2.6411  -17.8314   20.9594 N.am    1  UNL1       -0.2984
     15 H          -3.0634  -16.9423   20.9820 H       1  UNL1        0.1498
     16 C          -1.1489  -17.9507   20.8635 C.3     1  UNL1        0.1215
     17 C          -0.4809  -17.9461   19.5205 C.3     1  UNL1        0.1583
     18 O          -1.3072  -17.8511   18.2722 O.3     1  UNL1       -0.3802
     19 H          -1.8488  -18.6507   18.1813 H       1  UNL1        0.2105
     20 N          -7.7214  -17.4672   23.5773 N.pl3   1  UNL1       -0.3267
     21 H          -7.3796  -17.6436   24.4835 H       1  UNL1        0.1472
     22 C          -8.8658  -16.5180   23.3789 C.3     1  UNL1        0.1137
     23 C          -9.7330  -18.4724   25.4833 C.3     1  UNL1        0.0307
     24 C         -10.7093  -18.0071   24.4439 C.ar    1  UNL1       -0.0245
     25 C         -12.1192  -18.5190   24.4566 C.ar    1  UNL1       -0.0045
     26 C         -13.0954  -18.0538   23.4172 C.ar    1  UNL1       -0.0007
     27 C         -12.6618  -17.0766   22.3650 C.ar    1  UNL1       -0.0045
     28 C         -11.2520  -16.5646   22.3522 C.ar    1  UNL1       -0.0245
     29 C         -10.8184  -15.5875   21.3001 C.3     1  UNL1        0.0307
     30 C         -10.2757  -17.0299   23.3917 C.ar    1  UNL1       -0.0105
@<TRIPOS>BOND
     1    23    24    1
     2    24    25   ar
     3    25    26   ar
     4    26    27   ar
     5    27    28   ar
     6    28    29    1
     7    28    30   ar
     8    30    22    1
     9    22    20    1
    10    20     1    1
    11     1     2   ar
    12     2     3   ar
    13     3    12    1
    14    12    13    2
    15    12    14   am
    16    14    16    1
    17    16    17    1
    18    17    18    1
    19     3     4   ar
    20     4     5   ar
    21     5     6   ar
    22     6     7    1
    23     6     8   ar
    24     8     9    1
    25     8    10   ar
    26    10    11   ar
    27    30    24   ar
    28    11     1   ar
    29    11     5   ar
    30    20    21    1
    31    14    15    1
    32    18    19    1
@<TRIPOS>MOLECULE
*****
 30 32 0 0 0
SMALL
GASTEIGER

@<TRIPOS>ATOM
      1 C           3.6716   -2.5896   20.1912 C.ar    1  UNL1        0.0800
      2 C           2.6720   -1.4873   20.0018 C.ar    1  UNL1        0.0234
      3 C           2.3114   -0.5959   21.1529 C.ar    1  UNL1        0.0722
      4 C           2.9503   -0.8067   22.4936 C.ar    1  UNL1        0.0857
      5 N           3.9498   -1.9089   22.6831 N.ar    1  UNL1       -0.2917
      6 C           4.7381   -2.3545   23.8790 C.ar    1  UNL1        0.0567
      7 C           4.6874   -1.7409   25.2468 C.3     1  UNL1        0.0517
      8 C           5.5859   -3.5213   23.4669 C.ar    1  UNL1        0.0730
      9 C           6.5318   -4.2794   24.3504 C.3     1  UNL1        0.0534
     10 N           5.3216   -3.7969   22.0163 N.ar    1  UNL1       -0.2299
     11 C           4.3105   -2.8004   21.5319 C.ar    1  UNL1        0.1603
     12 C           1.3118    0.5064   20.9635 C.2     1  UNL1        0.2474
     13 O          -0.1036    0.1794   20.5900 O.2     1  UNL1       -0.2701
     14 N           1.7278    1.9358   21.1475 N.am    1  UNL1       -0.2984
     15 H           2.6568    2.1505   21.3926 H       1  UNL1        0.1498
     16 C           0.7283    3.0381   20.9580 C.3     1  UNL1        0.1215
     17 C          -0.5636    3.0182   21.7199 C.3     1  UNL1        0.1583
     18 O          -1.8297    2.5907   21.0384 O.3     1  UNL1       -0.3802
     19 H          -2.0581    3.2329   20.3482 H       1  UNL1        0.2105
     20 N           4.0322   -3.4811   19.0400 N.pl3   1  UNL1       -0.3267
     21 H           3.4948   -4.2843   18.8522 H       1  UNL1        0.1472
     22 C           5.2118   -3.1488   18.1750 C.3     1  UNL1        0.1137
     23 C           3.8511   -0.9157   16.7047 C.3     1  UNL1        0.0307
     24 C           5.1157   -0.6510   17.4666 C.ar    1  UNL1       -0.0245
     25 C           5.7000    0.7303   17.4934 C.ar    1  UNL1       -0.0045
     26 C           6.9647    0.9950   18.2553 C.ar    1  UNL1       -0.0007
     27 C           7.6450   -0.1215   18.9905 C.ar    1  UNL1       -0.0045
     28 C           7.0608   -1.5028   18.9637 C.ar    1  UNL1       -0.0245
     29 C           7.7411   -2.6193   19.6989 C.3     1  UNL1        0.0307
     30 C           5.7961   -1.7676   18.2018 C.ar    1  UNL1       -0.0105
@<TRIPOS>BOND
     1    23    24    1
     2    24    25   ar
     3    25    26   ar
     4    26    27   ar
     5    27    28   ar
     6    28    29    1
     7    28    30   ar
     8    30    22    1
     9    22    20    1
    10    20     1    1
    11     1     2   ar
    12     2     3   ar
    13     3    12    1
    14    12    13    2
    15    12    14   am
    16    14    16    1
    17    16    17    1
    18    17    18    1
    19     3     4   ar
    20     4     5   ar
    21     5     6   ar
    22     6     7    1
    23     6     8   ar
    24     8     9    1
    25     8    10   ar
    26    10    11   ar
    27    30    24   ar
    28    11     1   ar
    29    11     5   ar
    30    20    21    1
    31    14    15    1
    32    18    19    1
