@<TRIPOS>MOLECULE
*****
 30 32 0 0 0
SMALL
GASTEIGER

@<TRIPOS>ATOM
      1 C          -9.0263  -16.9039   25.5056 C.ar    1  UNL1        0.1366
      2 C          -8.7620  -16.9290   26.9820 C.ar    1  UNL1        0.0552
      3 C          -7.5166  -16.2993   27.5318 C.ar    1  UNL1        0.1047
      4 N          -6.5354  -15.6444   26.6053 N.ar    1  UNL1       -0.2119
      5 C          -6.7996  -15.6193   25.1290 C.ar    1  UNL1        0.2218
      6 N          -8.0451  -16.2490   24.5791 N.ar    1  UNL1       -0.1985
      7 N         -10.2717  -17.5336   24.9557 N.pl3   1  UNL1       -0.2983
      8 H         -11.0776  -17.6024   25.5170 H       1  UNL1        0.1536
      9 C         -11.0948  -15.7412   22.6952 C.3     1  UNL1        0.0323
     10 C         -10.7008  -17.1622   22.4204 C.ar    1  UNL1       -0.0087
     11 C         -10.7184  -17.6870   21.0153 C.ar    1  UNL1       -0.0030
     12 C         -10.3244  -19.1080   20.7405 C.ar    1  UNL1        0.0001
     13 C          -9.9129  -20.0042   21.8707 C.ar    1  UNL1       -0.0030
     14 C          -9.8953  -19.4794   23.2757 C.ar    1  UNL1       -0.0087
     15 C          -9.4837  -20.3756   24.4060 C.3     1  UNL1        0.0323
     16 C         -10.2893  -18.0584   23.5506 C.ar    1  UNL1        0.0413
     17 C         -10.3420  -19.6328   19.3353 C.2     1  UNL1        0.0109
     18 C          -9.1722  -20.4117   18.8109 C.2     1  UNL1        0.0780
     19 C          -9.1898  -20.9365   17.4059 C.1     1  UNL1        0.1011
     20 N          -9.2073  -21.4612   16.0007 N.1     1  UNL1       -0.1908
     21 N          -5.8184  -14.9644   24.2024 N.pl3   1  UNL1       -0.2825
     22 H          -5.8310  -13.9873   24.0828 H       1  UNL1        0.1551
     23 C          -4.8180  -15.7983   23.4583 C.ar    1  UNL1        0.0505
     24 C          -4.9319  -17.2940   23.4695 C.ar    1  UNL1        0.0154
     25 C          -3.9315  -18.1279   22.7253 C.ar    1  UNL1        0.0115
     26 C          -2.8172  -17.4662   21.9699 C.ar    1  UNL1        0.0685
     27 C          -2.7034  -15.9705   21.9587 C.ar    1  UNL1        0.0115
     28 C          -3.7038  -15.1366   22.7029 C.ar    1  UNL1        0.0154
     29 C          -1.8168  -18.3001   21.2257 C.1     1  UNL1        0.1004
     30 N          -0.8164  -19.1340   20.4815 N.1     1  UNL1       -0.1908
@<TRIPOS>BOND
     1     9    10    1
     2    10    11   ar
     3    11    12   ar
     4    12    17    1
     5    17    18    2
     6    18    19    1
     7    19    20    3
     8    12    13   ar
     9    13    14   ar
    10    14    15    1
    11    14    16   ar
    12    16     7    1
    13     7     1    1
    14     1     2   ar
    15     2     3   ar
    16     3     4   ar
    17     4     5   ar
    18     5    21    1
    19    21    23    1
    20    23    24   ar
    21    24    25   ar
    22    25    26   ar
    23    26    29    1
    24    29    30    3
    25    26    27   ar
    26    27    28   ar
    27     5     6   ar
    28    16    10   ar
    29     6     1   ar
    30    28    23   ar
    31     7     8    1
    32    21    22    1
@<TRIPOS>MOLECULE
*****
 30 32 0 0 0
SMALL
GASTEIGER

@<TRIPOS>ATOM
      1 C         -10.6308   -4.2216   18.1397 C.ar    1  UNL1        0.1366
      2 C          -9.4893   -4.4866   17.2033 C.ar    1  UNL1        0.0552
      3 C          -9.1199   -3.4696   16.1645 C.ar    1  UNL1        0.1047
      4 N          -9.8920   -2.1876   16.0620 N.ar    1  UNL1       -0.2119
      5 C         -11.0334   -1.9226   16.9984 C.ar    1  UNL1        0.2218
      6 N         -11.4028   -2.9396   18.0373 N.ar    1  UNL1       -0.1985
      7 N         -11.0003   -5.2386   19.1786 N.pl3   1  UNL1       -0.2983
      8 H         -10.3835   -5.4295   19.9218 H       1  UNL1        0.1536
      9 C         -11.2130   -7.7428   17.5404 C.3     1  UNL1        0.0323
     10 C         -12.4159   -7.2168   18.2659 C.ar    1  UNL1       -0.0087
     11 C         -13.7251   -7.9428   18.1724 C.ar    1  UNL1       -0.0030
     12 C         -14.9279   -7.4168   18.8980 C.ar    1  UNL1        0.0001
     13 C         -14.8216   -6.1648   19.7171 C.ar    1  UNL1       -0.0030
     14 C         -13.5124   -5.4387   19.8106 C.ar    1  UNL1       -0.0087
     15 C         -13.4060   -4.1866   20.6298 C.3     1  UNL1        0.0323
     16 C         -12.3095   -5.9647   19.0850 C.ar    1  UNL1        0.0413
     17 C         -16.2372   -8.1430   18.8045 C.2     1  UNL1        0.0109
     18 C         -17.2861   -7.9365   19.8566 C.2     1  UNL1        0.0780
     19 C         -18.5953   -8.6626   19.7631 C.1     1  UNL1        0.1011
     20 N         -19.9046   -9.3888   19.6697 N.1     1  UNL1       -0.1908
     21 N         -11.8055   -0.6406   16.8960 N.pl3   1  UNL1       -0.2825
     22 H         -11.4810    0.0843   16.3141 H       1  UNL1        0.1551
     23 C         -13.0718   -0.4630   17.6801 C.ar    1  UNL1        0.0505
     24 C         -13.9737   -1.6366   17.9240 C.ar    1  UNL1        0.0154
     25 C         -15.2400   -1.4590   18.7082 C.ar    1  UNL1        0.0115
     26 C         -15.6044   -0.1079   19.2484 C.ar    1  UNL1        0.0685
     27 C         -14.7025    1.0655   19.0045 C.ar    1  UNL1        0.0115
     28 C         -13.4362    0.8880   18.2204 C.ar    1  UNL1        0.0154
     29 C         -16.8708    0.0696   20.0326 C.1     1  UNL1        0.1004
     30 N         -18.1371    0.2472   20.8167 N.1     1  UNL1       -0.1908
@<TRIPOS>BOND
     1     9    10    1
     2    10    11   ar
     3    11    12   ar
     4    12    17    1
     5    17    18    2
     6    18    19    1
     7    19    20    3
     8    12    13   ar
     9    13    14   ar
    10    14    15    1
    11    14    16   ar
    12    16     7    1
    13     7     1    1
    14     1     2   ar
    15     2     3   ar
    16     3     4   ar
    17     4     5   ar
    18     5    21    1
    19    21    23    1
    20    23    24   ar
    21    24    25   ar
    22    25    26   ar
    23    26    29    1
    24    29    30    3
    25    26    27   ar
    26    27    28   ar
    27     5     6   ar
    28    16    10   ar
    29     6     1   ar
    30    28    23   ar
    31     7     8    1
    32    21    22    1
@<TRIPOS>MOLECULE
*****
 30 32 0 0 0
SMALL
GASTEIGER

@<TRIPOS>ATOM
      1 C         -11.7696   -1.5726   18.5164 C.ar    1  UNL1        0.1366
      2 C         -10.6841   -1.0604   17.6167 C.ar    1  UNL1        0.0552
      3 C         -10.9689    0.0597   16.6605 C.ar    1  UNL1        0.1047
      4 N         -12.3391    0.6675   16.6039 N.ar    1  UNL1       -0.2119
      5 C         -13.4245    0.1552   17.5036 C.ar    1  UNL1        0.2218
      6 N         -13.1398   -0.9649   18.4598 N.ar    1  UNL1       -0.1985
      7 N         -11.4849   -2.6927   19.4726 N.pl3   1  UNL1       -0.2983
      8 H         -10.8886   -2.5437   20.2418 H       1  UNL1        0.1536
      9 C         -14.0615   -3.3893   20.8423 C.3     1  UNL1        0.0323
     10 C         -13.3969   -4.3880   19.9418 C.ar    1  UNL1       -0.0087
     11 C         -14.0206   -5.7350   19.7262 C.ar    1  UNL1       -0.0030
     12 C         -13.3560   -6.7338   18.8257 C.ar    1  UNL1        0.0001
     13 C         -12.0677   -6.3855   18.1409 C.ar    1  UNL1       -0.0030
     14 C         -11.4440   -5.0385   18.3566 C.ar    1  UNL1       -0.0087
     15 C         -10.1557   -4.6902   17.6717 C.3     1  UNL1        0.0323
     16 C         -12.1086   -4.0398   19.2570 C.ar    1  UNL1        0.0413
     17 C         -13.9797   -8.0809   18.6101 C.2     1  UNL1        0.0109
     18 C         -15.4253   -8.3002   18.9449 C.2     1  UNL1        0.0780
     19 C         -16.0491   -9.6472   18.7293 C.1     1  UNL1        0.1011
     20 N         -16.6728  -10.9943   18.5137 N.1     1  UNL1       -0.1908
     21 N         -14.7947    0.7630   17.4470 N.pl3   1  UNL1       -0.2825
     22 H         -15.2042    0.9737   16.5769 H       1  UNL1        0.1551
     23 C         -15.5410    1.0495   18.7162 C.ar    1  UNL1        0.0505
     24 C         -15.4818    2.4177   19.3285 C.ar    1  UNL1        0.0154
     25 C         -16.2281    2.7043   20.5977 C.ar    1  UNL1        0.0115
     26 C         -17.0336    1.6227   21.2547 C.ar    1  UNL1        0.0685
     27 C         -17.0928    0.2547   20.6424 C.ar    1  UNL1        0.0115
     28 C         -16.3466   -0.0319   19.3732 C.ar    1  UNL1        0.0154
     29 C         -17.7799    1.9093   22.5239 C.1     1  UNL1        0.1004
     30 N         -18.5262    2.1959   23.7931 N.1     1  UNL1       -0.1908
@<TRIPOS>BOND
     1     9    10    1
     2    10    11   ar
     3    11    12   ar
     4    12    17    1
     5    17    18    2
     6    18    19    1
     7    19    20    3
     8    12    13   ar
     9    13    14   ar
    10    14    15    1
    11    14    16   ar
    12    16     7    1
    13     7     1    1
    14     1     2   ar
    15     2     3   ar
    16     3     4   ar
    17     4     5   ar
    18     5    21    1
    19    21    23    1
    20    23    24   ar
    21    24    25   ar
    22    25    26   ar
    23    26    29    1
    24    29    30    3
    25    26    27   ar
    26    27    28   ar
    27     5     6   ar
    28    16    10   ar
    29     6     1   ar
    30    28    23   ar
    31     7     8    1
    32    21    22    1
@<TRIPOS>MOLECULE
*****
 30 32 0 0 0
SMALL
GASTEIGER

@<TRIPOS>ATOM
      1 C          -0.6086    3.5431   20.3819 C.ar    1  UNL1        0.1366
      2 C          -0.7918    4.3562   19.1348 C.ar    1  UNL1        0.0552
      3 C          -2.1640    4.5509   18.5612 C.ar    1  UNL1        0.1047
      4 N          -3.3531    3.9325   19.2349 N.ar    1  UNL1       -0.2119
      5 C          -3.1699    3.1194   20.4820 C.ar    1  UNL1        0.2218
      6 N          -1.7976    2.9247   21.0555 N.ar    1  UNL1       -0.1985
      7 N           0.7637    3.3484   20.9555 N.pl3   1  UNL1       -0.2983
      8 H           1.2225    4.0978   21.3995 H       1  UNL1        0.1536
      9 C           2.2428    2.6025   18.4543 C.3     1  UNL1        0.0323
     10 C           2.1764    1.6390   19.6020 C.ar    1  UNL1       -0.0087
     11 C           2.8496    0.3025   19.4991 C.ar    1  UNL1       -0.0030
     12 C           2.7833   -0.6610   20.6468 C.ar    1  UNL1        0.0001
     13 C           2.0438   -0.2881   21.8973 C.ar    1  UNL1       -0.0030
     14 C           1.3706    1.0484   22.0002 C.ar    1  UNL1       -0.0087
     15 C           0.6311    1.4214   23.2509 C.3     1  UNL1        0.0323
     16 C           1.4369    2.0119   20.8525 C.ar    1  UNL1        0.0413
     17 C           3.4565   -1.9976   20.5438 C.2     1  UNL1        0.0109
     18 C           3.3516   -2.7946   19.2774 C.2     1  UNL1        0.0780
     19 C           4.0248   -4.1311   19.1744 C.1     1  UNL1        0.1011
     20 N           4.6979   -5.4676   19.0714 N.1     1  UNL1       -0.1908
     21 N          -4.3590    2.5010   21.1556 N.pl3   1  UNL1       -0.2825
     22 H          -4.6160    1.5738   20.9469 H       1  UNL1        0.1551
     23 C          -5.1564    3.2952   22.1472 C.ar    1  UNL1        0.0505
     24 C          -6.3017    4.1442   21.6806 C.ar    1  UNL1        0.0154
     25 C          -7.0992    4.9385   22.6722 C.ar    1  UNL1        0.0115
     26 C          -6.7513    4.8837   24.1303 C.ar    1  UNL1        0.0685
     27 C          -5.6061    4.0348   24.5968 C.ar    1  UNL1        0.0115
     28 C          -4.8086    3.2405   23.6052 C.ar    1  UNL1        0.0154
     29 C          -7.5488    5.6780   25.1219 C.1     1  UNL1        0.1004
     30 N          -8.3462    6.4723   26.1135 N.1     1  UNL1       -0.1908
@<TRIPOS>BOND
     1     9    10    1
     2    10    11   ar
     3    11    12   ar
     4    12    17    1
     5    17    18    2
     6    18    19    1
     7    19    20    3
     8    12    13   ar
     9    13    14   ar
    10    14    15    1
    11    14    16   ar
    12    16     7    1
    13     7     1    1
    14     1     2   ar
    15     2     3   ar
    16     3     4   ar
    17     4     5   ar
    18     5    21    1
    19    21    23    1
    20    23    24   ar
    21    24    25   ar
    22    25    26   ar
    23    26    29    1
    24    29    30    3
    25    26    27   ar
    26    27    28   ar
    27     5     6   ar
    28    16    10   ar
    29     6     1   ar
    30    28    23   ar
    31     7     8    1
    32    21    22    1
@<TRIPOS>MOLECULE
*****
 30 32 0 0 0
SMALL
GASTEIGER

@<TRIPOS>ATOM
      1 C          -0.6993    3.5619   20.2380 C.ar    1  UNL1        0.1366
      2 C          -0.9494    4.3940   19.0152 C.ar    1  UNL1        0.0552
      3 C          -2.3509    4.5992   18.5214 C.ar    1  UNL1        0.1047
      4 N          -3.5023    3.9723   19.2505 N.ar    1  UNL1       -0.2119
      5 C          -3.2521    3.1403   20.4732 C.ar    1  UNL1        0.2218
      6 N          -1.8507    2.9351   20.9670 N.ar    1  UNL1       -0.1985
      7 N           0.7021    3.3568   20.7318 N.pl3   1  UNL1       -0.2983
      8 H           1.1261    4.0351   21.3056 H       1  UNL1        0.1536
      9 C           0.5611    0.9190   22.4747 C.3     1  UNL1        0.0323
     10 C           1.3870    0.8991   21.2228 C.ar    1  UNL1       -0.0087
     11 C           2.1424   -0.3396   20.8422 C.ar    1  UNL1       -0.0030
     12 C           2.9684   -0.3595   19.5903 C.ar    1  UNL1        0.0001
     13 C           3.0389    0.8593   18.7188 C.ar    1  UNL1       -0.0030
     14 C           2.2835    2.0980   19.0994 C.ar    1  UNL1       -0.0087
     15 C           2.3540    3.3170   18.2279 C.3     1  UNL1        0.0323
     16 C           1.4576    2.1179   20.3513 C.ar    1  UNL1        0.0413
     17 C           3.7238   -1.5983   19.2098 C.2     1  UNL1        0.0109
     18 C           3.2511   -2.9405   19.6843 C.2     1  UNL1        0.0780
     19 C           4.0065   -4.1793   19.3038 C.1     1  UNL1        0.1011
     20 N           4.7619   -5.4181   18.9233 N.1     1  UNL1       -0.1908
     21 N          -4.4035    2.5134   21.2023 N.pl3   1  UNL1       -0.2825
     22 H          -4.6603    1.5827   21.0094 H       1  UNL1        0.1551
     23 C          -5.1637    3.3045   22.2252 C.ar    1  UNL1        0.0505
     24 C          -4.7641    3.2427   23.6697 C.ar    1  UNL1        0.0154
     25 C          -5.5242    4.0338   24.6926 C.ar    1  UNL1        0.0115
     26 C          -6.6839    4.8867   24.2710 C.ar    1  UNL1        0.0685
     27 C          -7.0835    4.9485   22.8265 C.ar    1  UNL1        0.0115
     28 C          -6.3233    4.1574   21.8036 C.ar    1  UNL1        0.0154
     29 C          -7.4440    5.6778   25.2939 C.1     1  UNL1        0.1004
     30 N          -8.2042    6.4690   26.3168 N.1     1  UNL1       -0.1908
@<TRIPOS>BOND
     1     9    10    1
     2    10    11   ar
     3    11    12   ar
     4    12    17    1
     5    17    18    2
     6    18    19    1
     7    19    20    3
     8    12    13   ar
     9    13    14   ar
    10    14    15    1
    11    14    16   ar
    12    16     7    1
    13     7     1    1
    14     1     2   ar
    15     2     3   ar
    16     3     4   ar
    17     4     5   ar
    18     5    21    1
    19    21    23    1
    20    23    24   ar
    21    24    25   ar
    22    25    26   ar
    23    26    29    1
    24    29    30    3
    25    26    27   ar
    26    27    28   ar
    27     5     6   ar
    28    16    10   ar
    29     6     1   ar
    30    28    23   ar
    31     7     8    1
    32    21    22    1
@<TRIPOS>MOLECULE
*****
 30 32 0 0 0
SMALL
GASTEIGER

@<TRIPOS>ATOM
      1 C           6.2621   -3.9174   21.8614 C.ar    1  UNL1        0.1366
      2 C           7.0150   -3.0767   20.8733 C.ar    1  UNL1        0.0552
      3 C           8.5150   -3.0737   20.8802 C.ar    1  UNL1        0.1047
      4 N           9.2621   -3.9115   21.8752 N.ar    1  UNL1       -0.2119
      5 C           8.5092   -4.7522   22.8633 C.ar    1  UNL1        0.2218
      6 N           7.0092   -4.7551   22.8564 N.ar    1  UNL1       -0.1985
      7 N           4.7621   -3.9204   21.8546 N.pl3   1  UNL1       -0.2983
      8 H           4.2701   -4.7212   22.1475 H       1  UNL1        0.1536
      9 C           3.8291   -3.7054   19.0115 C.3     1  UNL1        0.0323
     10 C           3.5453   -2.5956   19.9799 C.ar    1  UNL1       -0.0087
     11 C           2.7950   -1.3784   19.5268 C.ar    1  UNL1       -0.0030
     12 C           2.5112   -0.2686   20.4952 C.ar    1  UNL1        0.0001
     13 C           2.9777   -0.3760   21.9167 C.ar    1  UNL1       -0.0030
     14 C           3.7280   -1.5933   22.3698 C.ar    1  UNL1       -0.0087
     15 C           4.1946   -1.7008   23.7914 C.3     1  UNL1        0.0323
     16 C           4.0118   -2.7031   21.4014 C.ar    1  UNL1        0.0413
     17 C           1.7609    0.9487   20.0420 C.2     1  UNL1        0.0109
     18 C           1.1455    0.9844   18.6745 C.2     1  UNL1        0.0780
     19 C           0.3952    2.2016   18.2213 C.1     1  UNL1        0.1011
     20 N          -0.3552    3.4189   17.7680 N.1     1  UNL1       -0.1908
     21 N           9.2563   -5.5900   23.8583 N.pl3   1  UNL1       -0.2825
     22 H          10.0571   -6.0895   23.5785 H       1  UNL1        0.1551
     23 C           8.7831   -5.6666   25.2797 C.ar    1  UNL1        0.0505
     24 C           8.0931   -6.9031   25.7749 C.ar    1  UNL1        0.0154
     25 C           7.6200   -6.9797   27.1962 C.ar    1  UNL1        0.0115
     26 C           7.8368   -5.8198   28.1224 C.ar    1  UNL1        0.0685
     27 C           8.5267   -4.5834   27.6272 C.ar    1  UNL1        0.0115
     28 C           8.9999   -4.5068   26.2059 C.ar    1  UNL1        0.0154
     29 C           7.3636   -5.8964   29.5438 C.1     1  UNL1        0.1004
     30 N           6.8905   -5.9730   30.9651 N.1     1  UNL1       -0.1908
@<TRIPOS>BOND
     1     9    10    1
     2    10    11   ar
     3    11    12   ar
     4    12    17    1
     5    17    18    2
     6    18    19    1
     7    19    20    3
     8    12    13   ar
     9    13    14   ar
    10    14    15    1
    11    14    16   ar
    12    16     7    1
    13     7     1    1
    14     1     2   ar
    15     2     3   ar
    16     3     4   ar
    17     4     5   ar
    18     5    21    1
    19    21    23    1
    20    23    24   ar
    21    24    25   ar
    22    25    26   ar
    23    26    29    1
    24    29    30    3
    25    26    27   ar
    26    27    28   ar
    27     5     6   ar
    28    16    10   ar
    29     6     1   ar
    30    28    23   ar
    31     7     8    1
    32    21    22    1
@<TRIPOS>MOLECULE
*****
 30 32 0 0 0
SMALL
GASTEIGER

@<TRIPOS>ATOM
      1 C          -5.6266  -19.3419   20.5615 C.ar    1  UNL1        0.1366
      2 C          -4.4864  -20.1982   20.0957 C.ar    1  UNL1        0.0552
      3 C          -3.0864  -19.8869   20.5351 C.ar    1  UNL1        0.1047
      4 N          -2.8266  -18.7193   21.4403 N.ar    1  UNL1       -0.2119
      5 C          -3.9667  -17.8631   21.9061 C.ar    1  UNL1        0.2218
      6 N          -5.3667  -18.1745   21.4667 N.ar    1  UNL1       -0.1985
      7 N          -7.0266  -19.6533   20.1221 N.pl3   1  UNL1       -0.2983
      8 H          -7.2138  -19.8466   19.1751 H       1  UNL1        0.1536
      9 C          -6.5839  -20.8530   22.8360 C.3     1  UNL1        0.0323
     10 C          -7.9200  -20.2699   22.4826 C.ar    1  UNL1       -0.0087
     11 C          -9.0348  -20.2867   23.4860 C.ar    1  UNL1       -0.0030
     12 C         -10.3709  -19.7037   23.1326 C.ar    1  UNL1        0.0001
     13 C         -10.5922  -19.1039   21.7757 C.ar    1  UNL1       -0.0030
     14 C          -9.4775  -19.0871   20.7723 C.ar    1  UNL1       -0.0087
     15 C          -9.6988  -18.4872   19.4153 C.3     1  UNL1        0.0323
     16 C          -8.1414  -19.6701   21.1257 C.ar    1  UNL1        0.0413
     17 C         -11.4857  -19.7205   24.1362 C.2     1  UNL1        0.0109
     18 C         -12.4673  -18.5874   24.1858 C.2     1  UNL1        0.0780
     19 C         -13.5820  -18.6041   25.1892 C.1     1  UNL1        0.1011
     20 N         -14.6968  -18.6209   26.1928 N.1     1  UNL1       -0.1908
     21 N          -3.7069  -16.6955   22.8113 N.pl3   1  UNL1       -0.2825
     22 H          -2.8685  -16.1861   22.7293 H       1  UNL1        0.1551
     23 C          -4.7246  -16.3042   23.8414 C.ar    1  UNL1        0.0505
     24 C          -4.4306  -16.5020   25.2990 C.ar    1  UNL1        0.0154
     25 C          -5.4483  -16.1107   26.3292 C.ar    1  UNL1        0.0115
     26 C          -6.7599  -15.5216   25.9017 C.ar    1  UNL1        0.0685
     27 C          -7.0538  -15.3238   24.4442 C.ar    1  UNL1        0.0115
     28 C          -6.0361  -15.7151   23.4140 C.ar    1  UNL1        0.0154
     29 C          -7.7776  -15.1302   26.9319 C.1     1  UNL1        0.1004
     30 N          -8.7953  -14.7389   27.9620 N.1     1  UNL1       -0.1908
@<TRIPOS>BOND
     1     9    10    1
     2    10    11   ar
     3    11    12   ar
     4    12    17    1
     5    17    18    2
     6    18    19    1
     7    19    20    3
     8    12    13   ar
     9    13    14   ar
    10    14    15    1
    11    14    16   ar
    12    16     7    1
    13     7     1    1
    14     1     2   ar
    15     2     3   ar
    16     3     4   ar
    17     4     5   ar
    18     5    21    1
    19    21    23    1
    20    23    24   ar
    21    24    25   ar
    22    25    26   ar
    23    26    29    1
    24    29    30    3
    25    26    27   ar
    26    27    28   ar
    27     5     6   ar
    28    16    10   ar
    29     6     1   ar
    30    28    23   ar
    31     7     8    1
    32    21    22    1
@<TRIPOS>MOLECULE
*****
 30 32 0 0 0
SMALL
GASTEIGER

@<TRIPOS>ATOM
      1 C           6.4434   -3.3650   19.8812 C.ar    1  UNL1        0.1366
      2 C           7.3384   -2.1655   19.7786 C.ar    1  UNL1        0.0552
      3 C           8.7663   -2.2545   20.2292 C.ar    1  UNL1        0.1047
      4 N           9.2993   -3.5429   20.7826 N.ar    1  UNL1       -0.2119
      5 C           8.4043   -4.7422   20.8852 C.ar    1  UNL1        0.2218
      6 N           6.9764   -4.6532   20.4345 N.ar    1  UNL1       -0.1985
      7 N           5.0155   -3.2760   19.4305 N.pl3   1  UNL1       -0.2983
      8 H           4.6519   -3.9494   18.8113 H       1  UNL1        0.1536
      9 C           4.3028   -3.1023   22.3395 C.3     1  UNL1        0.0323
     10 C           3.7852   -2.0741   21.3778 C.ar    1  UNL1       -0.0087
     11 C           2.9114   -0.9590   21.8706 C.ar    1  UNL1       -0.0030
     12 C           2.3938    0.0693   20.9090 C.ar    1  UNL1        0.0001
     13 C           2.7500   -0.0176   19.4545 C.ar    1  UNL1       -0.0030
     14 C           3.6239   -1.1326   18.9617 C.ar    1  UNL1       -0.0087
     15 C           3.9803   -1.2195   17.5072 C.3     1  UNL1        0.0323
     16 C           4.1415   -2.1609   19.9234 C.ar    1  UNL1        0.0413
     17 C           1.5198    1.1844   21.4019 C.2     1  UNL1        0.0109
     18 C           0.1890    1.4352   20.7570 C.2     1  UNL1        0.0780
     19 C          -0.6850    2.5503   21.2498 C.1     1  UNL1        0.1011
     20 N          -1.5590    3.6653   21.7426 N.1     1  UNL1       -0.1908
     21 N           8.9372   -6.0306   21.4385 N.pl3   1  UNL1       -0.2825
     22 H           9.3596   -6.6868   20.8383 H       1  UNL1        0.1551
     23 C           8.8266   -6.3192   22.9064 C.ar    1  UNL1        0.0505
     24 C           8.0292   -5.4080   23.7918 C.ar    1  UNL1        0.0154
     25 C           7.9186   -5.6965   25.2596 C.ar    1  UNL1        0.0115
     26 C           8.6054   -6.8962   25.8420 C.ar    1  UNL1        0.0685
     27 C           9.4027   -7.8073   24.9566 C.ar    1  UNL1        0.0115
     28 C           9.5133   -7.5188   23.4887 C.ar    1  UNL1        0.0154
     29 C           8.4947   -7.1848   27.3098 C.1     1  UNL1        0.1004
     30 N           8.3841   -7.4733   28.7777 N.1     1  UNL1       -0.1908
@<TRIPOS>BOND
     1     9    10    1
     2    10    11   ar
     3    11    12   ar
     4    12    17    1
     5    17    18    2
     6    18    19    1
     7    19    20    3
     8    12    13   ar
     9    13    14   ar
    10    14    15    1
    11    14    16   ar
    12    16     7    1
    13     7     1    1
    14     1     2   ar
    15     2     3   ar
    16     3     4   ar
    17     4     5   ar
    18     5    21    1
    19    21    23    1
    20    23    24   ar
    21    24    25   ar
    22    25    26   ar
    23    26    29    1
    24    29    30    3
    25    26    27   ar
    26    27    28   ar
    27     5     6   ar
    28    16    10   ar
    29     6     1   ar
    30    28    23   ar
    31     7     8    1
    32    21    22    1
@<TRIPOS>MOLECULE
*****
 30 32 0 0 0
SMALL
GASTEIGER

@<TRIPOS>ATOM
      1 C           5.4739   -1.6922   20.2055 C.ar    1  UNL1        0.1366
      2 C           4.3424   -2.6708   20.0944 C.ar    1  UNL1        0.0552
      3 C           4.4382   -4.0077   20.7678 C.ar    1  UNL1        0.1047
      4 N           5.6655   -4.3661   21.5523 N.ar    1  UNL1       -0.2119
      5 C           6.7969   -3.3876   21.6634 C.ar    1  UNL1        0.2218
      6 N           6.7011   -2.0507   20.9900 N.ar    1  UNL1       -0.1985
      7 N           5.3781   -0.3553   19.5321 N.pl3   1  UNL1       -0.2983
      8 H           6.1743    0.0416   19.1104 H       1  UNL1        0.1536
      9 C           3.5571   -0.6370   17.1647 C.3     1  UNL1        0.0323
     10 C           3.1588    0.2360   18.3176 C.ar    1  UNL1       -0.0087
     11 C           1.8500    0.9682   18.2868 C.ar    1  UNL1       -0.0030
     12 C           1.4517    1.8412   19.4398 C.ar    1  UNL1        0.0001
     13 C           2.3622    1.9821   20.6234 C.ar    1  UNL1       -0.0030
     14 C           3.6710    1.2499   20.6542 C.ar    1  UNL1       -0.0087
     15 C           4.5815    1.3907   21.8379 C.3     1  UNL1        0.0323
     16 C           4.0693    0.3769   19.5013 C.ar    1  UNL1        0.0413
     17 C           0.1429    2.5734   19.4089 C.2     1  UNL1        0.0109
     18 C          -0.8143    2.4471   20.5569 C.2     1  UNL1        0.0780
     19 C          -2.1231    3.1792   20.5261 C.1     1  UNL1        0.1011
     20 N          -3.4320    3.9114   20.4954 N.1     1  UNL1       -0.1908
     21 N           8.0242   -3.7460   22.4479 N.pl3   1  UNL1       -0.2825
     22 H           8.8595   -3.2429   22.3122 H       1  UNL1        0.1551
     23 C           7.9787   -4.8709   23.4391 C.ar    1  UNL1        0.0505
     24 C           7.3464   -4.6611   24.7832 C.ar    1  UNL1        0.0154
     25 C           7.3009   -5.7860   25.7744 C.ar    1  UNL1        0.0115
     26 C           7.8877   -7.1207   25.4216 C.ar    1  UNL1        0.0685
     27 C           8.5200   -7.3304   24.0777 C.ar    1  UNL1        0.0115
     28 C           8.5655   -6.2055   23.0864 C.ar    1  UNL1        0.0154
     29 C           7.8423   -8.2456   26.4128 C.1     1  UNL1        0.1004
     30 N           7.7968   -9.3705   27.4041 N.1     1  UNL1       -0.1908
@<TRIPOS>BOND
     1     9    10    1
     2    10    11   ar
     3    11    12   ar
     4    12    17    1
     5    17    18    2
     6    18    19    1
     7    19    20    3
     8    12    13   ar
     9    13    14   ar
    10    14    15    1
    11    14    16   ar
    12    16     7    1
    13     7     1    1
    14     1     2   ar
    15     2     3   ar
    16     3     4   ar
    17     4     5   ar
    18     5    21    1
    19    21    23    1
    20    23    24   ar
    21    24    25   ar
    22    25    26   ar
    23    26    29    1
    24    29    30    3
    25    26    27   ar
    26    27    28   ar
    27     5     6   ar
    28    16    10   ar
    29     6     1   ar
    30    28    23   ar
    31     7     8    1
    32    21    22    1
