@<TRIPOS>MOLECULE
*****
 26 28 0 0 0
SMALL
GASTEIGER

@<TRIPOS>ATOM
      1 N          -8.1602  -17.7790   21.4719 N.3     1  UNL1       -0.1409
      2 C          -9.4820  -18.2458   20.9380 C.3     1  UNL1        0.0980
      3 C         -10.1048  -19.5892   21.1772 C.3     1  UNL1        0.0362
      4 C         -11.4208  -19.6248   20.4582 C.3     1  UNL1        0.0701
      5 N         -11.6113  -18.3032   19.7746 N.3     1  UNL1       -0.2963
      6 C         -10.4131  -17.4510   20.0711 C.3     1  UNL1        0.0866
      7 H         -12.4543  -17.8497   20.1268 H       1  UNL1        0.1233
      8 S          -6.9892  -18.7161   21.4990 S.O2    1  UNL1        0.1024
      9 O          -6.5623  -18.2217   20.1487 O.2     1  UNL1       -0.1408
     10 O          -7.4161  -19.2105   22.8492 O.2     1  UNL1       -0.1408
     11 C          -4.6587  -19.3783   22.4373 C.3     1  UNL1        0.1161
     12 N          -5.8182  -19.6530   21.5261 N.3     1  UNL1       -0.1424
     13 C          -5.8066  -20.8648   20.6422 C.3     1  UNL1        0.1161
     14 C          -8.0095  -16.3753   21.9786 C.3     1  UNL1        0.1232
     15 C          -7.6931  -16.1297   23.4242 C.ar    1  UNL1       -0.0044
     16 C          -6.3252  -15.6613   23.8235 C.ar    1  UNL1       -0.0029
     17 C          -6.0089  -15.4158   25.2691 C.ar    1  UNL1       -0.0003
     18 C          -7.0605  -15.6387   26.3153 C.ar    1  UNL1       -0.0000
     19 C          -8.4283  -16.1071   25.9160 C.ar    1  UNL1       -0.0003
     20 C          -8.7446  -16.3526   24.4704 C.ar    1  UNL1       -0.0026
     21 C         -10.1126  -16.8211   24.0711 C.ar    1  UNL1       -0.0003
     22 C         -10.9973  -15.9349   23.2452 C.ar    1  UNL1       -0.0000
     23 C         -12.3652  -16.4033   22.8458 C.ar    1  UNL1       -0.0000
     24 C         -12.8483  -17.7579   23.2723 C.ar    1  UNL1       -0.0000
     25 C         -11.9636  -18.6440   24.0982 C.ar    1  UNL1       -0.0000
     26 C         -10.5957  -18.1755   24.4975 C.ar    1  UNL1       -0.0000
@<TRIPOS>BOND
     1    11    12    1
     2    12    13    1
     3    12     8    1
     4     8     9    2
     5     8    10    2
     6     8     1    1
     7     1    14    1
     8    14    15    1
     9    15    16   ar
    10    16    17   ar
    11    17    18   ar
    12    18    19   ar
    13    19    20   ar
    14    20    21    1
    15    21    22   ar
    16    22    23   ar
    17    23    24   ar
    18    24    25   ar
    19    25    26   ar
    20     2     1    1
    21     2     3    1
    22     3     4    1
    23     4     5    1
    24     5     6    1
    25    20    15   ar
    26    26    21   ar
    27     6     2    1
    28     5     7    1
@<TRIPOS>MOLECULE
*****
 26 28 0 0 0
SMALL
GASTEIGER

@<TRIPOS>ATOM
      1 N          -8.3703  -17.8463   22.6342 N.3     1  UNL1       -0.1409
      2 C          -9.5289  -18.3090   23.4669 C.3     1  UNL1        0.0980
      3 C         -10.9315  -17.7817   23.3966 C.3     1  UNL1        0.0362
      4 C         -11.7578  -18.5270   24.4024 C.3     1  UNL1        0.0701
      5 N         -10.8660  -19.5148   25.0944 N.3     1  UNL1       -0.2963
      6 C          -9.4885  -19.3800   24.5163 C.3     1  UNL1        0.0866
      7 H         -11.2141  -20.4614   24.9423 H       1  UNL1        0.1233
      8 S          -7.8770  -18.6936   21.4988 S.O2    1  UNL1        0.1024
      9 O          -6.8422  -19.2991   22.4002 O.2     1  UNL1       -0.1408
     10 O          -8.9119  -18.0881   20.5975 O.2     1  UNL1       -0.1408
     11 C          -6.0286  -20.1792   20.4378 C.3     1  UNL1        0.1161
     12 N          -7.3839  -19.5407   20.3635 N.3     1  UNL1       -0.1424
     13 C          -8.2459  -19.7494   19.1539 C.3     1  UNL1        0.1161
     14 C          -7.7049  -16.5365   22.9367 C.3     1  UNL1        0.1232
     15 C          -7.4442  -16.1386   24.3594 C.ar    1  UNL1       -0.0044
     16 C          -8.5916  -15.8170   25.2704 C.ar    1  UNL1       -0.0029
     17 C          -8.3309  -15.4192   26.6930 C.ar    1  UNL1       -0.0003
     18 C          -6.9229  -15.3430   27.2045 C.ar    1  UNL1       -0.0000
     19 C          -5.7755  -15.6646   26.2934 C.ar    1  UNL1       -0.0003
     20 C          -6.0362  -16.0624   24.8709 C.ar    1  UNL1       -0.0026
     21 C          -4.8888  -16.3840   23.9597 C.ar    1  UNL1       -0.0003
     22 C          -4.3531  -17.7836   23.8936 C.ar    1  UNL1       -0.0000
     23 C          -3.2058  -18.1052   22.9825 C.ar    1  UNL1       -0.0000
     24 C          -2.5941  -17.0273   22.1374 C.ar    1  UNL1       -0.0000
     25 C          -3.1298  -15.6278   22.2035 C.ar    1  UNL1       -0.0000
     26 C          -4.2772  -15.3062   23.1147 C.ar    1  UNL1       -0.0000
@<TRIPOS>BOND
     1    11    12    1
     2    12    13    1
     3    12     8    1
     4     8     9    2
     5     8    10    2
     6     8     1    1
     7     1    14    1
     8    14    15    1
     9    15    16   ar
    10    16    17   ar
    11    17    18   ar
    12    18    19   ar
    13    19    20   ar
    14    20    21    1
    15    21    22   ar
    16    22    23   ar
    17    23    24   ar
    18    24    25   ar
    19    25    26   ar
    20     2     1    1
    21     2     3    1
    22     3     4    1
    23     4     5    1
    24     5     6    1
    25    20    15   ar
    26    26    21   ar
    27     6     2    1
    28     5     7    1
@<TRIPOS>MOLECULE
*****
 26 28 0 0 0
SMALL
GASTEIGER

@<TRIPOS>ATOM
      1 N          -8.4423  -17.0233   22.2107 N.3     1  UNL1       -0.1409
      2 C          -9.9174  -16.7625   22.1341 C.3     1  UNL1        0.0980
      3 C         -10.8736  -16.7604   23.2899 C.3     1  UNL1        0.0362
      4 C         -12.2425  -16.4547   22.7585 C.3     1  UNL1        0.0701
      5 N         -12.1324  -16.2678   21.2742 N.3     1  UNL1       -0.2963
      6 C         -10.6954  -16.4580   20.8884 C.3     1  UNL1        0.0866
      7 H         -12.4376  -15.3282   21.0201 H       1  UNL1        0.1233
      8 S          -7.8939  -18.3568   21.7969 S.O2    1  UNL1        0.1024
      9 O          -8.7529  -19.0295   22.8262 O.2     1  UNL1       -0.1408
     10 O          -7.0348  -17.6841   20.7676 O.2     1  UNL1       -0.1408
     11 C          -6.6902  -20.5794   22.3980 C.3     1  UNL1        0.1161
     12 N          -7.3455  -19.6902   21.3831 N.3     1  UNL1       -0.1424
     13 C          -7.4523  -20.1344   19.9544 C.3     1  UNL1        0.1161
     14 C          -7.5154  -15.9506   22.7010 C.3     1  UNL1        0.1232
     15 C          -7.2220  -15.8253   24.1667 C.ar    1  UNL1       -0.0044
     16 C          -8.3073  -15.4123   25.1162 C.ar    1  UNL1       -0.0029
     17 C          -8.0139  -15.2870   26.5819 C.ar    1  UNL1       -0.0003
     18 C          -6.6352  -15.5747   27.0980 C.ar    1  UNL1       -0.0000
     19 C          -5.5499  -15.9878   26.1485 C.ar    1  UNL1       -0.0003
     20 C          -5.8434  -16.1130   24.6829 C.ar    1  UNL1       -0.0026
     21 C          -4.7581  -16.5261   23.7333 C.ar    1  UNL1       -0.0003
     22 C          -3.9176  -15.4845   23.0561 C.ar    1  UNL1       -0.0000
     23 C          -2.8324  -15.8974   22.1065 C.ar    1  UNL1       -0.0000
     24 C          -2.5875  -17.3521   21.8342 C.ar    1  UNL1       -0.0000
     25 C          -3.4280  -18.3937   22.5115 C.ar    1  UNL1       -0.0000
     26 C          -4.5133  -17.9807   23.4610 C.ar    1  UNL1       -0.0000
@<TRIPOS>BOND
     1    11    12    1
     2    12    13    1
     3    12     8    1
     4     8     9    2
     5     8    10    2
     6     8     1    1
     7     1    14    1
     8    14    15    1
     9    15    16   ar
    10    16    17   ar
    11    17    18   ar
    12    18    19   ar
    13    19    20   ar
    14    20    21    1
    15    21    22   ar
    16    22    23   ar
    17    23    24   ar
    18    24    25   ar
    19    25    26   ar
    20     2     1    1
    21     2     3    1
    22     3     4    1
    23     4     5    1
    24     5     6    1
    25    20    15   ar
    26    26    21   ar
    27     6     2    1
    28     5     7    1
@<TRIPOS>MOLECULE
*****
 26 28 0 0 0
SMALL
GASTEIGER

@<TRIPOS>ATOM
      1 N          -6.7412  -18.6624   21.3905 N.3     1  UNL1       -0.1409
      2 C          -5.5920  -19.2924   20.6609 C.3     1  UNL1        0.0980
      3 C          -5.3617  -20.7638   20.4816 C.3     1  UNL1        0.0362
      4 C          -4.0986  -20.9425   19.6924 C.3     1  UNL1        0.0701
      5 N          -3.5483  -19.5815   19.3840 N.3     1  UNL1       -0.2963
      6 C          -4.4713  -18.5618   19.9826 C.3     1  UNL1        0.0866
      7 H          -3.4957  -19.4502   18.3739 H       1  UNL1        0.1233
      8 S          -6.4936  -17.5361   22.3498 S.O2    1  UNL1        0.1024
      9 O          -5.5053  -18.3856   23.0923 O.2     1  UNL1       -0.1408
     10 O          -7.4820  -16.6865   21.6073 O.2     1  UNL1       -0.1408
     11 C          -7.3570  -15.4644   23.6586 C.3     1  UNL1        0.1161
     12 N          -6.2461  -16.4098   23.3091 N.3     1  UNL1       -0.1424
     13 C          -4.8877  -16.2289   23.9188 C.3     1  UNL1        0.1161
     14 C          -8.1380  -19.1585   21.1608 C.3     1  UNL1        0.1232
     15 C          -9.0479  -19.4044   22.3277 C.ar    1  UNL1       -0.0044
     16 C          -8.6693  -20.4087   23.3755 C.ar    1  UNL1       -0.0029
     17 C          -9.5792  -20.6546   24.5423 C.ar    1  UNL1       -0.0003
     18 C         -10.8678  -19.8961   24.6613 C.ar    1  UNL1       -0.0000
     19 C         -11.2465  -18.8918   23.6135 C.ar    1  UNL1       -0.0003
     20 C         -10.3366  -18.6460   22.4467 C.ar    1  UNL1       -0.0026
     21 C         -10.7152  -17.6416   21.3988 C.ar    1  UNL1       -0.0003
     22 C         -11.3834  -18.0930   20.1340 C.ar    1  UNL1       -0.0000
     23 C         -11.7620  -17.0887   19.0862 C.ar    1  UNL1       -0.0000
     24 C         -11.4725  -15.6330   19.3031 C.ar    1  UNL1       -0.0000
     25 C         -10.8044  -15.1816   20.5680 C.ar    1  UNL1       -0.0000
     26 C         -10.4257  -16.1859   21.6158 C.ar    1  UNL1       -0.0000
@<TRIPOS>BOND
     1    11    12    1
     2    12    13    1
     3    12     8    1
     4     8     9    2
     5     8    10    2
     6     8     1    1
     7     1    14    1
     8    14    15    1
     9    15    16   ar
    10    16    17   ar
    11    17    18   ar
    12    18    19   ar
    13    19    20   ar
    14    20    21    1
    15    21    22   ar
    16    22    23   ar
    17    23    24   ar
    18    24    25   ar
    19    25    26   ar
    20     2     1    1
    21     2     3    1
    22     3     4    1
    23     4     5    1
    24     5     6    1
    25    20    15   ar
    26    26    21   ar
    27     6     2    1
    28     5     7    1
@<TRIPOS>MOLECULE
*****
 26 28 0 0 0
SMALL
GASTEIGER

@<TRIPOS>ATOM
      1 N         -12.3339   -5.4594   16.9141 N.3     1  UNL1       -0.1409
      2 C         -11.3931   -6.4642   17.5100 C.3     1  UNL1        0.0980
      3 C         -10.6506   -6.3171   18.8050 C.3     1  UNL1        0.0362
      4 C          -9.8282   -7.5545   19.0110 C.3     1  UNL1        0.0701
      5 N         -10.0624   -8.4664   17.8432 N.3     1  UNL1       -0.2963
      6 C         -11.0296   -7.7925   16.9156 C.3     1  UNL1        0.0866
      7 H         -10.4531   -9.3510   18.1677 H       1  UNL1        0.1233
      8 S         -11.8470   -4.0795   16.5841 S.O2    1  UNL1        0.1024
      9 O         -13.0910   -3.4965   17.1862 O.2     1  UNL1       -0.1408
     10 O         -10.6030   -4.6625   15.9820 O.2     1  UNL1       -0.1408
     11 C          -9.8965   -2.4527   16.0375 C.3     1  UNL1        0.1161
     12 N         -11.3600   -2.6997   16.2541 N.3     1  UNL1       -0.1424
     13 C         -12.3367   -1.5669   16.1408 C.3     1  UNL1        0.1161
     14 C         -13.7617   -5.8345   16.6481 C.3     1  UNL1        0.1232
     15 C         -14.4192   -6.9089   17.4626 C.ar    1  UNL1       -0.0044
     16 C         -14.4958   -8.3103   16.9333 C.ar    1  UNL1       -0.0029
     17 C         -15.1532   -9.3847   17.7478 C.ar    1  UNL1       -0.0003
     18 C         -15.7340   -9.0577   19.0916 C.ar    1  UNL1       -0.0000
     19 C         -15.6574   -7.6563   19.6208 C.ar    1  UNL1       -0.0003
     20 C         -15.0000   -6.5819   18.8063 C.ar    1  UNL1       -0.0026
     21 C         -14.9234   -5.1804   19.3356 C.ar    1  UNL1       -0.0003
     22 C         -15.9772   -4.1798   18.9640 C.ar    1  UNL1       -0.0000
     23 C         -15.9007   -2.7783   19.4931 C.ar    1  UNL1       -0.0000
     24 C         -14.7702   -2.3775   20.3940 C.ar    1  UNL1       -0.0000
     25 C         -13.7164   -3.3782   20.7656 C.ar    1  UNL1       -0.0000
     26 C         -13.7930   -4.7796   20.2364 C.ar    1  UNL1       -0.0000
@<TRIPOS>BOND
     1    11    12    1
     2    12    13    1
     3    12     8    1
     4     8     9    2
     5     8    10    2
     6     8     1    1
     7     1    14    1
     8    14    15    1
     9    15    16   ar
    10    16    17   ar
    11    17    18   ar
    12    18    19   ar
    13    19    20   ar
    14    20    21    1
    15    21    22   ar
    16    22    23   ar
    17    23    24   ar
    18    24    25   ar
    19    25    26   ar
    20     2     1    1
    21     2     3    1
    22     3     4    1
    23     4     5    1
    24     5     6    1
    25    20    15   ar
    26    26    21   ar
    27     6     2    1
    28     5     7    1
@<TRIPOS>MOLECULE
*****
 26 28 0 0 0
SMALL
GASTEIGER

@<TRIPOS>ATOM
      1 N         -11.9648   -4.8335   18.7066 N.3     1  UNL1       -0.1409
      2 C         -11.1501   -6.0809   18.5328 C.3     1  UNL1        0.0980
      3 C          -9.7544   -6.2998   19.0367 C.3     1  UNL1        0.0362
      4 C          -9.3298   -7.6826   18.6399 C.3     1  UNL1        0.0701
      5 N         -10.4632   -8.3184   17.8907 N.3     1  UNL1       -0.2963
      6 C         -11.5882   -7.3285   17.8245 C.3     1  UNL1        0.0866
      7 H         -10.7710   -9.1602   18.3776 H       1  UNL1        0.1233
      8 S         -11.7121   -3.6442   17.8280 S.O2    1  UNL1        0.1024
      9 O         -10.9817   -2.9696   18.9512 O.2     1  UNL1       -0.1408
     10 O         -12.4425   -4.3187   16.7049 O.2     1  UNL1       -0.1408
     11 C         -12.4852   -1.3651   16.8493 C.3     1  UNL1        0.1161
     12 N         -11.4595   -2.4549   16.9495 N.3     1  UNL1       -0.1424
     13 C         -10.1810   -2.3556   16.1712 C.3     1  UNL1        0.1161
     14 C         -13.0321   -4.7753   19.7589 C.3     1  UNL1        0.1232
     15 C         -14.2772   -3.9733   19.5207 C.ar    1  UNL1       -0.0044
     16 C         -14.3384   -2.5377   19.9511 C.ar    1  UNL1       -0.0029
     17 C         -15.5834   -1.7358   19.7129 C.ar    1  UNL1       -0.0003
     18 C         -16.7673   -2.3695   19.0444 C.ar    1  UNL1       -0.0000
     19 C         -16.7061   -3.8051   18.6140 C.ar    1  UNL1       -0.0003
     20 C         -15.4611   -4.6070   18.8522 C.ar    1  UNL1       -0.0026
     21 C         -15.3998   -6.0427   18.4218 C.ar    1  UNL1       -0.0003
     22 C         -15.1153   -6.3847   16.9893 C.ar    1  UNL1       -0.0000
     23 C         -15.0541   -7.8203   16.5589 C.ar    1  UNL1       -0.0000
     24 C         -15.2774   -8.9139   17.5611 C.ar    1  UNL1       -0.0000
     25 C         -15.5619   -8.5719   18.9936 C.ar    1  UNL1       -0.0000
     26 C         -15.6231   -7.1362   19.4239 C.ar    1  UNL1       -0.0000
@<TRIPOS>BOND
     1    11    12    1
     2    12    13    1
     3    12     8    1
     4     8     9    2
     5     8    10    2
     6     8     1    1
     7     1    14    1
     8    14    15    1
     9    15    16   ar
    10    16    17   ar
    11    17    18   ar
    12    18    19   ar
    13    19    20   ar
    14    20    21    1
    15    21    22   ar
    16    22    23   ar
    17    23    24   ar
    18    24    25   ar
    19    25    26   ar
    20     2     1    1
    21     2     3    1
    22     3     4    1
    23     4     5    1
    24     5     6    1
    25    20    15   ar
    26    26    21   ar
    27     6     2    1
    28     5     7    1
@<TRIPOS>MOLECULE
*****
 26 28 0 0 0
SMALL
GASTEIGER

@<TRIPOS>ATOM
      1 N          -7.9980  -18.6203   21.9657 N.3     1  UNL1       -0.1409
      2 C          -8.9760  -19.4931   22.6947 C.3     1  UNL1        0.0980
      3 C         -10.3219  -19.9219   22.1898 C.3     1  UNL1        0.0362
      4 C         -10.9576  -20.7843   23.2396 C.3     1  UNL1        0.0701
      5 N         -10.0046  -20.8885   24.3933 N.3     1  UNL1       -0.2963
      6 C          -8.7800  -20.0906   24.0565 C.3     1  UNL1        0.0866
      7 H          -9.7508  -21.8646   24.5454 H       1  UNL1        0.1233
      8 S          -6.5907  -19.0911   21.7468 S.O2    1  UNL1        0.1024
      9 O          -6.0782  -17.9337   22.5516 O.2     1  UNL1       -0.1408
     10 O          -7.1032  -20.2485   20.9420 O.2     1  UNL1       -0.1408
     11 C          -4.1168  -19.2288   22.5284 C.3     1  UNL1        0.1161
     12 N          -5.1835  -19.5620   21.5278 N.3     1  UNL1       -0.1424
     13 C          -4.8429  -20.3661   20.3082 C.3     1  UNL1        0.1161
     14 C          -8.4271  -17.2765   21.4556 C.3     1  UNL1        0.1232
     15 C          -9.8242  -16.7907   21.7054 C.ar    1  UNL1       -0.0044
     16 C         -10.8700  -16.9346   20.6398 C.ar    1  UNL1       -0.0029
     17 C         -12.2670  -16.4488   20.8896 C.ar    1  UNL1       -0.0003
     18 C         -12.6181  -15.8191   22.2049 C.ar    1  UNL1       -0.0000
     19 C         -11.5723  -15.6751   23.2705 C.ar    1  UNL1       -0.0003
     20 C         -10.1753  -16.1609   23.0207 C.ar    1  UNL1       -0.0026
     21 C          -9.1294  -16.0170   24.0863 C.ar    1  UNL1       -0.0003
     22 C          -7.9159  -15.1714   23.8367 C.ar    1  UNL1       -0.0000
     23 C          -6.8700  -15.0275   24.9023 C.ar    1  UNL1       -0.0000
     24 C          -7.0376  -15.7292   26.2174 C.ar    1  UNL1       -0.0000
     25 C          -8.2511  -16.5748   26.4670 C.ar    1  UNL1       -0.0000
     26 C          -9.2970  -16.7187   25.4014 C.ar    1  UNL1       -0.0000
@<TRIPOS>BOND
     1    11    12    1
     2    12    13    1
     3    12     8    1
     4     8     9    2
     5     8    10    2
     6     8     1    1
     7     1    14    1
     8    14    15    1
     9    15    16   ar
    10    16    17   ar
    11    17    18   ar
    12    18    19   ar
    13    19    20   ar
    14    20    21    1
    15    21    22   ar
    16    22    23   ar
    17    23    24   ar
    18    24    25   ar
    19    25    26   ar
    20     2     1    1
    21     2     3    1
    22     3     4    1
    23     4     5    1
    24     5     6    1
    25    20    15   ar
    26    26    21   ar
    27     6     2    1
    28     5     7    1
@<TRIPOS>MOLECULE
*****
 26 28 0 0 0
SMALL
GASTEIGER

@<TRIPOS>ATOM
      1 N         -14.2719   -3.2776   18.0201 N.3     1  UNL1       -0.1409
      2 C         -12.7779   -3.1688   18.0969 C.3     1  UNL1        0.0980
      3 C         -11.8025   -3.6936   17.0854 C.3     1  UNL1        0.0362
      4 C         -10.4186   -3.3653   17.5620 C.3     1  UNL1        0.0701
      5 N         -10.5388   -2.6376   18.8683 N.3     1  UNL1       -0.2963
      6 C         -11.9969   -2.5162   19.1988 C.3     1  UNL1        0.0866
      7 H         -10.1239   -1.7093   18.7868 H       1  UNL1        0.1233
      8 S         -15.1339   -2.2166   18.6378 S.O2    1  UNL1        0.1024
      9 O         -15.2202   -1.5161   17.3142 O.2     1  UNL1       -0.1408
     10 O         -15.0477   -2.9171   19.9613 O.2     1  UNL1       -0.1408
     11 C         -17.3509   -1.5092   19.7929 C.3     1  UNL1        0.1161
     12 N         -15.9959   -1.1558   19.2554 N.3     1  UNL1       -0.1424
     13 C         -15.5028    0.2586   19.3355 C.3     1  UNL1        0.1161
     14 C         -14.9040   -4.4473   17.3257 C.3     1  UNL1        0.1232
     15 C         -15.6626   -5.4699   18.1187 C.ar    1  UNL1       -0.0044
     16 C         -17.1015   -5.2314   18.4686 C.ar    1  UNL1       -0.0029
     17 C         -17.8600   -6.2540   19.2616 C.ar    1  UNL1       -0.0003
     18 C         -17.1795   -7.5152   19.7047 C.ar    1  UNL1       -0.0000
     19 C         -15.7406   -7.7538   19.3547 C.ar    1  UNL1       -0.0003
     20 C         -14.9821   -6.7312   18.5618 C.ar    1  UNL1       -0.0026
     21 C         -13.5431   -6.9697   18.2118 C.ar    1  UNL1       -0.0003
     22 C         -12.4642   -6.6155   19.1919 C.ar    1  UNL1       -0.0000
     23 C         -11.0253   -6.8540   18.8420 C.ar    1  UNL1       -0.0000
     24 C         -10.6651   -7.4467   17.5119 C.ar    1  UNL1       -0.0000
     25 C         -11.7440   -7.8009   16.5318 C.ar    1  UNL1       -0.0000
     26 C         -13.1830   -7.5623   16.8817 C.ar    1  UNL1       -0.0000
@<TRIPOS>BOND
     1    11    12    1
     2    12    13    1
     3    12     8    1
     4     8     9    2
     5     8    10    2
     6     8     1    1
     7     1    14    1
     8    14    15    1
     9    15    16   ar
    10    16    17   ar
    11    17    18   ar
    12    18    19   ar
    13    19    20   ar
    14    20    21    1
    15    21    22   ar
    16    22    23   ar
    17    23    24   ar
    18    24    25   ar
    19    25    26   ar
    20     2     1    1
    21     2     3    1
    22     3     4    1
    23     4     5    1
    24     5     6    1
    25    20    15   ar
    26    26    21   ar
    27     6     2    1
    28     5     7    1
@<TRIPOS>MOLECULE
*****
 26 28 0 0 0
SMALL
GASTEIGER

@<TRIPOS>ATOM
      1 N         -13.1991   -3.0049   18.0247 N.3     1  UNL1       -0.1409
      2 C         -14.2169   -3.3663   19.0656 C.3     1  UNL1        0.0980
      3 C         -15.6794   -3.5975   18.8258 C.3     1  UNL1        0.0362
      4 C         -16.3173   -3.9340   20.1410 C.3     1  UNL1        0.0701
      5 N         -15.2489   -3.9108   21.1937 N.3     1  UNL1       -0.2963
      6 C         -13.9508   -3.5599   20.5290 C.3     1  UNL1        0.0866
      7 H         -15.1759   -4.8284   21.6331 H       1  UNL1        0.1233
      8 S         -12.8033   -1.5714   17.8285 S.O2    1  UNL1        0.1024
      9 O         -11.8216   -1.6879   18.9566 O.2     1  UNL1       -0.1408
     10 O         -13.7851   -1.4548   16.7005 O.2     1  UNL1       -0.1408
     11 C         -11.0859    0.1965   17.0069 C.3     1  UNL1        0.1161
     12 N         -12.4077   -0.1379   17.6323 N.3     1  UNL1       -0.1424
     13 C         -13.3337    0.9612   18.0616 C.3     1  UNL1        0.1161
     14 C         -12.5770   -4.0770   17.1800 C.3     1  UNL1        0.1232
     15 C         -11.6109   -5.0478   17.7918 C.ar    1  UNL1       -0.0044
     16 C         -10.2099   -4.6141   18.1067 C.ar    1  UNL1       -0.0029
     17 C          -9.2439   -5.5849   18.7185 C.ar    1  UNL1       -0.0003
     18 C          -9.6788   -6.9894   19.0154 C.ar    1  UNL1       -0.0000
     19 C         -11.0798   -7.4231   18.7005 C.ar    1  UNL1       -0.0003
     20 C         -12.0458   -6.4523   18.0887 C.ar    1  UNL1       -0.0026
     21 C         -13.4468   -6.8861   17.7738 C.ar    1  UNL1       -0.0003
     22 C         -14.4643   -6.9900   18.8711 C.ar    1  UNL1       -0.0000
     23 C         -15.8652   -7.4236   18.5563 C.ar    1  UNL1       -0.0000
     24 C         -16.2488   -7.7534   17.1441 C.ar    1  UNL1       -0.0000
     25 C         -15.2314   -7.6495   16.0468 C.ar    1  UNL1       -0.0000
     26 C         -13.8304   -7.2158   16.3617 C.ar    1  UNL1       -0.0000
@<TRIPOS>BOND
     1    11    12    1
     2    12    13    1
     3    12     8    1
     4     8     9    2
     5     8    10    2
     6     8     1    1
     7     1    14    1
     8    14    15    1
     9    15    16   ar
    10    16    17   ar
    11    17    18   ar
    12    18    19   ar
    13    19    20   ar
    14    20    21    1
    15    21    22   ar
    16    22    23   ar
    17    23    24   ar
    18    24    25   ar
    19    25    26   ar
    20     2     1    1
    21     2     3    1
    22     3     4    1
    23     4     5    1
    24     5     6    1
    25    20    15   ar
    26    26    21   ar
    27     6     2    1
    28     5     7    1
