@<TRIPOS>MOLECULE
*****
 25 27 0 0 0
SMALL
GASTEIGER

@<TRIPOS>ATOM
      1 C          -8.2511  -17.8960   22.9496 C.ar    1  UNL1        0.1821
      2 O          -7.5797  -19.0025   22.1915 O.2     1  UNL1       -0.4500
      3 C          -6.1034  -18.9454   21.9317 C.ar    1  UNL1        0.1545
      4 C          -5.4319  -20.0519   21.1737 C.ar    1  UNL1        0.0744
      5 C          -3.9558  -19.9948   20.9138 C.ar    1  UNL1        0.1397
      6 O          -3.2842  -21.1014   20.1558 O.3     1  UNL1       -0.5053
      7 C          -3.1510  -18.8311   21.4120 C.ar    1  UNL1        0.0735
      8 C          -3.8225  -17.7245   22.1700 C.ar    1  UNL1        0.1428
      9 O          -3.0178  -16.5608   22.6682 O.3     1  UNL1       -0.5052
     10 C          -5.2987  -17.7817   22.4299 C.ar    1  UNL1        0.1104
     11 C          -5.9702  -16.6751   23.1879 C.ar    1  UNL1        0.2381
     12 O          -5.1655  -15.5114   23.6861 O.2     1  UNL1       -0.2830
     13 C          -7.4464  -16.7323   23.4477 C.ar    1  UNL1        0.2119
     14 H          -3.7869  -21.8283   19.8446 H       1  UNL1        0.2922
     15 H          -2.0957  -16.5251   22.5059 H       1  UNL1        0.2922
     16 C         -12.6798  -18.0674   23.7292 C.ar    1  UNL1        0.1387
     17 C         -12.1496  -17.2445   22.5926 C.ar    1  UNL1        0.0370
     18 C         -10.6734  -17.1873   22.3328 C.ar    1  UNL1        0.0062
     19 C          -9.7274  -17.9531   23.2094 C.ar    1  UNL1        0.0379
     20 C         -10.2576  -18.7760   24.3460 C.ar    1  UNL1        0.0062
     21 C         -11.7337  -18.8332   24.6059 C.ar    1  UNL1        0.0370
     22 C         -14.6637  -18.4438   25.3639 C.3     1  UNL1        0.2525
     23 O         -14.1560  -18.1245   23.9891 O.3     1  UNL1       -0.4714
     24 O          -8.1180  -15.6257   24.2058 O.3     1  UNL1       -0.4653
     25 C          -8.1455  -15.6529   25.7053 C.3     1  UNL1        0.2528
@<TRIPOS>BOND
     1    22    23    1
     2    23    16    1
     3    16    17   ar
     4    17    18   ar
     5    18    19   ar
     6    19     1    1
     7     1     2   ar
     8     2     3   ar
     9     3     4   ar
    10     4     5   ar
    11     5     6    1
    12     5     7   ar
    13     7     8   ar
    14     8     9    1
    15     8    10   ar
    16    10    11   ar
    17    11    12    2
    18    11    13   ar
    19    13    24    1
    20    24    25    1
    21    19    20   ar
    22    20    21   ar
    23    21    16   ar
    24    13     1   ar
    25    10     3   ar
    26     6    14    1
    27     9    15    1
@<TRIPOS>MOLECULE
*****
 25 27 0 0 0
SMALL
GASTEIGER

@<TRIPOS>ATOM
      1 C          -8.0303  -18.7873   22.1023 C.ar    1  UNL1        0.1821
      2 O          -6.8583  -18.1776   22.8128 O.2     1  UNL1       -0.4500
      3 C          -5.4615  -18.5353   22.3992 C.ar    1  UNL1        0.1545
      4 C          -4.2896  -17.9256   23.1096 C.ar    1  UNL1        0.0744
      5 C          -2.8929  -18.2833   22.6960 C.ar    1  UNL1        0.1397
      6 O          -1.7208  -17.6736   23.4065 O.3     1  UNL1       -0.5053
      7 C          -2.6681  -19.2507   21.5718 C.ar    1  UNL1        0.0735
      8 C          -3.8400  -19.8603   20.8614 C.ar    1  UNL1        0.1428
      9 O          -3.6152  -20.8277   19.7372 O.3     1  UNL1       -0.5052
     10 C          -5.2367  -19.5027   21.2750 C.ar    1  UNL1        0.1104
     11 C          -6.4087  -20.1124   20.5645 C.ar    1  UNL1        0.2381
     12 O          -6.1839  -21.0797   19.4404 O.2     1  UNL1       -0.2830
     13 C          -7.8055  -19.7547   20.9782 C.ar    1  UNL1        0.2119
     14 H          -1.8612  -17.0694   24.1087 H       1  UNL1        0.2922
     15 H          -2.7427  -21.0511   19.4788 H       1  UNL1        0.2922
     16 C         -12.2206  -17.7144   23.3433 C.ar    1  UNL1        0.1387
     17 C         -11.4782  -16.8413   22.3756 C.ar    1  UNL1        0.0370
     18 C         -10.0814  -17.1989   21.9619 C.ar    1  UNL1        0.0062
     19 C          -9.4271  -18.4296   22.5160 C.ar    1  UNL1        0.0379
     20 C         -10.1695  -19.3028   23.4837 C.ar    1  UNL1        0.0062
     21 C         -11.5663  -18.9452   23.8973 C.ar    1  UNL1        0.0370
     22 C         -14.3799  -18.2586   24.6817 C.3     1  UNL1        0.2525
     23 O         -13.6174  -17.3568   23.7569 O.3     1  UNL1       -0.4714
     24 O          -8.9775  -20.3644   20.2677 O.3     1  UNL1       -0.4653
     25 C          -9.5407  -19.7023   19.0452 C.3     1  UNL1        0.2528
@<TRIPOS>BOND
     1    22    23    1
     2    23    16    1
     3    16    17   ar
     4    17    18   ar
     5    18    19   ar
     6    19     1    1
     7     1     2   ar
     8     2     3   ar
     9     3     4   ar
    10     4     5   ar
    11     5     6    1
    12     5     7   ar
    13     7     8   ar
    14     8     9    1
    15     8    10   ar
    16    10    11   ar
    17    11    12    2
    18    11    13   ar
    19    13    24    1
    20    24    25    1
    21    19    20   ar
    22    20    21   ar
    23    21    16   ar
    24    13     1   ar
    25    10     3   ar
    26     6    14    1
    27     9    15    1
@<TRIPOS>MOLECULE
*****
 25 27 0 0 0
SMALL
GASTEIGER

@<TRIPOS>ATOM
      1 C          -8.8244  -18.7966   22.3419 C.ar    1  UNL1        0.1821
      2 O          -9.5724  -18.9049   23.6375 O.2     1  UNL1       -0.4500
      3 C         -11.0526  -18.6640   23.6714 C.ar    1  UNL1        0.1545
      4 C         -11.8006  -18.7723   24.9671 C.ar    1  UNL1        0.0744
      5 C         -13.2807  -18.5315   25.0009 C.ar    1  UNL1        0.1397
      6 O         -14.0288  -18.6397   26.2966 O.3     1  UNL1       -0.5053
      7 C         -14.0129  -18.1824   23.7391 C.ar    1  UNL1        0.0735
      8 C         -13.2649  -18.0741   22.4435 C.ar    1  UNL1        0.1428
      9 O         -13.9970  -17.7251   21.1817 O.3     1  UNL1       -0.5052
     10 C         -11.7847  -18.3150   22.4096 C.ar    1  UNL1        0.1104
     11 C         -11.0367  -18.2067   21.1139 C.ar    1  UNL1        0.2381
     12 O         -11.7688  -17.8576   19.8522 O.2     1  UNL1       -0.2830
     13 C          -9.5566  -18.4475   21.0801 C.ar    1  UNL1        0.2119
     14 H         -13.5715  -18.8578   27.0848 H       1  UNL1        0.2922
     15 H         -14.9216  -17.5746   21.2029 H       1  UNL1        0.2922
     16 C          -4.3840  -19.5190   22.2402 C.ar    1  UNL1        0.1387
     17 C          -5.3313  -20.6164   21.8553 C.ar    1  UNL1        0.0370
     18 C          -6.8115  -20.3756   21.8892 C.ar    1  UNL1        0.0062
     19 C          -7.3442  -19.0374   22.3080 C.ar    1  UNL1        0.0379
     20 C          -6.3968  -17.9400   22.6929 C.ar    1  UNL1        0.0062
     21 C          -4.9167  -18.1808   22.6590 C.ar    1  UNL1        0.0370
     22 C          -2.1174  -19.4247   20.9737 C.3     1  UNL1        0.2525
     23 O          -2.9037  -19.7598   22.2063 O.3     1  UNL1       -0.4714
     24 O          -8.8085  -18.3393   19.7844 O.3     1  UNL1       -0.4653
     25 C          -8.6700  -19.5397   18.8958 C.3     1  UNL1        0.2528
@<TRIPOS>BOND
     1    22    23    1
     2    23    16    1
     3    16    17   ar
     4    17    18   ar
     5    18    19   ar
     6    19     1    1
     7     1     2   ar
     8     2     3   ar
     9     3     4   ar
    10     4     5   ar
    11     5     6    1
    12     5     7   ar
    13     7     8   ar
    14     8     9    1
    15     8    10   ar
    16    10    11   ar
    17    11    12    2
    18    11    13   ar
    19    13    24    1
    20    24    25    1
    21    19    20   ar
    22    20    21   ar
    23    21    16   ar
    24    13     1   ar
    25    10     3   ar
    26     6    14    1
    27     9    15    1
@<TRIPOS>MOLECULE
*****
 25 27 0 0 0
SMALL
GASTEIGER

@<TRIPOS>ATOM
      1 C          -8.3223  -18.7532   21.7078 C.ar    1  UNL1        0.1821
      2 O          -8.9616  -17.8081   20.7341 O.2     1  UNL1       -0.4500
      3 C         -10.3996  -17.4161   20.9035 C.ar    1  UNL1        0.1545
      4 C         -11.0390  -16.4710   19.9299 C.ar    1  UNL1        0.0744
      5 C         -12.4769  -16.0790   20.0993 C.ar    1  UNL1        0.1397
      6 O         -13.1163  -15.1339   19.1256 O.3     1  UNL1       -0.5053
      7 C         -13.2754  -16.6321   21.2423 C.ar    1  UNL1        0.0735
      8 C         -12.6360  -17.5772   22.2159 C.ar    1  UNL1        0.1428
      9 O         -13.4345  -18.1302   23.3589 O.3     1  UNL1       -0.5052
     10 C         -11.1981  -17.9692   22.0465 C.ar    1  UNL1        0.1104
     11 C         -10.5587  -18.9143   23.0202 C.ar    1  UNL1        0.2381
     12 O         -11.3572  -19.4673   24.1632 O.2     1  UNL1       -0.2830
     13 C          -9.1208  -19.3063   22.8508 C.ar    1  UNL1        0.2119
     14 H         -12.6176  -14.7884   18.4116 H       1  UNL1        0.2922
     15 H         -14.3328  -17.8853   23.4647 H       1  UNL1        0.2922
     16 C          -4.0085  -19.9292   21.1998 C.ar    1  UNL1        0.1387
     17 C          -5.0637  -20.5585   20.3393 C.ar    1  UNL1        0.0370
     18 C          -6.5016  -20.1665   20.5086 C.ar    1  UNL1        0.0062
     19 C          -6.8843  -19.1453   21.5384 C.ar    1  UNL1        0.0379
     20 C          -5.8290  -18.5160   22.3989 C.ar    1  UNL1        0.0062
     21 C          -4.3911  -18.9080   22.2296 C.ar    1  UNL1        0.0370
     22 C          -1.5414  -19.2780   20.7103 C.3     1  UNL1        0.2525
     23 O          -2.5705  -20.3213   21.0304 O.3     1  UNL1       -0.4714
     24 O          -8.4813  -20.2514   23.8244 O.3     1  UNL1       -0.4653
     25 C          -9.3089  -21.3022   24.5034 C.3     1  UNL1        0.2528
@<TRIPOS>BOND
     1    22    23    1
     2    23    16    1
     3    16    17   ar
     4    17    18   ar
     5    18    19   ar
     6    19     1    1
     7     1     2   ar
     8     2     3   ar
     9     3     4   ar
    10     4     5   ar
    11     5     6    1
    12     5     7   ar
    13     7     8   ar
    14     8     9    1
    15     8    10   ar
    16    10    11   ar
    17    11    12    2
    18    11    13   ar
    19    13    24    1
    20    24    25    1
    21    19    20   ar
    22    20    21   ar
    23    21    16   ar
    24    13     1   ar
    25    10     3   ar
    26     6    14    1
    27     9    15    1
@<TRIPOS>MOLECULE
*****
 25 27 0 0 0
SMALL
GASTEIGER

@<TRIPOS>ATOM
      1 C         -15.0471   -6.6027   18.5814 C.ar    1  UNL1        0.1821
      2 O         -13.7911   -7.4225   18.5762 O.2     1  UNL1       -0.4500
      3 C         -12.4569   -6.7516   18.7180 C.ar    1  UNL1        0.1545
      4 C         -11.2008   -7.5714   18.7128 C.ar    1  UNL1        0.0744
      5 C          -9.8668   -6.9005   18.8546 C.ar    1  UNL1        0.1397
      6 O          -8.6106   -7.7203   18.8494 O.3     1  UNL1       -0.5053
      7 C          -9.7888   -5.4098   19.0016 C.ar    1  UNL1        0.0735
      8 C         -11.0449   -4.5899   19.0068 C.ar    1  UNL1        0.1428
      9 O         -10.9670   -3.0992   19.1537 O.3     1  UNL1       -0.5052
     10 C         -12.3790   -5.2608   18.8650 C.ar    1  UNL1        0.1104
     11 C         -13.6351   -4.4410   18.8702 C.ar    1  UNL1        0.2381
     12 O         -13.5572   -2.9503   19.0171 O.2     1  UNL1       -0.2830
     13 C         -14.9692   -5.1119   18.7284 C.ar    1  UNL1        0.2119
     14 H          -8.6593   -8.6516   18.7576 H       1  UNL1        0.2922
     15 H         -10.1336   -2.6801   19.2423 H       1  UNL1        0.2922
     16 C         -19.0494   -8.6153   18.1559 C.ar    1  UNL1        0.1387
     17 C         -18.4474   -8.4232   19.5163 C.ar    1  UNL1        0.0370
     18 C         -17.1133   -7.7523   19.6581 C.ar    1  UNL1        0.0062
     19 C         -16.3813   -7.2736   18.4396 C.ar    1  UNL1        0.0379
     20 C         -16.9833   -7.4657   17.0792 C.ar    1  UNL1        0.0062
     21 C         -18.3174   -8.1366   16.9373 C.ar    1  UNL1        0.0370
     22 C         -20.4602  -10.7742   17.8413 C.3     1  UNL1        0.2525
     23 O         -20.3836   -9.2862   18.0141 O.3     1  UNL1       -0.4714
     24 O         -16.2254   -4.2921   18.7335 O.3     1  UNL1       -0.4653
     25 C         -16.8723   -3.9194   20.0345 C.3     1  UNL1        0.2528
@<TRIPOS>BOND
     1    22    23    1
     2    23    16    1
     3    16    17   ar
     4    17    18   ar
     5    18    19   ar
     6    19     1    1
     7     1     2   ar
     8     2     3   ar
     9     3     4   ar
    10     4     5   ar
    11     5     6    1
    12     5     7   ar
    13     7     8   ar
    14     8     9    1
    15     8    10   ar
    16    10    11   ar
    17    11    12    2
    18    11    13   ar
    19    13    24    1
    20    24    25    1
    21    19    20   ar
    22    20    21   ar
    23    21    16   ar
    24    13     1   ar
    25    10     3   ar
    26     6    14    1
    27     9    15    1
@<TRIPOS>MOLECULE
*****
 25 27 0 0 0
SMALL
GASTEIGER

@<TRIPOS>ATOM
      1 C         -14.3718   -5.5450   18.5437 C.ar    1  UNL1        0.1821
      2 O         -14.9976   -4.1895   18.3987 O.2     1  UNL1       -0.4500
      3 C         -14.1470   -2.9572   18.4883 C.ar    1  UNL1        0.1545
      4 C         -14.7727   -1.6018   18.3433 C.ar    1  UNL1        0.0744
      5 C         -13.9221   -0.3696   18.4329 C.ar    1  UNL1        0.1397
      6 O         -14.5479    0.9860   18.2879 O.3     1  UNL1       -0.5053
      7 C         -12.4457   -0.4928   18.6675 C.ar    1  UNL1        0.0735
      8 C         -11.8199   -1.8483   18.8125 C.ar    1  UNL1        0.1428
      9 O         -10.3435   -1.9715   19.0471 O.3     1  UNL1       -0.5052
     10 C         -12.6705   -3.0805   18.7229 C.ar    1  UNL1        0.1104
     11 C         -12.0448   -4.4360   18.8679 C.ar    1  UNL1        0.2381
     12 O         -10.5684   -4.5593   19.1025 O.2     1  UNL1       -0.2830
     13 C         -12.8954   -5.6682   18.7783 C.ar    1  UNL1        0.2119
     14 H         -15.4702    1.0630   18.1414 H       1  UNL1        0.2922
     15 H          -9.8122   -1.2018   19.1031 H       1  UNL1        0.2922
     16 C         -16.9236   -9.2418   18.2749 C.ar    1  UNL1        0.1387
     17 C         -16.7774   -8.5249   19.5844 C.ar    1  UNL1        0.0370
     18 C         -15.9269   -7.2927   19.6740 C.ar    1  UNL1        0.0062
     19 C         -15.2224   -6.7773   18.4542 C.ar    1  UNL1        0.0379
     20 C         -15.3685   -7.4941   17.1447 C.ar    1  UNL1        0.0062
     21 C         -16.2191   -8.7264   17.0550 C.ar    1  UNL1        0.0370
     22 C         -19.1681  -10.3851   17.6384 C.3     1  UNL1        0.2525
     23 O         -17.7742  -10.4741   18.1853 O.3     1  UNL1       -0.4714
     24 O         -12.2696   -7.0238   18.9233 O.3     1  UNL1       -0.4653
     25 C         -11.5732   -7.6572   17.7555 C.3     1  UNL1        0.2528
@<TRIPOS>BOND
     1    22    23    1
     2    23    16    1
     3    16    17   ar
     4    17    18   ar
     5    18    19   ar
     6    19     1    1
     7     1     2   ar
     8     2     3   ar
     9     3     4   ar
    10     4     5   ar
    11     5     6    1
    12     5     7   ar
    13     7     8   ar
    14     8     9    1
    15     8    10   ar
    16    10    11   ar
    17    11    12    2
    18    11    13   ar
    19    13    24    1
    20    24    25    1
    21    19    20   ar
    22    20    21   ar
    23    21    16   ar
    24    13     1   ar
    25    10     3   ar
    26     6    14    1
    27     9    15    1
@<TRIPOS>MOLECULE
*****
 25 27 0 0 0
SMALL
GASTEIGER

@<TRIPOS>ATOM
      1 C         -15.3421   -5.2463   19.0803 C.ar    1  UNL1        0.1821
      2 O         -15.1300   -6.7303   19.0290 O.2     1  UNL1       -0.4500
      3 C         -16.2797   -7.6613   19.2775 C.ar    1  UNL1        0.1545
      4 C         -16.0676   -9.1453   19.2262 C.ar    1  UNL1        0.0744
      5 C         -17.2172  -10.0762   19.4747 C.ar    1  UNL1        0.1397
      6 O         -17.0051  -11.5603   19.4234 O.3     1  UNL1       -0.5053
      7 C         -18.5788   -9.5231   19.7745 C.ar    1  UNL1        0.0735
      8 C         -18.7909   -8.0391   19.8259 C.ar    1  UNL1        0.1428
      9 O         -20.1526   -7.4860   20.1257 O.3     1  UNL1       -0.5052
     10 C         -17.6414   -7.1082   19.5773 C.ar    1  UNL1        0.1104
     11 C         -17.8534   -5.6241   19.6286 C.ar    1  UNL1        0.2381
     12 O         -19.2151   -5.0710   19.9285 O.2     1  UNL1       -0.2830
     13 C         -16.7038   -4.6932   19.3801 C.ar    1  UNL1        0.2119
     14 H         -16.1545  -11.9059   19.2361 H       1  UNL1        0.2922
     15 H         -20.8707   -8.0675   20.2809 H       1  UNL1        0.2922
     16 C         -11.8934   -2.4534   18.3347 C.ar    1  UNL1        0.1387
     17 C         -12.4272   -2.6314   19.7251 C.ar    1  UNL1        0.0370
     18 C         -13.5768   -3.5624   19.9737 C.ar    1  UNL1        0.0062
     19 C         -14.1925   -4.3153   18.8318 C.ar    1  UNL1        0.0379
     20 C         -13.6587   -4.1373   17.4414 C.ar    1  UNL1        0.0062
     21 C         -12.5091   -3.2064   17.1928 C.ar    1  UNL1        0.0370
     22 C         -10.8078   -0.5361   16.9579 C.3     1  UNL1        0.2525
     23 O         -10.7438   -1.5224   18.0862 O.3     1  UNL1       -0.4714
     24 O         -16.9159   -3.2091   19.4314 O.3     1  UNL1       -0.4653
     25 C         -17.3535   -2.4711   18.2011 C.3     1  UNL1        0.2528
@<TRIPOS>BOND
     1    22    23    1
     2    23    16    1
     3    16    17   ar
     4    17    18   ar
     5    18    19   ar
     6    19     1    1
     7     1     2   ar
     8     2     3   ar
     9     3     4   ar
    10     4     5   ar
    11     5     6    1
    12     5     7   ar
    13     7     8   ar
    14     8     9    1
    15     8    10   ar
    16    10    11   ar
    17    11    12    2
    18    11    13   ar
    19    13    24    1
    20    24    25    1
    21    19    20   ar
    22    20    21   ar
    23    21    16   ar
    24    13     1   ar
    25    10     3   ar
    26     6    14    1
    27     9    15    1
@<TRIPOS>MOLECULE
*****
 25 27 0 0 0
SMALL
GASTEIGER

@<TRIPOS>ATOM
      1 C          -6.6065  -18.5325   20.9848 C.ar    1  UNL1        0.1821
      2 O          -7.3193  -17.4532   21.7443 O.2     1  UNL1       -0.4500
      3 C          -8.8187  -17.4132   21.7617 C.ar    1  UNL1        0.1545
      4 C          -9.5314  -16.3338   22.5212 C.ar    1  UNL1        0.0744
      5 C         -11.0308  -16.2939   22.5385 C.ar    1  UNL1        0.1397
      6 O         -11.7436  -15.2145   23.2981 O.3     1  UNL1       -0.5053
      7 C         -11.8173  -17.3333   21.7964 C.ar    1  UNL1        0.0735
      8 C         -11.1046  -18.4127   21.0369 C.ar    1  UNL1        0.1428
      9 O         -11.8912  -19.4522   20.2947 O.3     1  UNL1       -0.5052
     10 C          -9.6053  -18.4526   21.0195 C.ar    1  UNL1        0.1104
     11 C          -8.8925  -19.5321   20.2600 C.ar    1  UNL1        0.2381
     12 O          -9.6790  -20.5715   19.5178 O.2     1  UNL1       -0.2830
     13 C          -7.3931  -19.5720   20.2426 C.ar    1  UNL1        0.2119
     14 H         -11.2522  -14.5652   23.7617 H       1  UNL1        0.2922
     15 H         -12.8278  -19.4272   20.3055 H       1  UNL1        0.2922
     16 C          -2.1084  -18.6525   20.9328 C.ar    1  UNL1        0.1387
     17 C          -2.8710  -18.5551   19.6448 C.ar    1  UNL1        0.0370
     18 C          -4.3704  -18.5151   19.6621 C.ar    1  UNL1        0.0062
     19 C          -5.1071  -18.5725   20.9674 C.ar    1  UNL1        0.0379
     20 C          -4.3445  -18.6699   22.2554 C.ar    1  UNL1        0.0062
     21 C          -2.8451  -18.7098   22.2381 C.ar    1  UNL1        0.0370
     22 C           0.1536  -17.8186   19.9642 C.3     1  UNL1        0.2525
     23 O          -0.6090  -18.6924   20.9154 O.3     1  UNL1       -0.4714
     24 O          -6.6803  -20.6514   19.4831 O.3     1  UNL1       -0.4653
     25 C          -5.9864  -21.7562   20.2233 C.3     1  UNL1        0.2528
@<TRIPOS>BOND
     1    22    23    1
     2    23    16    1
     3    16    17   ar
     4    17    18   ar
     5    18    19   ar
     6    19     1    1
     7     1     2   ar
     8     2     3   ar
     9     3     4   ar
    10     4     5   ar
    11     5     6    1
    12     5     7   ar
    13     7     8   ar
    14     8     9    1
    15     8    10   ar
    16    10    11   ar
    17    11    12    2
    18    11    13   ar
    19    13    24    1
    20    24    25    1
    21    19    20   ar
    22    20    21   ar
    23    21    16   ar
    24    13     1   ar
    25    10     3   ar
    26     6    14    1
    27     9    15    1
@<TRIPOS>MOLECULE
*****
 25 27 0 0 0
SMALL
GASTEIGER

@<TRIPOS>ATOM
      1 C          -6.5554  -18.6632   21.7267 C.ar    1  UNL1        0.1821
      2 O          -7.4470  -17.4586   21.6662 O.2     1  UNL1       -0.4500
      3 C          -8.8197  -17.5104   22.2689 C.ar    1  UNL1        0.1545
      4 C          -9.7114  -16.3058   22.2084 C.ar    1  UNL1        0.0744
      5 C         -11.0840  -16.3577   22.8111 C.ar    1  UNL1        0.1397
      6 O         -11.9757  -15.1530   22.7506 O.3     1  UNL1       -0.5053
      7 C         -11.5649  -17.6142   23.4742 C.ar    1  UNL1        0.0735
      8 C         -10.6732  -18.8189   23.5347 C.ar    1  UNL1        0.1428
      9 O         -11.1542  -20.0754   24.1979 O.3     1  UNL1       -0.5052
     10 C          -9.3006  -18.7670   22.9321 C.ar    1  UNL1        0.1104
     11 C          -8.4089  -19.9717   22.9925 C.ar    1  UNL1        0.2381
     12 O          -8.8898  -21.2282   23.6557 O.2     1  UNL1       -0.2830
     13 C          -7.0363  -19.9198   22.3899 C.ar    1  UNL1        0.2119
     14 H         -11.6753  -14.3680   22.3364 H       1  UNL1        0.2922
     15 H         -12.0116  -20.1078   24.5743 H       1  UNL1        0.2922
     16 C          -2.4375  -18.5076   19.9186 C.ar    1  UNL1        0.1387
     17 C          -2.6136  -18.3402   21.3988 C.ar    1  UNL1        0.0370
     18 C          -3.9861  -18.3920   22.0015 C.ar    1  UNL1        0.0062
     19 C          -5.1827  -18.6113   21.1240 C.ar    1  UNL1        0.0379
     20 C          -5.0067  -18.7788   19.6438 C.ar    1  UNL1        0.0062
     21 C          -3.6341  -18.7270   19.0411 C.ar    1  UNL1        0.0370
     22 C           0.0315  -17.7044   20.0111 C.3     1  UNL1        0.2525
     23 O          -1.0649  -18.4558   19.3160 O.3     1  UNL1       -0.4714
     24 O          -6.1446  -21.1245   22.4503 O.3     1  UNL1       -0.4653
     25 C          -5.8181  -21.8796   21.1961 C.3     1  UNL1        0.2528
@<TRIPOS>BOND
     1    22    23    1
     2    23    16    1
     3    16    17   ar
     4    17    18   ar
     5    18    19   ar
     6    19     1    1
     7     1     2   ar
     8     2     3   ar
     9     3     4   ar
    10     4     5   ar
    11     5     6    1
    12     5     7   ar
    13     7     8   ar
    14     8     9    1
    15     8    10   ar
    16    10    11   ar
    17    11    12    2
    18    11    13   ar
    19    13    24    1
    20    24    25    1
    21    19    20   ar
    22    20    21   ar
    23    21    16   ar
    24    13     1   ar
    25    10     3   ar
    26     6    14    1
    27     9    15    1
