@<TRIPOS>MOLECULE
*****
 55 60 0 0 0
SMALL
GASTEIGER

@<TRIPOS>ATOM
      1 C           4.1829   -0.9445   27.9797 C.3     1  UNL1        0.1269
      2 O           3.5469   -2.0336   27.1677 O.3     1  UNL1       -0.3830
      3 H           3.1065   -1.6459   26.3953 H       1  UNL1        0.2104
      4 C           4.0702    0.4843   27.5370 C.3     1  UNL1        0.1021
      5 C           1.6644    1.2820   28.1078 C.3     1  UNL1        0.1510
      6 C           0.3385    1.8286   27.6683 C.3     1  UNL1        0.0980
      7 N           0.0925    2.1242   26.2184 N.3     1  UNL1       -0.2663
      8 C           1.1724    1.8731   25.2080 C.3     1  UNL1        0.0899
      9 C           2.4983    1.3265   25.6476 C.3     1  UNL1        0.0901
     10 N           2.7443    1.0309   27.0975 N.3     1  UNL1       -0.2621
     11 N           2.4915    2.0426   30.4503 N.am    1  UNL1       -0.3063
     12 C           1.9104    0.9864   29.5576 C.2     1  UNL1        0.2383
     13 O           1.5753   -0.3653   30.1149 O.2     1  UNL1       -0.2736
     14 H           2.7114    2.9298   30.0846 H       1  UNL1        0.1493
     15 C           4.1357    1.3126   31.5743 C.3     1  UNL1        0.0196
     16 C           2.7375    1.7471   31.9002 C.3     1  UNL1        0.0569
     17 C           1.3393    2.1815   32.2260 C.3     1  UNL1        0.0196
     18 C           2.9836    1.4515   33.3501 C.3     1  UNL1        0.0196
     19 C          -1.2334    2.6708   25.7789 C.3     1  UNL1        0.0969
     20 C          -0.7019    2.8405   24.3865 C.3     1  UNL1        0.0238
     21 C          -1.7650    2.5011   27.1713 C.3     1  UNL1        0.0238
     22 C          -2.5593    3.2174   25.3393 C.ar    1  UNL1        0.1356
     23 C          -3.5275    3.9777   26.1965 C.ar    1  UNL1        0.0388
     24 C          -4.7164    4.3299   25.3524 C.ar    1  UNL1        0.0564
     25 C          -5.9813    5.0746   25.6611 C.ar    1  UNL1        0.1020
     26 N          -7.0129    5.2766   24.5911 N.ar    1  UNL1       -0.2421
     27 C          -6.7795    4.7340   23.2123 C.ar    1  UNL1        0.1020
     28 C          -5.5146    3.9893   22.9035 C.ar    1  UNL1        0.0581
     29 C          -4.4830    3.7873   23.9736 C.ar    1  UNL1        0.1479
     30 O          -3.1499    3.0997   23.9655 O.2     1  UNL1       -0.4564
     31 C           4.9316   -1.2841   29.2343 C.3     1  UNL1        0.0401
     32 C           6.0042   -2.3323   29.2071 C.3     1  UNL1        0.0833
     33 C           6.5520   -2.8110   27.8954 C.2     1  UNL1        0.2226
     34 O           7.7129   -2.1015   27.2637 O.2     1  UNL1       -0.2751
     35 N           5.9390   -3.9992   27.2153 N.am    1  UNL1       -0.2999
     36 H           5.1771   -4.4648   27.6300 H       1  UNL1        0.1498
     37 C           6.4869   -4.4779   25.9036 C.3     1  UNL1        0.1278
     38 C           7.3873   -5.6768   25.8595 C.ar    1  UNL1        0.0320
     39 C           7.7399   -6.3969   27.1272 C.ar    1  UNL1        0.0004
     40 C           8.6404   -7.5957   27.0831 C.ar    1  UNL1       -0.0001
     41 C           9.1882   -8.0744   25.7714 C.ar    1  UNL1        0.0031
     42 C           8.8356   -7.3543   24.5037 C.ar    1  UNL1        0.0366
     43 C           7.9352   -6.1555   24.5478 C.ar    1  UNL1        0.1362
     44 O           7.5825   -5.4353   23.2801 O.3     1  UNL1       -0.4730
     45 C           6.6821   -4.2364   23.3241 C.3     1  UNL1        0.2364
     46 C           6.1343   -3.7577   24.6359 C.3     1  UNL1        0.1762
     47 O           5.2338   -2.5588   24.6799 O.3     1  UNL1       -0.3788
     48 H           5.1084   -2.2154   23.7815 H       1  UNL1        0.2106
     49 C           6.5290   -2.9019   30.4918 C.3     1  UNL1        0.0355
     50 C           6.2078   -2.2329   31.7953 C.ar    1  UNL1       -0.0217
     51 C           4.9347   -2.5657   32.5154 C.ar    1  UNL1       -0.0043
     52 C           4.6135   -1.8967   33.8190 C.ar    1  UNL1       -0.0003
     53 C           5.5653   -0.8950   34.4025 C.ar    1  UNL1       -0.0000
     54 C           6.8385   -0.5622   33.6824 C.ar    1  UNL1       -0.0003
     55 C           7.1597   -1.2312   32.3789 C.ar    1  UNL1       -0.0043
@<TRIPOS>BOND
     1    15    16    1
     2    16    17    1
     3    16    18    1
     4    16    11    1
     5    11    12   am
     6    12    13    2
     7     5    12    1
     8     5     6    1
     9     6     7    1
    10     7    19    1
    11    19    20    1
    12    19    21    1
    13    19    22    1
    14    22    23   ar
    15    23    24   ar
    16    24    25   ar
    17    25    26   ar
    18    26    27   ar
    19    27    28   ar
    20    28    29   ar
    21    29    30   ar
    22     7     8    1
    23     8     9    1
    24     9    10    1
    25    10     4    1
    26     4     1    1
    27     1     2    1
    28     1    31    1
    29    32    31    1
    30    32    49    1
    31    49    50    1
    32    50    51   ar
    33    51    52   ar
    34    52    53   ar
    35    53    54   ar
    36    54    55   ar
    37    32    33    1
    38    33    34    2
    39    33    35   am
    40    37    35    1
    41    37    38    1
    42    38    39   ar
    43    39    40   ar
    44    40    41   ar
    45    41    42   ar
    46    42    43   ar
    47    43    44    1
    48    44    45    1
    49    45    46    1
    50    46    47    1
    51    10     5    1
    52    55    50   ar
    53    46    37    1
    54    30    22   ar
    55    43    38   ar
    56    29    24   ar
    57    11    14    1
    58     2     3    1
    59    35    36    1
    60    47    48    1
@<TRIPOS>MOLECULE
*****
 55 60 0 0 0
SMALL
GASTEIGER

@<TRIPOS>ATOM
      1 C           3.3660   -0.8569   27.7084 C.3     1  UNL1        0.1269
      2 O           3.9728   -2.1475   27.2437 O.3     1  UNL1       -0.3830
      3 H           3.5583   -2.8876   27.7142 H       1  UNL1        0.2104
      4 C           2.2880   -0.8676   28.7514 C.3     1  UNL1        0.1021
      5 C           1.7047    0.8926   30.5712 C.3     1  UNL1        0.1510
      6 C           1.9586    1.5013   31.9184 C.3     1  UNL1        0.0980
      7 N           3.0497    0.9586   32.7931 N.3     1  UNL1       -0.2663
      8 C           3.8869   -0.1928   32.3205 C.3     1  UNL1        0.0899
      9 C           3.6330   -0.8016   30.9733 C.3     1  UNL1        0.0901
     10 N           2.5419   -0.2588   30.0987 N.3     1  UNL1       -0.2621
     11 N           0.9582    2.2630   28.4940 N.am    1  UNL1       -0.3063
     12 C           0.6136    1.4352   29.6966 C.2     1  UNL1        0.2383
     13 O          -0.8221    1.1502   30.0245 O.2     1  UNL1       -0.2736
     14 H           1.9005    2.4501   28.2788 H       1  UNL1        0.1493
     15 C          -0.2647    1.4679   26.9539 C.3     1  UNL1        0.0196
     16 C          -0.1328    2.8057   27.6194 C.3     1  UNL1        0.0569
     17 C          -0.0009    4.1434   28.2849 C.3     1  UNL1        0.0196
     18 C          -1.2240    3.3483   26.7447 C.3     1  UNL1        0.0196
     19 C           3.3036    1.5674   34.1403 C.3     1  UNL1        0.0969
     20 C           2.0787    2.4194   33.9861 C.3     1  UNL1        0.0238
     21 C           4.5284    0.7153   34.2944 C.3     1  UNL1        0.0238
     22 C           3.5575    2.1761   35.4875 C.ar    1  UNL1        0.1356
     23 C           4.1018    1.4621   36.6892 C.ar    1  UNL1        0.0388
     24 C           4.1923    2.4505   37.8140 C.ar    1  UNL1        0.0564
     25 C           4.6563    2.3152   39.2339 C.ar    1  UNL1        0.1020
     26 N           4.6321    3.5048   40.1473 N.ar    1  UNL1       -0.2421
     27 C           4.1438    4.8295   39.6408 C.ar    1  UNL1        0.1020
     28 C           3.6798    4.9648   38.2208 C.ar    1  UNL1        0.0581
     29 C           3.7041    3.7752   37.3074 C.ar    1  UNL1        0.1479
     30 O           3.3117    3.6056   35.8696 O.2     1  UNL1       -0.4564
     31 C           3.8371    0.4445   27.1301 C.3     1  UNL1        0.0401
     32 C           3.7434    0.6864   25.6527 C.3     1  UNL1        0.0833
     33 C           4.4757   -0.2094   24.6981 C.2     1  UNL1        0.2226
     34 O           5.7918    0.2234   24.1230 O.2     1  UNL1       -0.2751
     35 N           3.8920   -1.5380   24.3186 N.am    1  UNL1       -0.2999
     36 H           3.0282   -1.8221   24.6961 H       1  UNL1        0.1498
     37 C           4.6243   -2.4338   23.3640 C.3     1  UNL1        0.1278
     38 C           4.3002   -2.3944   21.8999 C.ar    1  UNL1        0.0320
     39 C           3.2439   -1.4592   21.3905 C.ar    1  UNL1        0.0004
     40 C           2.9199   -1.4198   19.9265 C.ar    1  UNL1       -0.0001
     41 C           3.6522   -2.3157   18.9719 C.ar    1  UNL1        0.0031
     42 C           4.7085   -3.2509   19.4813 C.ar    1  UNL1        0.0366
     43 C           5.0325   -3.2902   20.9453 C.ar    1  UNL1        0.1362
     44 O           6.0888   -4.2255   21.4548 O.3     1  UNL1       -0.4730
     45 C           6.4128   -4.2649   22.9189 C.3     1  UNL1        0.2364
     46 C           5.6806   -3.3690   23.8735 C.3     1  UNL1        0.1762
     47 O           6.0046   -3.4085   25.3376 O.3     1  UNL1       -0.3788
     48 H           6.7041   -4.0615   25.4964 H       1  UNL1        0.2106
     49 C           2.9174    1.8242   25.1299 C.3     1  UNL1        0.0355
     50 C           2.3950    1.7878   23.7243 C.ar    1  UNL1       -0.0217
     51 C           3.2011    2.3845   22.6089 C.ar    1  UNL1       -0.0043
     52 C           2.6787    2.3481   21.2032 C.ar    1  UNL1       -0.0003
     53 C           1.3502    1.7151   20.9130 C.ar    1  UNL1       -0.0000
     54 C           0.5440    1.1184   22.0285 C.ar    1  UNL1       -0.0003
     55 C           1.0664    1.1547   23.4341 C.ar    1  UNL1       -0.0043
@<TRIPOS>BOND
     1    15    16    1
     2    16    17    1
     3    16    18    1
     4    16    11    1
     5    11    12   am
     6    12    13    2
     7     5    12    1
     8     5     6    1
     9     6     7    1
    10     7    19    1
    11    19    20    1
    12    19    21    1
    13    19    22    1
    14    22    23   ar
    15    23    24   ar
    16    24    25   ar
    17    25    26   ar
    18    26    27   ar
    19    27    28   ar
    20    28    29   ar
    21    29    30   ar
    22     7     8    1
    23     8     9    1
    24     9    10    1
    25    10     4    1
    26     4     1    1
    27     1     2    1
    28     1    31    1
    29    32    31    1
    30    32    49    1
    31    49    50    1
    32    50    51   ar
    33    51    52   ar
    34    52    53   ar
    35    53    54   ar
    36    54    55   ar
    37    32    33    1
    38    33    34    2
    39    33    35   am
    40    37    35    1
    41    37    38    1
    42    38    39   ar
    43    39    40   ar
    44    40    41   ar
    45    41    42   ar
    46    42    43   ar
    47    43    44    1
    48    44    45    1
    49    45    46    1
    50    46    47    1
    51    10     5    1
    52    55    50   ar
    53    46    37    1
    54    30    22   ar
    55    43    38   ar
    56    29    24   ar
    57    11    14    1
    58     2     3    1
    59    35    36    1
    60    47    48    1
@<TRIPOS>MOLECULE
*****
 55 60 0 0 0
SMALL
GASTEIGER

@<TRIPOS>ATOM
      1 C           4.3504   -1.5910   24.5541 C.3     1  UNL1        0.1269
      2 O           4.1210   -2.1250   25.9369 O.3     1  UNL1       -0.3830
      3 H           3.9090   -1.3918   26.5355 H       1  UNL1        0.2104
      4 C           4.2342   -0.1191   24.2896 C.3     1  UNL1        0.1021
      5 C           2.0422    0.8730   23.3094 C.3     1  UNL1        0.1510
      6 C           0.7286    1.5694   23.5086 C.3     1  UNL1        0.0980
      7 N           0.2936    1.9702   24.8870 N.3     1  UNL1       -0.2663
      8 C           1.1721    1.6745   26.0664 C.3     1  UNL1        0.0899
      9 C           2.4857    0.9781   25.8672 C.3     1  UNL1        0.0901
     10 N           2.9207    0.5773   24.4887 N.3     1  UNL1       -0.2621
     11 N           3.1685    1.4653   21.0443 N.am    1  UNL1       -0.3063
     12 C           2.4772    0.4723   21.9310 C.2     1  UNL1        0.2383
     13 O           2.2210   -0.9214   21.4392 O.2     1  UNL1       -0.2736
     14 H           3.3367    2.3801   21.3671 H       1  UNL1        0.1493
     15 C           2.3161    1.5928   19.1060 C.3     1  UNL1        0.0196
     16 C           3.6035    1.0646   19.6659 C.3     1  UNL1        0.0569
     17 C           4.8909    0.5364   20.2257 C.3     1  UNL1        0.0196
     18 C           4.0385    0.6638   18.2873 C.3     1  UNL1        0.0196
     19 C          -1.0199    2.6666   25.0862 C.3     1  UNL1        0.0969
     20 C          -1.0705    2.1669   26.4996 C.3     1  UNL1        0.0238
     21 C          -0.9693    3.1663   23.6728 C.3     1  UNL1        0.0238
     22 C          -2.3334    3.3630   25.2853 C.ar    1  UNL1        0.1356
     23 C          -3.4589    3.4224   24.2954 C.ar    1  UNL1        0.0388
     24 C          -4.5732    4.2184   24.9077 C.ar    1  UNL1        0.0564
     25 C          -5.9291    4.6052   24.3960 C.ar    1  UNL1        0.1020
     26 N          -6.8482    5.4246   25.2526 N.ar    1  UNL1       -0.2421
     27 C          -6.4114    5.8572   26.6208 C.ar    1  UNL1        0.1020
     28 C          -5.0555    5.4704   27.1325 C.ar    1  UNL1        0.0581
     29 C          -4.1364    4.6510   26.2759 C.ar    1  UNL1        0.1479
     30 O          -2.7521    4.1223   26.5093 O.2     1  UNL1       -0.4564
     31 C           4.6959   -2.5290   23.4357 C.3     1  UNL1        0.0401
     32 C           5.9597   -3.3346   23.4958 C.3     1  UNL1        0.0833
     33 C           6.6728   -3.5148   24.8032 C.2     1  UNL1        0.2226
     34 O           7.8875   -2.6917   25.1146 O.2     1  UNL1       -0.2751
     35 N           6.1711   -4.5181   25.7990 N.am    1  UNL1       -0.2999
     36 H           5.3739   -5.0583   25.5945 H       1  UNL1        0.1498
     37 C           6.8841   -4.6983   27.1063 C.3     1  UNL1        0.1278
     38 C           7.5865   -5.9895   27.4058 C.ar    1  UNL1        0.0320
     39 C           7.5758   -7.1004   26.3979 C.ar    1  UNL1        0.0004
     40 C           8.2782   -8.3915   26.6974 C.ar    1  UNL1       -0.0001
     41 C           8.9912   -8.5717   28.0048 C.ar    1  UNL1        0.0031
     42 C           9.0019   -7.4608   29.0126 C.ar    1  UNL1        0.0366
     43 C           8.2995   -6.1697   28.7131 C.ar    1  UNL1        0.1362
     44 O           8.3102   -5.0588   29.7210 O.3     1  UNL1       -0.4730
     45 C           7.6078   -3.7677   29.4215 C.3     1  UNL1        0.2364
     46 C           6.8948   -3.5875   28.1142 C.3     1  UNL1        0.1762
     47 O           6.1925   -2.2963   27.8147 O.3     1  UNL1       -0.3788
     48 H           6.2958   -1.6904   28.5651 H       1  UNL1        0.2106
     49 C           6.5106   -3.9600   22.2486 C.3     1  UNL1        0.0355
     50 C           5.9149   -3.6223   20.9141 C.ar    1  UNL1       -0.0217
     51 C           6.7203   -2.8590   19.9048 C.ar    1  UNL1       -0.0043
     52 C           6.1246   -2.5213   18.5702 C.ar    1  UNL1       -0.0003
     53 C           4.7234   -2.9468   18.2450 C.ar    1  UNL1       -0.0000
     54 C           3.9180   -3.7101   19.2544 C.ar    1  UNL1       -0.0003
     55 C           4.5138   -4.0478   20.5889 C.ar    1  UNL1       -0.0043
@<TRIPOS>BOND
     1    15    16    1
     2    16    17    1
     3    16    18    1
     4    16    11    1
     5    11    12   am
     6    12    13    2
     7     5    12    1
     8     5     6    1
     9     6     7    1
    10     7    19    1
    11    19    20    1
    12    19    21    1
    13    19    22    1
    14    22    23   ar
    15    23    24   ar
    16    24    25   ar
    17    25    26   ar
    18    26    27   ar
    19    27    28   ar
    20    28    29   ar
    21    29    30   ar
    22     7     8    1
    23     8     9    1
    24     9    10    1
    25    10     4    1
    26     4     1    1
    27     1     2    1
    28     1    31    1
    29    32    31    1
    30    32    49    1
    31    49    50    1
    32    50    51   ar
    33    51    52   ar
    34    52    53   ar
    35    53    54   ar
    36    54    55   ar
    37    32    33    1
    38    33    34    2
    39    33    35   am
    40    37    35    1
    41    37    38    1
    42    38    39   ar
    43    39    40   ar
    44    40    41   ar
    45    41    42   ar
    46    42    43   ar
    47    43    44    1
    48    44    45    1
    49    45    46    1
    50    46    47    1
    51    10     5    1
    52    55    50   ar
    53    46    37    1
    54    30    22   ar
    55    43    38   ar
    56    29    24   ar
    57    11    14    1
    58     2     3    1
    59    35    36    1
    60    47    48    1
@<TRIPOS>MOLECULE
*****
 55 60 0 0 0
SMALL
GASTEIGER

@<TRIPOS>ATOM
      1 C           1.0469    2.6601   22.3180 C.3     1  UNL1        0.1269
      2 O          -0.1539    1.8728   22.7519 O.3     1  UNL1       -0.3830
      3 H           0.0226    1.4621   23.6128 H       1  UNL1        0.2104
      4 C           2.2657    2.7114   23.1909 C.3     1  UNL1        0.1021
      5 C           2.9397    0.7399   24.7429 C.3     1  UNL1        0.1510
      6 C           3.7392   -0.5052   24.9886 C.3     1  UNL1        0.0980
      7 N           4.6643   -1.0239   23.9280 N.3     1  UNL1       -0.2663
      8 C           4.7899   -0.2975   22.6215 C.3     1  UNL1        0.0899
      9 C           3.9904    0.9476   22.3759 C.3     1  UNL1        0.0901
     10 N           3.0652    1.4663   23.4366 N.3     1  UNL1       -0.2621
     11 N           0.6723    0.6201   26.0059 N.am    1  UNL1       -0.3063
     12 C           2.0146    1.2586   25.8036 C.2     1  UNL1        0.2383
     13 O           2.4316    2.4159   26.6620 O.2     1  UNL1       -0.2736
     14 H           0.3986   -0.1394   25.4425 H       1  UNL1        0.1493
     15 C           0.3593    0.1973   28.0609 C.3     1  UNL1        0.0196
     16 C          -0.2528    1.1389   27.0665 C.3     1  UNL1        0.0569
     17 C          -0.8648    2.0805   26.0722 C.3     1  UNL1        0.0196
     18 C          -1.1779    1.6576   28.1273 C.3     1  UNL1        0.0196
     19 C           5.4639   -2.2691   24.1736 C.3     1  UNL1        0.0969
     20 C           4.7483   -2.9512   23.0456 C.3     1  UNL1        0.0238
     21 C           6.1796   -1.5869   25.3017 C.3     1  UNL1        0.0238
     22 C           6.2635   -3.5142   24.4193 C.ar    1  UNL1        0.1356
     23 C           6.5296   -4.1418   25.7555 C.ar    1  UNL1        0.0388
     24 C           7.3679   -5.3659   25.5339 C.ar    1  UNL1        0.0564
     25 C           7.9344   -6.3797   26.4832 C.ar    1  UNL1        0.1020
     26 N           8.7528   -7.5224   25.9594 N.ar    1  UNL1       -0.2421
     27 C           9.0047   -7.6513   24.4863 C.ar    1  UNL1        0.1020
     28 C           8.4383   -6.6374   23.5370 C.ar    1  UNL1        0.0581
     29 C           7.6199   -5.4947   24.0608 C.ar    1  UNL1        0.1479
     30 O           6.9373   -4.3503   23.3720 O.2     1  UNL1       -0.4564
     31 C           1.0289    3.3960   21.0110 C.3     1  UNL1        0.0401
     32 C          -0.0240    3.0843   19.9892 C.3     1  UNL1        0.0833
     33 C          -1.4025    3.6576   20.1338 C.2     1  UNL1        0.2226
     34 O          -1.6858    5.0557   19.6700 O.2     1  UNL1       -0.2751
     35 N          -2.4978    2.8328   20.7421 N.am    1  UNL1       -0.2999
     36 H          -2.3119    1.9152   21.0465 H       1  UNL1        0.1498
     37 C          -3.8763    3.4061   20.8867 C.3     1  UNL1        0.1278
     38 C          -4.4442    3.6587   22.2520 C.ar    1  UNL1        0.0320
     39 C          -3.6334    3.3380   23.4725 C.ar    1  UNL1        0.0004
     40 C          -4.2013    3.5906   24.8377 C.ar    1  UNL1       -0.0001
     41 C          -5.5798    4.1639   24.9823 C.ar    1  UNL1        0.0031
     42 C          -6.3906    4.4846   23.7617 C.ar    1  UNL1        0.0366
     43 C          -5.8227    4.2320   22.3966 C.ar    1  UNL1        0.1362
     44 O          -6.6335    4.5527   21.1759 O.3     1  UNL1       -0.4730
     45 C          -6.0656    4.3001   19.8108 C.3     1  UNL1        0.2364
     46 C          -4.6871    3.7268   19.6662 C.3     1  UNL1        0.1762
     47 O          -4.1193    3.4742   18.3009 O.3     1  UNL1       -0.3788
     48 H          -4.7675    3.7344   17.6279 H       1  UNL1        0.2106
     49 C           0.3017    2.1993   18.8227 C.3     1  UNL1        0.0355
     50 C           1.2887    1.0811   18.9821 C.ar    1  UNL1       -0.0217
     51 C           2.6107    1.1413   18.2759 C.ar    1  UNL1       -0.0043
     52 C           3.5978    0.0231   18.4354 C.ar    1  UNL1       -0.0003
     53 C           3.2629   -1.1552   19.3010 C.ar    1  UNL1       -0.0000
     54 C           1.9408   -1.2154   20.0072 C.ar    1  UNL1       -0.0003
     55 C           0.9538   -0.0972   19.8477 C.ar    1  UNL1       -0.0043
@<TRIPOS>BOND
     1    15    16    1
     2    16    17    1
     3    16    18    1
     4    16    11    1
     5    11    12   am
     6    12    13    2
     7     5    12    1
     8     5     6    1
     9     6     7    1
    10     7    19    1
    11    19    20    1
    12    19    21    1
    13    19    22    1
    14    22    23   ar
    15    23    24   ar
    16    24    25   ar
    17    25    26   ar
    18    26    27   ar
    19    27    28   ar
    20    28    29   ar
    21    29    30   ar
    22     7     8    1
    23     8     9    1
    24     9    10    1
    25    10     4    1
    26     4     1    1
    27     1     2    1
    28     1    31    1
    29    32    31    1
    30    32    49    1
    31    49    50    1
    32    50    51   ar
    33    51    52   ar
    34    52    53   ar
    35    53    54   ar
    36    54    55   ar
    37    32    33    1
    38    33    34    2
    39    33    35   am
    40    37    35    1
    41    37    38    1
    42    38    39   ar
    43    39    40   ar
    44    40    41   ar
    45    41    42   ar
    46    42    43   ar
    47    43    44    1
    48    44    45    1
    49    45    46    1
    50    46    47    1
    51    10     5    1
    52    55    50   ar
    53    46    37    1
    54    30    22   ar
    55    43    38   ar
    56    29    24   ar
    57    11    14    1
    58     2     3    1
    59    35    36    1
    60    47    48    1
@<TRIPOS>MOLECULE
*****
 55 60 0 0 0
SMALL
GASTEIGER

@<TRIPOS>ATOM
      1 C           4.3905   -1.5005   26.6627 C.3     1  UNL1        0.1269
      2 O           5.3228   -2.5146   27.2563 O.3     1  UNL1       -0.3830
      3 H           4.9528   -2.8450   28.0898 H       1  UNL1        0.2104
      4 C           3.1132   -1.1524   27.3681 C.3     1  UNL1        0.1021
      5 C           2.0480    0.2133   29.3046 C.3     1  UNL1        0.1510
      6 C           2.0834    0.7018   30.7224 C.3     1  UNL1        0.0980
      7 N           3.2195    0.3132   31.6214 N.3     1  UNL1       -0.2663
      8 C           4.3202   -0.5639   31.1027 C.3     1  UNL1        0.0899
      9 C           4.2848   -1.0525   29.6849 C.3     1  UNL1        0.0901
     10 N           3.1486   -0.6638   28.7859 N.3     1  UNL1       -0.2621
     11 N           1.0859    1.7151   27.4154 N.am    1  UNL1       -0.3063
     12 C           0.9119    0.6018   28.4056 C.2     1  UNL1        0.2383
     13 O          -0.3983   -0.1229   28.4967 O.2     1  UNL1       -0.2736
     14 H           1.9458    2.1908   27.3557 H       1  UNL1        0.1493
     15 C          -0.5750    3.0246   27.5777 C.3     1  UNL1        0.0196
     16 C          -0.0501    2.1037   26.5164 C.3     1  UNL1        0.0569
     17 C           0.4748    1.1828   25.4551 C.3     1  UNL1        0.0196
     18 C          -1.1863    2.4923   25.6174 C.3     1  UNL1        0.0196
     19 C           3.2549    0.8018   33.0392 C.3     1  UNL1        0.0969
     20 C           2.1632    1.7824   32.7285 C.3     1  UNL1        0.0238
     21 C           4.3465   -0.1789   33.3498 C.3     1  UNL1        0.0238
     22 C           3.2903    1.2903   34.4570 C.ar    1  UNL1        0.1356
     23 C           4.2727    0.8704   35.5099 C.ar    1  UNL1        0.0388
     24 C           3.9390    1.6052   36.7744 C.ar    1  UNL1        0.0564
     25 C           4.5639    1.5913   38.1380 C.ar    1  UNL1        0.1020
     26 N           4.0003    2.4513   39.2300 N.ar    1  UNL1       -0.2421
     27 C           2.8118    3.3252   38.9586 C.ar    1  UNL1        0.1020
     28 C           2.1869    3.3391   37.5951 C.ar    1  UNL1        0.0581
     29 C           2.7505    2.4790   36.5030 C.ar    1  UNL1        0.1479
     30 O           2.3495    2.2844   35.0707 O.2     1  UNL1       -0.4564
     31 C           4.7353   -0.8345   25.3636 C.3     1  UNL1        0.0401
     32 C           4.3243   -1.4641   24.0657 C.3     1  UNL1        0.0833
     33 C           5.0660   -2.6587   23.5435 C.2     1  UNL1        0.2226
     34 O           4.3526   -3.6759   22.7028 O.2     1  UNL1       -0.2751
     35 N           6.5210   -2.8363   23.8619 N.am    1  UNL1       -0.2999
     36 H           6.9891   -2.1687   24.4137 H       1  UNL1        0.1498
     37 C           7.2627   -4.0309   23.3397 C.3     1  UNL1        0.1278
     38 C           7.4738   -5.2266   24.2205 C.ar    1  UNL1        0.0320
     39 C           6.9432   -5.2276   25.6235 C.ar    1  UNL1        0.0004
     40 C           7.1543   -6.4233   26.5043 C.ar    1  UNL1       -0.0001
     41 C           7.8960   -7.6179   25.9820 C.ar    1  UNL1        0.0031
     42 C           8.4266   -7.6169   24.5791 C.ar    1  UNL1        0.0366
     43 C           8.2155   -6.4212   23.6983 C.ar    1  UNL1        0.1362
     44 O           8.7461   -6.4202   22.2952 O.3     1  UNL1       -0.4730
     45 C           8.5350   -5.2245   21.4145 C.3     1  UNL1        0.2364
     46 C           7.7933   -4.0299   21.9367 C.3     1  UNL1        0.1762
     47 O           7.5822   -2.8342   21.0559 O.3     1  UNL1       -0.3788
     48 H           7.9846   -2.9966   20.1883 H       1  UNL1        0.2106
     49 C           3.1714   -0.8991   23.2899 C.3     1  UNL1        0.0355
     50 C           3.3452   -0.5379   21.8445 C.ar    1  UNL1       -0.0217
     51 C           2.2630   -0.8574   20.8563 C.ar    1  UNL1       -0.0043
     52 C           2.4367   -0.4962   19.4108 C.ar    1  UNL1       -0.0003
     53 C           3.6927    0.1846   18.9536 C.ar    1  UNL1       -0.0000
     54 C           4.7750    0.5041   19.9419 C.ar    1  UNL1       -0.0003
     55 C           4.6012    0.1429   21.3873 C.ar    1  UNL1       -0.0043
@<TRIPOS>BOND
     1    15    16    1
     2    16    17    1
     3    16    18    1
     4    16    11    1
     5    11    12   am
     6    12    13    2
     7     5    12    1
     8     5     6    1
     9     6     7    1
    10     7    19    1
    11    19    20    1
    12    19    21    1
    13    19    22    1
    14    22    23   ar
    15    23    24   ar
    16    24    25   ar
    17    25    26   ar
    18    26    27   ar
    19    27    28   ar
    20    28    29   ar
    21    29    30   ar
    22     7     8    1
    23     8     9    1
    24     9    10    1
    25    10     4    1
    26     4     1    1
    27     1     2    1
    28     1    31    1
    29    32    31    1
    30    32    49    1
    31    49    50    1
    32    50    51   ar
    33    51    52   ar
    34    52    53   ar
    35    53    54   ar
    36    54    55   ar
    37    32    33    1
    38    33    34    2
    39    33    35   am
    40    37    35    1
    41    37    38    1
    42    38    39   ar
    43    39    40   ar
    44    40    41   ar
    45    41    42   ar
    46    42    43   ar
    47    43    44    1
    48    44    45    1
    49    45    46    1
    50    46    47    1
    51    10     5    1
    52    55    50   ar
    53    46    37    1
    54    30    22   ar
    55    43    38   ar
    56    29    24   ar
    57    11    14    1
    58     2     3    1
    59    35    36    1
    60    47    48    1
@<TRIPOS>MOLECULE
*****
 55 60 0 0 0
SMALL
GASTEIGER

@<TRIPOS>ATOM
      1 C           5.4962   -2.6239   32.4667 C.3     1  UNL1        0.1269
      2 O           5.7670   -4.0539   32.8296 O.3     1  UNL1       -0.3830
      3 H           6.5252   -4.3790   32.3194 H       1  UNL1        0.2104
      4 C           6.3548   -1.9328   31.4492 C.3     1  UNL1        0.1021
      5 C           6.5381   -2.7487   28.9894 C.3     1  UNL1        0.1510
      6 C           6.0926   -2.6730   27.5591 C.3     1  UNL1        0.0980
      7 N           5.0184   -1.7059   27.1583 N.3     1  UNL1       -0.2663
      8 C           4.3895   -0.8144   28.1878 C.3     1  UNL1        0.0899
      9 C           4.8350   -0.8900   29.6181 C.3     1  UNL1        0.0901
     10 N           5.9093   -1.8572   30.0189 N.3     1  UNL1       -0.2621
     11 N           7.3215   -5.1869   29.4270 N.am    1  UNL1       -0.3063
     12 C           7.6123   -3.7157   29.3902 C.2     1  UNL1        0.2383
     13 O           8.9774   -3.2118   29.7543 O.2     1  UNL1       -0.2736
     14 H           6.4255   -5.5176   29.1881 H       1  UNL1        0.1493
     15 C           8.8297   -6.2652   28.3963 C.3     1  UNL1        0.0196
     16 C           8.3957   -6.1540   29.8278 C.3     1  UNL1        0.0569
     17 C           7.9618   -6.0427   31.2593 C.3     1  UNL1        0.0196
     18 C           9.4701   -7.1211   30.2286 C.3     1  UNL1        0.0196
     19 C           4.5729   -1.6303   25.7279 C.3     1  UNL1        0.0969
     20 C           3.4407   -0.7315   26.1281 C.3     1  UNL1        0.0238
     21 C           5.7051   -2.5292   25.3278 C.3     1  UNL1        0.0238
     22 C           4.1274   -1.5547   24.2976 C.ar    1  UNL1        0.1356
     23 C           4.6089   -2.4277   23.1768 C.ar    1  UNL1        0.0388
     24 C           3.9013   -2.0053   21.9235 C.ar    1  UNL1        0.0564
     25 C           3.9749   -2.5068   20.5117 C.ar    1  UNL1        0.1020
     26 N           3.1297   -1.8743   19.4462 N.ar    1  UNL1       -0.2421
     27 C           2.2108   -0.7404   19.7923 C.ar    1  UNL1        0.1020
     28 C           2.1372   -0.2389   21.2040 C.ar    1  UNL1        0.0581
     29 C           2.9824   -0.8713   22.2696 C.ar    1  UNL1        0.1479
     30 O           3.1222   -0.5929   23.7369 O.2     1  UNL1       -0.4564
     31 C           4.3667   -1.8850   33.1211 C.3     1  UNL1        0.0401
     32 C           4.6258   -0.5801   33.8140 C.3     1  UNL1        0.0833
     33 C           3.9596    0.6726   33.3275 C.2     1  UNL1        0.2226
     34 O           4.7165    1.6378   32.4640 O.2     1  UNL1       -0.2751
     35 N           2.5365    0.9602   33.7045 N.am    1  UNL1       -0.2999
     36 H           2.0397    0.3268   34.2712 H       1  UNL1        0.1498
     37 C           1.8703    2.2130   33.2180 C.3     1  UNL1        0.1278
     38 C           1.8304    3.4300   34.0941 C.ar    1  UNL1        0.0320
     39 C           2.4567    3.3942   35.4565 C.ar    1  UNL1        0.0004
     40 C           2.4168    4.6111   36.3325 C.ar    1  UNL1       -0.0001
     41 C           1.7505    5.8639   35.8460 C.ar    1  UNL1        0.0031
     42 C           1.1242    5.8997   34.4836 C.ar    1  UNL1        0.0366
     43 C           1.1641    4.6828   33.6076 C.ar    1  UNL1        0.1362
     44 O           0.5378    4.7186   32.2450 O.3     1  UNL1       -0.4730
     45 C           0.5777    3.5016   31.3690 C.3     1  UNL1        0.2364
     46 C           1.2440    2.2489   31.8555 C.3     1  UNL1        0.1762
     47 O           1.2839    1.0319   30.9794 O.3     1  UNL1       -0.3788
     48 H           0.8375    1.2232   30.1397 H       1  UNL1        0.2106
     49 C           5.5512   -0.5280   34.9934 C.3     1  UNL1        0.0355
     50 C           5.3370    0.4941   36.0701 C.ar    1  UNL1       -0.0217
     51 C           6.1846    1.7310   36.1093 C.ar    1  UNL1       -0.0043
     52 C           5.9705    2.7532   37.1860 C.ar    1  UNL1       -0.0003
     53 C           4.9087    2.5385   38.2236 C.ar    1  UNL1       -0.0000
     54 C           4.0611    1.3015   38.1844 C.ar    1  UNL1       -0.0003
     55 C           4.2752    0.2794   37.1077 C.ar    1  UNL1       -0.0043
@<TRIPOS>BOND
     1    15    16    1
     2    16    17    1
     3    16    18    1
     4    16    11    1
     5    11    12   am
     6    12    13    2
     7     5    12    1
     8     5     6    1
     9     6     7    1
    10     7    19    1
    11    19    20    1
    12    19    21    1
    13    19    22    1
    14    22    23   ar
    15    23    24   ar
    16    24    25   ar
    17    25    26   ar
    18    26    27   ar
    19    27    28   ar
    20    28    29   ar
    21    29    30   ar
    22     7     8    1
    23     8     9    1
    24     9    10    1
    25    10     4    1
    26     4     1    1
    27     1     2    1
    28     1    31    1
    29    32    31    1
    30    32    49    1
    31    49    50    1
    32    50    51   ar
    33    51    52   ar
    34    52    53   ar
    35    53    54   ar
    36    54    55   ar
    37    32    33    1
    38    33    34    2
    39    33    35   am
    40    37    35    1
    41    37    38    1
    42    38    39   ar
    43    39    40   ar
    44    40    41   ar
    45    41    42   ar
    46    42    43   ar
    47    43    44    1
    48    44    45    1
    49    45    46    1
    50    46    47    1
    51    10     5    1
    52    55    50   ar
    53    46    37    1
    54    30    22   ar
    55    43    38   ar
    56    29    24   ar
    57    11    14    1
    58     2     3    1
    59    35    36    1
    60    47    48    1
@<TRIPOS>MOLECULE
*****
 55 60 0 0 0
SMALL
GASTEIGER

@<TRIPOS>ATOM
      1 C           5.5282   -2.0403   26.2261 C.3     1  UNL1        0.1269
      2 O           4.0498   -2.0330   26.4795 O.3     1  UNL1       -0.3830
      3 H           3.8509   -1.4339   27.2160 H       1  UNL1        0.2104
      4 C           6.4377   -1.1952   27.0680 C.3     1  UNL1        0.1021
      5 C           6.3640   -1.6005   29.6332 C.3     1  UNL1        0.1510
      6 C           5.9329   -1.1713   31.0043 C.3     1  UNL1        0.0980
      7 N           5.1445    0.0924   31.1813 N.3     1  UNL1       -0.2663
      8 C           4.7871    0.9270   29.9872 C.3     1  UNL1        0.0899
      9 C           5.2181    0.4978   28.6161 C.3     1  UNL1        0.0901
     10 N           6.0066   -0.7660   28.4391 N.3     1  UNL1       -0.2621
     11 N           6.4430   -4.1809   29.3415 N.am    1  UNL1       -0.3063
     12 C           7.1524   -2.8642   29.4561 C.2     1  UNL1        0.2383
     13 O           8.6501   -2.8112   29.3936 O.2     1  UNL1       -0.2736
     14 H           5.4600   -4.2157   29.3825 H       1  UNL1        0.1493
     15 C           7.2031   -5.2539   27.6769 C.3     1  UNL1        0.0196
     16 C           7.2314   -5.4446   29.1644 C.3     1  UNL1        0.0569
     17 C           7.2598   -5.6354   30.6520 C.3     1  UNL1        0.0196
     18 C           8.0199   -6.7084   28.9873 C.3     1  UNL1        0.0196
     19 C           4.7134    0.5216   32.5525 C.3     1  UNL1        0.0969
     20 C           3.2932    0.1779   32.2136 C.3     1  UNL1        0.0238
     21 C           6.1337    0.8653   32.8914 C.3     1  UNL1        0.0238
     22 C           4.2824    0.9508   33.9236 C.ar    1  UNL1        0.1356
     23 C           4.6946    0.3133   35.2173 C.ar    1  UNL1        0.0388
     24 C           4.0304    1.0614   36.3350 C.ar    1  UNL1        0.0564
     25 C           4.0684    0.8832   37.8239 C.ar    1  UNL1        0.1020
     26 N           3.2838    1.8048   38.7098 N.ar    1  UNL1       -0.2421
     27 C           2.4611    2.9046   38.1069 C.ar    1  UNL1        0.1020
     28 C           2.4231    3.0829   36.6180 C.ar    1  UNL1        0.0581
     29 C           3.2077    2.1612   35.7321 C.ar    1  UNL1        0.1479
     30 O           3.3635    2.0929   34.2418 O.2     1  UNL1       -0.4564
     31 C           6.0972   -2.8928   25.1309 C.3     1  UNL1        0.0401
     32 C           5.8624   -2.5253   23.6957 C.3     1  UNL1        0.0833
     33 C           4.9802   -1.3612   23.3542 C.2     1  UNL1        0.2226
     34 O           5.5871   -0.0219   23.0575 O.2     1  UNL1       -0.2751
     35 N           3.4911   -1.5363   23.3095 N.am    1  UNL1       -0.2999
     36 H           3.0928   -2.4153   23.5043 H       1  UNL1        0.1498
     37 C           2.6090   -0.3722   22.9680 C.3     1  UNL1        0.1278
     38 C           2.3297   -0.0385   21.5325 C.ar    1  UNL1        0.0320
     39 C           2.9327   -0.8689   20.4385 C.ar    1  UNL1        0.0004
     40 C           2.6535   -0.5352   19.0030 C.ar    1  UNL1       -0.0001
     41 C           1.7713    0.6289   18.6615 C.ar    1  UNL1        0.0031
     42 C           1.1683    1.4593   19.7555 C.ar    1  UNL1        0.0366
     43 C           1.4475    1.1256   21.1910 C.ar    1  UNL1        0.1362
     44 O           0.8446    1.9560   22.2851 O.3     1  UNL1       -0.4730
     45 C           1.1238    1.6222   23.7205 C.3     1  UNL1        0.2364
     46 C           2.0060    0.4581   24.0620 C.3     1  UNL1        0.1762
     47 O           2.2852    0.1244   25.4976 O.3     1  UNL1       -0.3788
     48 H           1.8226    0.7546   26.0719 H       1  UNL1        0.2106
     49 C           6.5098   -3.3220   22.6019 C.3     1  UNL1        0.0355
     50 C           5.8273   -3.4654   21.2739 C.ar    1  UNL1       -0.0217
     51 C           4.5683   -4.2730   21.1611 C.ar    1  UNL1       -0.0043
     52 C           3.8858   -4.4165   19.8330 C.ar    1  UNL1       -0.0003
     53 C           4.4623   -3.7524   18.6179 C.ar    1  UNL1       -0.0000
     54 C           5.7213   -2.9448   18.7308 C.ar    1  UNL1       -0.0003
     55 C           6.4038   -2.8013   20.0588 C.ar    1  UNL1       -0.0043
@<TRIPOS>BOND
     1    15    16    1
     2    16    17    1
     3    16    18    1
     4    16    11    1
     5    11    12   am
     6    12    13    2
     7     5    12    1
     8     5     6    1
     9     6     7    1
    10     7    19    1
    11    19    20    1
    12    19    21    1
    13    19    22    1
    14    22    23   ar
    15    23    24   ar
    16    24    25   ar
    17    25    26   ar
    18    26    27   ar
    19    27    28   ar
    20    28    29   ar
    21    29    30   ar
    22     7     8    1
    23     8     9    1
    24     9    10    1
    25    10     4    1
    26     4     1    1
    27     1     2    1
    28     1    31    1
    29    32    31    1
    30    32    49    1
    31    49    50    1
    32    50    51   ar
    33    51    52   ar
    34    52    53   ar
    35    53    54   ar
    36    54    55   ar
    37    32    33    1
    38    33    34    2
    39    33    35   am
    40    37    35    1
    41    37    38    1
    42    38    39   ar
    43    39    40   ar
    44    40    41   ar
    45    41    42   ar
    46    42    43   ar
    47    43    44    1
    48    44    45    1
    49    45    46    1
    50    46    47    1
    51    10     5    1
    52    55    50   ar
    53    46    37    1
    54    30    22   ar
    55    43    38   ar
    56    29    24   ar
    57    11    14    1
    58     2     3    1
    59    35    36    1
    60    47    48    1
@<TRIPOS>MOLECULE
*****
 55 60 0 0 0
SMALL
GASTEIGER

@<TRIPOS>ATOM
      1 C          -0.1039    2.9424   22.8048 C.3     1  UNL1        0.1269
      2 O          -0.4868    4.3146   23.2745 O.3     1  UNL1       -0.3830
      3 H          -0.7878    4.2688   24.1955 H       1  UNL1        0.2104
      4 C          -0.2228    1.7711   23.7344 C.3     1  UNL1        0.1021
      5 C           1.4414    1.5613   25.7183 C.3     1  UNL1        0.1510
      6 C           1.7519    1.7266   27.1765 C.3     1  UNL1        0.0980
      7 N           0.7086    2.2669   28.1089 N.3     1  UNL1       -0.2663
      8 C          -0.6453    2.6421   27.5831 C.3     1  UNL1        0.0899
      9 C          -0.9558    2.4768   26.1250 C.3     1  UNL1        0.0901
     10 N           0.0876    1.9364   25.1925 N.3     1  UNL1       -0.2621
     11 N           2.3731   -0.3823   24.2676 N.am    1  UNL1       -0.3063
     12 C           2.4848    1.0209   24.7859 C.2     1  UNL1        0.2383
     13 O           3.6398    1.8837   24.3718 O.2     1  UNL1       -0.2736
     14 H           1.6151   -0.9486   24.5394 H       1  UNL1        0.1493
     15 C           4.1758   -1.4749   24.5050 C.3     1  UNL1        0.0196
     16 C           3.4164   -0.9227   23.3352 C.3     1  UNL1        0.0569
     17 C           2.6571   -0.3705   22.1655 C.3     1  UNL1        0.0196
     18 C           4.4599   -1.4631   22.4028 C.3     1  UNL1        0.0196
     19 C           1.0190    2.4322   29.5671 C.3     1  UNL1        0.0969
     20 C           1.2706    0.9578   29.6806 C.3     1  UNL1        0.0238
     21 C           0.7675    3.9066   29.4536 C.3     1  UNL1        0.0238
     22 C           1.3295    2.5974   31.0253 C.ar    1  UNL1        0.1356
     23 C           0.8438    3.7073   31.9099 C.ar    1  UNL1        0.0388
     24 C           1.3943    3.4776   33.2862 C.ar    1  UNL1        0.0564
     25 C           1.2502    4.2466   34.5660 C.ar    1  UNL1        0.1020
     26 N           1.9320    3.7638   35.8118 N.ar    1  UNL1       -0.2421
     27 C           2.7579    2.5121   35.7778 C.ar    1  UNL1        0.1020
     28 C           2.9020    1.7432   34.4980 C.ar    1  UNL1        0.0581
     29 C           2.2202    2.2259   33.2522 C.ar    1  UNL1        0.1479
     30 O           2.1801    1.6820   31.8549 O.2     1  UNL1       -0.4564
     31 C           0.3978    2.7415   21.4055 C.3     1  UNL1        0.0401
     32 C          -0.4946    3.0433   20.2382 C.3     1  UNL1        0.0833
     33 C          -1.8463    3.6526   20.4653 C.2     1  UNL1        0.2226
     34 O          -1.9840    5.1393   20.6101 O.2     1  UNL1       -0.2751
     35 N          -3.0602    2.7754   20.5477 N.am    1  UNL1       -0.2999
     36 H          -2.9698    1.7997   20.4527 H       1  UNL1        0.1498
     37 C          -4.4119    3.3848   20.7748 C.3     1  UNL1        0.1278
     38 C          -4.8847    3.6619   22.1711 C.ar    1  UNL1        0.0320
     39 C          -4.0058    3.3296   23.3403 C.ar    1  UNL1        0.0004
     40 C          -4.4786    3.6067   24.7366 C.ar    1  UNL1       -0.0001
     41 C          -5.8303    4.2161   24.9637 C.ar    1  UNL1        0.0031
     42 C          -6.7092    4.5484   23.7945 C.ar    1  UNL1        0.0366
     43 C          -6.2364    4.2713   22.3982 C.ar    1  UNL1        0.1362
     44 O          -7.1153    4.6036   21.2289 O.3     1  UNL1       -0.4730
     45 C          -6.6425    4.3265   19.8327 C.3     1  UNL1        0.2364
     46 C          -5.2908    3.7171   19.6056 C.3     1  UNL1        0.1762
     47 O          -4.8180    3.4400   18.2092 O.3     1  UNL1       -0.3788
     48 H          -5.5013    3.7118   17.5766 H       1  UNL1        0.2106
     49 C          -0.0353    2.7356   18.8438 C.3     1  UNL1        0.0355
     50 C           1.3004    2.0910   18.6192 C.ar    1  UNL1       -0.0217
     51 C           2.5354    2.9371   18.5267 C.ar    1  UNL1       -0.0043
     52 C           3.8711    2.2925   18.3020 C.ar    1  UNL1       -0.0003
     53 C           3.9717    0.8017   18.1699 C.ar    1  UNL1       -0.0000
     54 C           2.7365   -0.0445   18.2624 C.ar    1  UNL1       -0.0003
     55 C           1.4009    0.6002   18.4870 C.ar    1  UNL1       -0.0043
@<TRIPOS>BOND
     1    15    16    1
     2    16    17    1
     3    16    18    1
     4    16    11    1
     5    11    12   am
     6    12    13    2
     7     5    12    1
     8     5     6    1
     9     6     7    1
    10     7    19    1
    11    19    20    1
    12    19    21    1
    13    19    22    1
    14    22    23   ar
    15    23    24   ar
    16    24    25   ar
    17    25    26   ar
    18    26    27   ar
    19    27    28   ar
    20    28    29   ar
    21    29    30   ar
    22     7     8    1
    23     8     9    1
    24     9    10    1
    25    10     4    1
    26     4     1    1
    27     1     2    1
    28     1    31    1
    29    32    31    1
    30    32    49    1
    31    49    50    1
    32    50    51   ar
    33    51    52   ar
    34    52    53   ar
    35    53    54   ar
    36    54    55   ar
    37    32    33    1
    38    33    34    2
    39    33    35   am
    40    37    35    1
    41    37    38    1
    42    38    39   ar
    43    39    40   ar
    44    40    41   ar
    45    41    42   ar
    46    42    43   ar
    47    43    44    1
    48    44    45    1
    49    45    46    1
    50    46    47    1
    51    10     5    1
    52    55    50   ar
    53    46    37    1
    54    30    22   ar
    55    43    38   ar
    56    29    24   ar
    57    11    14    1
    58     2     3    1
    59    35    36    1
    60    47    48    1
@<TRIPOS>MOLECULE
*****
 55 60 0 0 0
SMALL
GASTEIGER

@<TRIPOS>ATOM
      1 C           2.1965    1.5177   31.8144 C.3     1  UNL1        0.1269
      2 O           0.8627    1.7380   32.4642 O.3     1  UNL1       -0.3830
      3 H           0.4093    2.4770   32.0294 H       1  UNL1        0.2104
      4 C           2.6278    2.3899   30.6727 C.3     1  UNL1        0.1021
      5 C           1.6845    1.5165   28.4150 C.3     1  UNL1        0.1510
      6 C           0.7870    1.6943   27.2264 C.3     1  UNL1        0.0980
      7 N          -0.0646    2.9232   27.1068 N.3     1  UNL1       -0.2663
      8 C          -0.0188    3.9745   28.1758 C.3     1  UNL1        0.0899
      9 C           0.8787    3.7967   29.3645 C.3     1  UNL1        0.0901
     10 N           1.7303    2.5677   29.4841 N.3     1  UNL1       -0.2621
     11 N           3.9471    0.3003   28.0255 N.am    1  UNL1       -0.3063
     12 C           2.5361    0.2876   28.5347 C.2     1  UNL1        0.2383
     13 O           1.9769   -0.9542   29.1635 O.2     1  UNL1       -0.2736
     14 H           4.3141    1.1153   27.6128 H       1  UNL1        0.1493
     15 C           5.2916   -0.4570   29.4809 C.3     1  UNL1        0.0196
     16 C           4.7987   -0.9286   28.1451 C.3     1  UNL1        0.0569
     17 C           4.3058   -1.4002   26.8092 C.3     1  UNL1        0.0196
     18 C           5.6504   -2.1576   28.2647 C.3     1  UNL1        0.0196
     19 C          -0.9621    3.1010   25.9181 C.3     1  UNL1        0.0969
     20 C          -0.4647    1.8055   25.3488 C.3     1  UNL1        0.0238
     21 C          -1.4595    4.3966   26.4874 C.3     1  UNL1        0.0238
     22 C          -1.8596    3.2788   24.7295 C.ar    1  UNL1        0.1356
     23 C          -3.3535    3.4105   24.7644 C.ar    1  UNL1        0.0388
     24 C          -3.8379    3.5692   23.3537 C.ar    1  UNL1        0.0564
     25 C          -5.2123    3.7400   22.7777 C.ar    1  UNL1        0.1020
     26 N          -5.3924    3.8771   21.2949 N.ar    1  UNL1       -0.2421
     27 C          -4.1980    3.8435   20.3881 C.ar    1  UNL1        0.1020
     28 C          -2.8236    3.6728   20.9641 C.ar    1  UNL1        0.0581
     29 C          -2.6435    3.5356   22.4468 C.ar    1  UNL1        0.1479
     30 O          -1.4209    3.3561   23.2971 O.2     1  UNL1       -0.4564
     31 C           3.0991    0.4252   32.3061 C.3     1  UNL1        0.0401
     32 C           3.7099    0.5154   33.6731 C.3     1  UNL1        0.0833
     33 C           3.6895    1.8164   34.4194 C.2     1  UNL1        0.2226
     34 O           4.8455    2.7654   34.3041 O.2     1  UNL1       -0.2751
     35 N           2.5132    2.1685   35.2809 N.am    1  UNL1       -0.2999
     36 H           1.7545    1.5457   35.3565 H       1  UNL1        0.1498
     37 C           2.4928    3.4695   36.0271 C.3     1  UNL1        0.1278
     38 C           3.2561    3.6099   37.3108 C.ar    1  UNL1        0.0320
     39 C           4.0398    2.4493   37.8481 C.ar    1  UNL1        0.0004
     40 C           4.8031    2.5898   39.1317 C.ar    1  UNL1       -0.0001
     41 C           4.7827    3.8908   39.8780 C.ar    1  UNL1        0.0031
     42 C           3.9990    5.0514   39.3406 C.ar    1  UNL1        0.0366
     43 C           3.2357    4.9110   38.0570 C.ar    1  UNL1        0.1362
     44 O           2.4519    6.0716   37.5196 O.3     1  UNL1       -0.4730
     45 C           1.6887    5.9312   36.2360 C.3     1  UNL1        0.2364
     46 C           1.7091    4.6302   35.4898 C.3     1  UNL1        0.1762
     47 O           0.9458    4.4898   34.2061 O.3     1  UNL1       -0.3788
     48 H           0.4982    5.3260   34.0030 H       1  UNL1        0.2106
     49 C           4.3413   -0.6955   34.2939 C.3     1  UNL1        0.0355
     50 C           5.4176   -1.4394   33.5605 C.ar    1  UNL1       -0.0217
     51 C           6.7989   -0.8620   33.4682 C.ar    1  UNL1       -0.0043
     52 C           7.8754   -1.6059   32.7347 C.ar    1  UNL1       -0.0003
     53 C           7.5705   -2.9273   32.0936 C.ar    1  UNL1       -0.0000
     54 C           6.1891   -3.5047   32.1859 C.ar    1  UNL1       -0.0003
     55 C           5.1127   -2.7608   32.9193 C.ar    1  UNL1       -0.0043
@<TRIPOS>BOND
     1    15    16    1
     2    16    17    1
     3    16    18    1
     4    16    11    1
     5    11    12   am
     6    12    13    2
     7     5    12    1
     8     5     6    1
     9     6     7    1
    10     7    19    1
    11    19    20    1
    12    19    21    1
    13    19    22    1
    14    22    23   ar
    15    23    24   ar
    16    24    25   ar
    17    25    26   ar
    18    26    27   ar
    19    27    28   ar
    20    28    29   ar
    21    29    30   ar
    22     7     8    1
    23     8     9    1
    24     9    10    1
    25    10     4    1
    26     4     1    1
    27     1     2    1
    28     1    31    1
    29    32    31    1
    30    32    49    1
    31    49    50    1
    32    50    51   ar
    33    51    52   ar
    34    52    53   ar
    35    53    54   ar
    36    54    55   ar
    37    32    33    1
    38    33    34    2
    39    33    35   am
    40    37    35    1
    41    37    38    1
    42    38    39   ar
    43    39    40   ar
    44    40    41   ar
    45    41    42   ar
    46    42    43   ar
    47    43    44    1
    48    44    45    1
    49    45    46    1
    50    46    47    1
    51    10     5    1
    52    55    50   ar
    53    46    37    1
    54    30    22   ar
    55    43    38   ar
    56    29    24   ar
    57    11    14    1
    58     2     3    1
    59    35    36    1
    60    47    48    1
