@<TRIPOS>MOLECULE
*****
 27 30 0 0 0
SMALL
GASTEIGER

@<TRIPOS>ATOM
      1 C           6.1866   -2.2556   18.9644 C.2     1  UNL1        0.0919
      2 C           7.6593   -2.0916   18.7316 C.2     1  UNL1        0.0183
      3 C           8.6422   -2.7258   19.6705 C.2     1  UNL1        0.0511
      4 C           8.1525   -3.5241   20.8422 C.2     1  UNL1        0.2322
      5 N           8.8783   -4.2600   21.9292 N.2     1  UNL1       -0.0308
      6 C           7.8543   -4.8788   22.8338 C.2     1  UNL1        0.3749
      7 N           6.4954   -4.5254   22.3059 N.2     1  UNL1       -0.0347
      8 C           6.6798   -3.6881   21.0750 C.2     1  UNL1        0.2191
      9 C           5.6968   -3.0538   20.1361 C.3     1  UNL1        0.1226
     10 C           8.1390   -5.7059   24.0524 C.ar    1  UNL1        0.0845
     11 C           8.5449   -7.1425   23.9057 C.ar    1  UNL1        0.0074
     12 C           8.8296   -7.9696   25.1242 C.ar    1  UNL1        0.0002
     13 C           8.7086   -7.3601   26.4894 C.ar    1  UNL1       -0.0003
     14 C           8.3028   -5.9235   26.6361 C.ar    1  UNL1       -0.0037
     15 C           8.0180   -5.0964   25.4176 C.ar    1  UNL1       -0.0144
     16 C           7.6122   -3.6598   25.5643 C.3     1  UNL1        0.0313
     17 C           8.1817   -5.3140   28.0014 C.ar    1  UNL1       -0.0003
     18 C           6.8804   -5.3892   28.7436 C.ar    1  UNL1       -0.0000
     19 C           6.7595   -4.7797   30.1088 C.ar    1  UNL1       -0.0000
     20 C           7.9398   -4.0951   30.7318 C.ar    1  UNL1       -0.0000
     21 C           9.2411   -4.0199   29.9896 C.ar    1  UNL1       -0.0000
     22 C           9.3620   -4.6294   28.6244 C.ar    1  UNL1       -0.0000
     23 S           5.2036   -1.6213   18.0255 S.O2    1  UNL1        0.0054
     24 O           4.0747   -2.0630   18.9090 O.2     1  UNL1       -0.1689
     25 O           6.3325   -1.1796   17.1421 O.2     1  UNL1       -0.1689
     26 C           3.1685   -0.0589   17.6170 C.3     1  UNL1        0.0276
     27 C           4.2207   -0.9871   17.0867 C.3     1  UNL1        0.1556
@<TRIPOS>BOND
     1    26    27    1
     2    27    23    1
     3    23    24    2
     4    23    25    2
     5    23     1    1
     6     1     2    2
     7     2     3    1
     8     3     4    2
     9     4     5    1
    10     5     6    2
    11     6    10    1
    12    10    11   ar
    13    11    12   ar
    14    12    13   ar
    15    13    14   ar
    16    14    17    1
    17    17    18   ar
    18    18    19   ar
    19    19    20   ar
    20    20    21   ar
    21    21    22   ar
    22    14    15   ar
    23    15    16    1
    24     6     7    1
    25     7     8    2
    26     8     9    1
    27     9     1    1
    28     8     4    1
    29    15    10   ar
    30    22    17   ar
@<TRIPOS>MOLECULE
*****
 27 30 0 0 0
SMALL
GASTEIGER

@<TRIPOS>ATOM
      1 C           2.8362   -0.4642   19.1015 C.2     1  UNL1        0.0919
      2 C           3.3227    0.8115   18.4803 C.2     1  UNL1        0.0183
      3 C           2.5089    2.0652   18.6065 C.2     1  UNL1        0.0511
      4 C           1.2087    2.0433   19.3541 C.2     1  UNL1        0.2322
      5 N           0.1982    3.1138   19.6419 N.2     1  UNL1       -0.0308
      6 C          -0.9128    2.4997   20.4411 C.2     1  UNL1        0.3749
      7 N          -0.5890    1.0497   20.6471 N.2     1  UNL1       -0.0347
      8 C           0.7222    0.7676   19.9753 C.2     1  UNL1        0.2191
      9 C           1.5360   -0.4861   19.8490 C.3     1  UNL1        0.1226
     10 C          -2.1334    3.2110   20.9456 C.ar    1  UNL1        0.0845
     11 C          -3.2560    3.5337   20.0045 C.ar    1  UNL1        0.0074
     12 C          -4.4766    4.2449   20.5089 C.ar    1  UNL1        0.0002
     13 C          -4.5745    4.6333   21.9544 C.ar    1  UNL1       -0.0003
     14 C          -3.4519    4.3106   22.8955 C.ar    1  UNL1       -0.0037
     15 C          -2.2313    3.5994   22.3911 C.ar    1  UNL1       -0.0144
     16 C          -1.1087    3.2767   23.3321 C.3     1  UNL1        0.0313
     17 C          -3.5498    4.6991   24.3410 C.ar    1  UNL1       -0.0003
     18 C          -4.2410    3.7927   25.3161 C.ar    1  UNL1       -0.0000
     19 C          -4.3389    4.1812   26.7615 C.ar    1  UNL1       -0.0000
     20 C          -3.7457    5.4761   27.2320 C.ar    1  UNL1       -0.0000
     21 C          -3.0545    6.3824   26.2570 C.ar    1  UNL1       -0.0000
     22 C          -2.9566    5.9939   24.8115 C.ar    1  UNL1       -0.0000
     23 S           3.6500   -1.7179   18.9752 S.O2    1  UNL1        0.0054
     24 O           3.2937   -2.0910   20.3837 O.2     1  UNL1       -0.1689
     25 O           4.0062   -1.3448   17.5667 O.2     1  UNL1       -0.1689
     26 C           3.8027   -4.3115   18.9820 C.3     1  UNL1        0.0276
     27 C           4.4638   -2.9716   18.8490 C.3     1  UNL1        0.1556
@<TRIPOS>BOND
     1    26    27    1
     2    27    23    1
     3    23    24    2
     4    23    25    2
     5    23     1    1
     6     1     2    2
     7     2     3    1
     8     3     4    2
     9     4     5    1
    10     5     6    2
    11     6    10    1
    12    10    11   ar
    13    11    12   ar
    14    12    13   ar
    15    13    14   ar
    16    14    17    1
    17    17    18   ar
    18    18    19   ar
    19    19    20   ar
    20    20    21   ar
    21    21    22   ar
    22    14    15   ar
    23    15    16    1
    24     6     7    1
    25     7     8    2
    26     8     9    1
    27     9     1    1
    28     8     4    1
    29    15    10   ar
    30    22    17   ar
@<TRIPOS>MOLECULE
*****
 27 30 0 0 0
SMALL
GASTEIGER

@<TRIPOS>ATOM
      1 C           6.6222   -3.8310   30.1713 C.2     1  UNL1        0.0919
      2 C           6.9028   -5.3041   30.2073 C.2     1  UNL1        0.0183
      3 C           7.2242   -6.0375   28.9389 C.2     1  UNL1        0.0511
      4 C           7.2651   -5.2979   27.6346 C.2     1  UNL1        0.2322
      5 N           7.5507   -5.7496   26.2331 N.2     1  UNL1       -0.0308
      6 C           7.4466   -4.5557   25.3309 C.2     1  UNL1        0.3749
      7 N           7.0966   -3.3661   26.1749 N.2     1  UNL1       -0.0347
      8 C           6.9844   -3.8248   27.5987 C.2     1  UNL1        0.2191
      9 C           6.6630   -3.0914   28.8671 C.3     1  UNL1        0.1226
     10 C           7.6558   -4.5522   23.8455 C.ar    1  UNL1        0.0845
     11 C           8.9111   -5.1314   23.2635 C.ar    1  UNL1        0.0074
     12 C           9.1203   -5.1279   21.7782 C.ar    1  UNL1        0.0002
     13 C           8.0742   -4.5451   20.8749 C.ar    1  UNL1       -0.0003
     14 C           6.8189   -3.9659   21.4569 C.ar    1  UNL1       -0.0037
     15 C           6.6097   -3.9694   22.9422 C.ar    1  UNL1       -0.0144
     16 C           5.3544   -3.3902   23.5242 C.3     1  UNL1        0.0313
     17 C           5.7728   -3.3831   20.5535 C.ar    1  UNL1       -0.0003
     18 C           4.6580   -4.2465   20.0421 C.ar    1  UNL1       -0.0000
     19 C           3.6119   -3.6637   19.1387 C.ar    1  UNL1       -0.0000
     20 C           3.6807   -2.2175   18.7468 C.ar    1  UNL1       -0.0000
     21 C           4.7955   -1.3540   19.2582 C.ar    1  UNL1       -0.0000
     22 C           5.8416   -1.9368   20.1616 C.ar    1  UNL1       -0.0000
     23 S           6.3007   -3.0976   31.4397 S.O2    1  UNL1        0.0054
     24 O           6.5603   -4.3471   32.2280 O.2     1  UNL1       -0.1689
     25 O           6.0411   -1.8481   30.6514 O.2     1  UNL1       -0.1689
     26 C           4.6194   -2.4968   33.3271 C.3     1  UNL1        0.0276
     27 C           5.9792   -2.3642   32.7081 C.3     1  UNL1        0.1556
@<TRIPOS>BOND
     1    26    27    1
     2    27    23    1
     3    23    24    2
     4    23    25    2
     5    23     1    1
     6     1     2    2
     7     2     3    1
     8     3     4    2
     9     4     5    1
    10     5     6    2
    11     6    10    1
    12    10    11   ar
    13    11    12   ar
    14    12    13   ar
    15    13    14   ar
    16    14    17    1
    17    17    18   ar
    18    18    19   ar
    19    19    20   ar
    20    20    21   ar
    21    21    22   ar
    22    14    15   ar
    23    15    16    1
    24     6     7    1
    25     7     8    2
    26     8     9    1
    27     9     1    1
    28     8     4    1
    29    15    10   ar
    30    22    17   ar
@<TRIPOS>MOLECULE
*****
 27 30 0 0 0
SMALL
GASTEIGER

@<TRIPOS>ATOM
      1 C           7.9134   -5.0999   26.7416 C.2     1  UNL1        0.0919
      2 C           8.9270   -5.7952   25.8818 C.2     1  UNL1        0.0183
      3 C           8.8079   -5.7391   24.3876 C.2     1  UNL1        0.0511
      4 C           7.6752   -4.9877   23.7532 C.2     1  UNL1        0.2322
      5 N           7.3011   -4.7592   22.3187 N.2     1  UNL1       -0.0308
      6 C           6.0562   -3.9227   22.2919 C.2     1  UNL1        0.3749
      7 N           5.6610   -3.6342   23.7099 N.2     1  UNL1       -0.0347
      8 C           6.6617   -4.2925   24.6130 C.2     1  UNL1        0.2191
      9 C           6.7808   -4.3486   26.1072 C.3     1  UNL1        0.1226
     10 C           5.3335   -3.4565   21.0629 C.ar    1  UNL1        0.0845
     11 C           4.2047   -4.2701   20.5027 C.ar    1  UNL1        0.0074
     12 C           3.4820   -3.8040   19.2737 C.ar    1  UNL1        0.0002
     13 C           3.8881   -2.5242   18.6050 C.ar    1  UNL1       -0.0003
     14 C           5.0168   -1.7106   19.1652 C.ar    1  UNL1       -0.0037
     15 C           5.7395   -2.1767   20.3942 C.ar    1  UNL1       -0.0144
     16 C           6.8683   -1.3631   20.9544 C.3     1  UNL1        0.0313
     17 C           5.4229   -0.4307   18.4964 C.ar    1  UNL1       -0.0003
     18 C           4.7555    0.8580   18.8753 C.ar    1  UNL1       -0.0000
     19 C           5.1615    2.1378   18.2065 C.ar    1  UNL1       -0.0000
     20 C           6.2350    2.1287   17.1589 C.ar    1  UNL1       -0.0000
     21 C           6.9024    0.8400   16.7800 C.ar    1  UNL1       -0.0000
     22 C           6.4963   -0.4398   17.4488 C.ar    1  UNL1       -0.0000
     23 S           8.0325   -5.1560   28.2358 S.O2    1  UNL1        0.0054
     24 O           6.6671   -4.5493   28.3674 O.2     1  UNL1       -0.1689
     25 O           9.3980   -5.7628   28.1042 O.2     1  UNL1       -0.1689
     26 C           6.9446   -5.5138   30.5678 C.3     1  UNL1        0.0276
     27 C           8.1516   -5.2121   29.7300 C.3     1  UNL1        0.1556
@<TRIPOS>BOND
     1    26    27    1
     2    27    23    1
     3    23    24    2
     4    23    25    2
     5    23     1    1
     6     1     2    2
     7     2     3    1
     8     3     4    2
     9     4     5    1
    10     5     6    2
    11     6    10    1
    12    10    11   ar
    13    11    12   ar
    14    12    13   ar
    15    13    14   ar
    16    14    17    1
    17    17    18   ar
    18    18    19   ar
    19    19    20   ar
    20    20    21   ar
    21    21    22   ar
    22    14    15   ar
    23    15    16    1
    24     6     7    1
    25     7     8    2
    26     8     9    1
    27     9     1    1
    28     8     4    1
    29    15    10   ar
    30    22    17   ar
@<TRIPOS>MOLECULE
*****
 27 30 0 0 0
SMALL
GASTEIGER

@<TRIPOS>ATOM
      1 C          -4.3563    3.9471   20.8609 C.2     1  UNL1        0.0919
      2 C          -4.3476    4.4845   19.4605 C.2     1  UNL1        0.0183
      3 C          -3.1397    4.2946   18.5917 C.2     1  UNL1        0.0511
      4 C          -1.9404    3.5673   19.1233 C.2     1  UNL1        0.2322
      5 N          -0.6159    3.2297   18.5055 N.2     1  UNL1       -0.0308
      6 C           0.1941    2.4837   19.5241 C.2     1  UNL1        0.3749
      7 N          -0.6298    2.3602   20.7714 N.2     1  UNL1       -0.0347
      8 C          -1.9490    3.0299   20.5237 C.2     1  UNL1        0.2191
      9 C          -3.1570    3.2198   21.3925 C.3     1  UNL1        0.1226
     10 C           1.5840    1.9541   19.3294 C.ar    1  UNL1        0.0845
     11 C           2.6556    2.8458   18.7759 C.ar    1  UNL1        0.0074
     12 C           4.0455    2.3163   18.5812 C.ar    1  UNL1        0.0002
     13 C           4.3636    0.8951   18.9401 C.ar    1  UNL1       -0.0003
     14 C           3.2920    0.0034   19.4936 C.ar    1  UNL1       -0.0037
     15 C           1.9022    0.5329   19.6882 C.ar    1  UNL1       -0.0144
     16 C           0.8305   -0.3589   20.2417 C.3     1  UNL1        0.0313
     17 C           3.6102   -1.4179   19.8524 C.ar    1  UNL1       -0.0003
     18 C           3.5587   -2.4865   18.8010 C.ar    1  UNL1       -0.0000
     19 C           3.8770   -3.9077   19.1598 C.ar    1  UNL1       -0.0000
     20 C           4.2467   -4.2604   20.5701 C.ar    1  UNL1       -0.0000
     21 C           4.2982   -3.1918   21.6215 C.ar    1  UNL1       -0.0000
     22 C           3.9800   -1.7706   21.2627 C.ar    1  UNL1       -0.0000
     23 S          -5.5643    4.1371   21.7296 S.O2    1  UNL1        0.0054
     24 O          -4.8351    3.5097   22.8806 O.2     1  UNL1       -0.1689
     25 O          -6.2934    4.7644   20.5787 O.2     1  UNL1       -0.1689
     26 C          -6.6169    4.4304   24.0867 C.3     1  UNL1        0.0276
     27 C          -6.7722    4.3270   22.5984 C.3     1  UNL1        0.1556
@<TRIPOS>BOND
     1    26    27    1
     2    27    23    1
     3    23    24    2
     4    23    25    2
     5    23     1    1
     6     1     2    2
     7     2     3    1
     8     3     4    2
     9     4     5    1
    10     5     6    2
    11     6    10    1
    12    10    11   ar
    13    11    12   ar
    14    12    13   ar
    15    13    14   ar
    16    14    17    1
    17    17    18   ar
    18    18    19   ar
    19    19    20   ar
    20    20    21   ar
    21    21    22   ar
    22    14    15   ar
    23    15    16    1
    24     6     7    1
    25     7     8    2
    26     8     9    1
    27     9     1    1
    28     8     4    1
    29    15    10   ar
    30    22    17   ar
@<TRIPOS>MOLECULE
*****
 27 30 0 0 0
SMALL
GASTEIGER

@<TRIPOS>ATOM
      1 C           8.1535   -4.4350   26.8134 C.2     1  UNL1        0.0919
      2 C           9.2793   -3.5973   26.2834 C.2     1  UNL1        0.0183
      3 C           9.1840   -2.9926   24.9140 C.2     1  UNL1        0.0511
      4 C           7.9630   -3.2256   24.0745 C.2     1  UNL1        0.2322
      5 N           7.5881   -2.7627   22.6979 N.2     1  UNL1       -0.0308
      6 C           6.2306   -3.3143   22.3771 C.2     1  UNL1        0.3749
      7 N           5.7665   -4.1181   23.5554 N.2     1  UNL1       -0.0347
      8 C           6.8372   -4.0633   24.6045 C.2     1  UNL1        0.2191
      9 C           6.9325   -4.6680   25.9739 C.3     1  UNL1        0.1226
     10 C           5.4706   -3.0996   21.1017 C.ar    1  UNL1        0.0845
     11 C           5.7102   -3.9991   19.9255 C.ar    1  UNL1        0.0074
     12 C           4.9502   -3.7845   18.6502 C.ar    1  UNL1        0.0002
     13 C           3.9507   -2.6705   18.5511 C.ar    1  UNL1       -0.0003
     14 C           3.7111   -1.7710   19.7274 C.ar    1  UNL1       -0.0037
     15 C           4.4710   -1.9856   21.0027 C.ar    1  UNL1       -0.0144
     16 C           4.2314   -1.0862   22.1789 C.3     1  UNL1        0.0313
     17 C           2.7115   -0.6570   19.6283 C.ar    1  UNL1       -0.0003
     18 C           3.0699    0.6106   18.9109 C.ar    1  UNL1       -0.0000
     19 C           2.0704    1.7246   18.8118 C.ar    1  UNL1       -0.0000
     20 C           0.7124    1.5710   19.4302 C.ar    1  UNL1       -0.0000
     21 C           0.3540    0.3034   20.1476 C.ar    1  UNL1       -0.0000
     22 C           1.3536   -0.8106   20.2467 C.ar    1  UNL1       -0.0000
     23 S           8.2488   -5.0397   28.1828 S.O2    1  UNL1        0.0054
     24 O           8.5401   -6.3781   27.5715 O.2     1  UNL1       -0.1689
     25 O           7.9575   -3.7012   28.7941 O.2     1  UNL1       -0.1689
     26 C           7.1349   -5.6876   30.4387 C.3     1  UNL1        0.0276
     27 C           8.3441   -5.6444   29.5522 C.3     1  UNL1        0.1556
@<TRIPOS>BOND
     1    26    27    1
     2    27    23    1
     3    23    24    2
     4    23    25    2
     5    23     1    1
     6     1     2    2
     7     2     3    1
     8     3     4    2
     9     4     5    1
    10     5     6    2
    11     6    10    1
    12    10    11   ar
    13    11    12   ar
    14    12    13   ar
    15    13    14   ar
    16    14    17    1
    17    17    18   ar
    18    18    19   ar
    19    19    20   ar
    20    20    21   ar
    21    21    22   ar
    22    14    15   ar
    23    15    16    1
    24     6     7    1
    25     7     8    2
    26     8     9    1
    27     9     1    1
    28     8     4    1
    29    15    10   ar
    30    22    17   ar
@<TRIPOS>MOLECULE
*****
 27 30 0 0 0
SMALL
GASTEIGER

@<TRIPOS>ATOM
      1 C          -3.5302    3.6883   21.9469 C.2     1  UNL1        0.0919
      2 C          -2.7901    3.8462   23.2420 C.2     1  UNL1        0.0183
      3 C          -1.3259    3.5281   23.3127 C.2     1  UNL1        0.0511
      4 C          -0.6018    3.0521   22.0883 C.2     1  UNL1        0.2322
      5 N           0.8284    2.6648   21.8550 N.2     1  UNL1       -0.0308
      6 C           0.9722    2.2675   20.4157 C.2     1  UNL1        0.3749
      7 N          -0.3691    2.4092   19.7595 N.2     1  UNL1       -0.0347
      8 C          -1.3420    2.8941   20.7933 C.2     1  UNL1        0.2191
      9 C          -2.8061    3.2122   20.7226 C.3     1  UNL1        0.1226
     10 C           2.2356    1.8090   19.7496 C.ar    1  UNL1        0.0845
     11 C           3.0225    2.7606   18.8980 C.ar    1  UNL1        0.0074
     12 C           4.2858    2.3022   18.2319 C.ar    1  UNL1        0.0002
     13 C           4.7624    0.8921   18.4175 C.ar    1  UNL1       -0.0003
     14 C           3.9755   -0.0596   19.2691 C.ar    1  UNL1       -0.0037
     15 C           2.7122    0.3989   19.9352 C.ar    1  UNL1       -0.0144
     16 C           1.9254   -0.5528   20.7868 C.3     1  UNL1        0.0313
     17 C           4.4521   -1.4697   19.4547 C.ar    1  UNL1       -0.0003
     18 C           5.4952   -1.7792   20.4873 C.ar    1  UNL1       -0.0000
     19 C           5.9717   -3.1893   20.6728 C.ar    1  UNL1       -0.0000
     20 C           5.4052   -4.2900   19.8257 C.ar    1  UNL1       -0.0000
     21 C           4.3622   -3.9805   18.7931 C.ar    1  UNL1       -0.0000
     22 C           3.8857   -2.5704   18.6076 C.ar    1  UNL1       -0.0000
     23 S          -4.9944    4.0064   21.8762 S.O2    1  UNL1        0.0054
     24 O          -5.2277    3.2099   23.1257 O.2     1  UNL1       -0.1689
     25 O          -4.7610    4.8028   20.6267 O.2     1  UNL1       -0.1689
     26 C          -7.2850    4.3354   23.0572 C.3     1  UNL1        0.0276
     27 C          -6.4585    4.3245   21.8055 C.3     1  UNL1        0.1556
@<TRIPOS>BOND
     1    26    27    1
     2    27    23    1
     3    23    24    2
     4    23    25    2
     5    23     1    1
     6     1     2    2
     7     2     3    1
     8     3     4    2
     9     4     5    1
    10     5     6    2
    11     6    10    1
    12    10    11   ar
    13    11    12   ar
    14    12    13   ar
    15    13    14   ar
    16    14    17    1
    17    17    18   ar
    18    18    19   ar
    19    19    20   ar
    20    20    21   ar
    21    21    22   ar
    22    14    15   ar
    23    15    16    1
    24     6     7    1
    25     7     8    2
    26     8     9    1
    27     9     1    1
    28     8     4    1
    29    15    10   ar
    30    22    17   ar
@<TRIPOS>MOLECULE
*****
 27 30 0 0 0
SMALL
GASTEIGER

@<TRIPOS>ATOM
      1 C           1.2885    1.4134   28.5096 C.2     1  UNL1        0.0919
      2 C          -0.1575    1.5918   28.1527 C.2     1  UNL1        0.0183
      3 C          -0.5829    1.5727   26.7144 C.2     1  UNL1        0.0511
      4 C           0.4377    1.3753   25.6330 C.2     1  UNL1        0.2322
      5 N           0.3176    1.3115   24.1392 N.2     1  UNL1       -0.0308
      6 C           1.6894    1.0938   23.5728 C.2     1  UNL1        0.3749
      7 N           2.6573    1.0230   24.7165 N.2     1  UNL1       -0.0347
      8 C           1.8836    1.1969   25.9899 C.2     1  UNL1        0.2191
      9 C           2.3090    1.2160   27.4281 C.3     1  UNL1        0.1226
     10 C           2.0330    0.9688   22.1180 C.ar    1  UNL1        0.0845
     11 C           1.6283    2.0467   21.1565 C.ar    1  UNL1        0.0074
     12 C           1.9719    1.9217   19.7017 C.ar    1  UNL1        0.0002
     13 C           2.7201    0.7189   19.2085 C.ar    1  UNL1       -0.0003
     14 C           3.1248   -0.3589   20.1700 C.ar    1  UNL1       -0.0037
     15 C           2.7813   -0.2340   21.6247 C.ar    1  UNL1       -0.0144
     16 C           3.1860   -1.3118   22.5862 C.3     1  UNL1        0.0313
     17 C           3.8732   -1.5618   19.6766 C.ar    1  UNL1       -0.0003
     18 C           5.3446   -1.4685   19.4006 C.ar    1  UNL1       -0.0000
     19 C           6.0928   -2.6713   18.9073 C.ar    1  UNL1       -0.0000
     20 C           5.3696   -3.9673   18.6900 C.ar    1  UNL1       -0.0000
     21 C           3.8982   -4.0606   18.9660 C.ar    1  UNL1       -0.0000
     22 C           3.1500   -2.8578   19.4593 C.ar    1  UNL1       -0.0000
     23 S           1.7139    1.4325   29.9478 S.O2    1  UNL1        0.0054
     24 O           2.4861    2.6949   29.7027 O.2     1  UNL1       -0.1689
     25 O           0.9417    0.1701   30.1930 O.2     1  UNL1       -0.1689
     26 C           1.3059    2.1702   32.4053 C.3     1  UNL1        0.0276
     27 C           2.1393    1.4515   31.3861 C.3     1  UNL1        0.1556
@<TRIPOS>BOND
     1    26    27    1
     2    27    23    1
     3    23    24    2
     4    23    25    2
     5    23     1    1
     6     1     2    2
     7     2     3    1
     8     3     4    2
     9     4     5    1
    10     5     6    2
    11     6    10    1
    12    10    11   ar
    13    11    12   ar
    14    12    13   ar
    15    13    14   ar
    16    14    17    1
    17    17    18   ar
    18    18    19   ar
    19    19    20   ar
    20    20    21   ar
    21    21    22   ar
    22    14    15   ar
    23    15    16    1
    24     6     7    1
    25     7     8    2
    26     8     9    1
    27     9     1    1
    28     8     4    1
    29    15    10   ar
    30    22    17   ar
@<TRIPOS>MOLECULE
*****
 27 30 0 0 0
SMALL
GASTEIGER

@<TRIPOS>ATOM
      1 C           3.8543    0.6005   18.5023 C.2     1  UNL1        0.0919
      2 C           2.6070    0.0734   17.8570 C.2     1  UNL1        0.0183
      3 C           1.2861    0.2109   18.5545 C.2     1  UNL1        0.0511
      4 C           1.2126    0.8755   19.8972 C.2     1  UNL1        0.2322
      5 N           0.0615    1.1531   20.8180 N.2     1  UNL1       -0.0308
      6 C           0.5974    1.8517   22.0324 C.2     1  UNL1        0.3749
      7 N           2.0797    2.0059   21.8621 N.2     1  UNL1       -0.0347
      8 C           2.4599    1.4025   20.5424 C.2     1  UNL1        0.2191
      9 C           3.7807    1.2650   19.8450 C.3     1  UNL1        0.1226
     10 C          -0.2077    2.3148   23.2104 C.ar    1  UNL1        0.0845
     11 C          -1.3835    3.2232   23.0047 C.ar    1  UNL1        0.0074
     12 C          -2.1886    3.6863   24.1825 C.ar    1  UNL1        0.0002
     13 C          -1.8178    3.2410   25.5660 C.ar    1  UNL1       -0.0003
     14 C          -0.6420    2.3326   25.7717 C.ar    1  UNL1       -0.0037
     15 C           0.1630    1.8695   24.5939 C.ar    1  UNL1       -0.0144
     16 C           1.3388    0.9611   24.7996 C.3     1  UNL1        0.0313
     17 C          -0.2714    1.8873   27.1554 C.ar    1  UNL1       -0.0003
     18 C          -0.8490    0.6216   27.7159 C.ar    1  UNL1       -0.0000
     19 C          -0.4783    0.1763   29.0994 C.ar    1  UNL1       -0.0000
     20 C           0.4700    0.9968   29.9225 C.ar    1  UNL1       -0.0000
     21 C           1.0477    2.2625   29.3620 C.ar    1  UNL1       -0.0000
     22 C           0.6770    2.7078   27.9784 C.ar    1  UNL1       -0.0000
     23 S           5.1751    0.4629   17.8048 S.O2    1  UNL1        0.0054
     24 O           5.6498    1.7290   18.4542 O.2     1  UNL1       -0.1689
     25 O           4.7004   -0.8032   17.1555 O.2     1  UNL1       -0.1689
     26 C           6.9100    1.3360   16.0792 C.3     1  UNL1        0.0276
     27 C           6.4960    0.3254   17.1074 C.3     1  UNL1        0.1556
@<TRIPOS>BOND
     1    26    27    1
     2    27    23    1
     3    23    24    2
     4    23    25    2
     5    23     1    1
     6     1     2    2
     7     2     3    1
     8     3     4    2
     9     4     5    1
    10     5     6    2
    11     6    10    1
    12    10    11   ar
    13    11    12   ar
    14    12    13   ar
    15    13    14   ar
    16    14    17    1
    17    17    18   ar
    18    18    19   ar
    19    19    20   ar
    20    20    21   ar
    21    21    22   ar
    22    14    15   ar
    23    15    16    1
    24     6     7    1
    25     7     8    2
    26     8     9    1
    27     9     1    1
    28     8     4    1
    29    15    10   ar
    30    22    17   ar
