@<TRIPOS>MOLECULE
*****
 30 32 0 0 0
SMALL
GASTEIGER

@<TRIPOS>ATOM
      1 N          -8.1461  -17.2975   22.5874 N.pl3   1  UNL1       -0.3035
      2 C          -9.5510  -17.5789   23.0312 C.ar    1  UNL1        0.0490
      3 C          -9.8203  -18.6772   24.0169 C.ar    1  UNL1        0.0153
      4 C         -11.2252  -18.9587   24.4607 C.ar    1  UNL1        0.0124
      5 C         -12.3608  -18.1419   23.9189 C.ar    1  UNL1        0.0791
      6 C         -12.0914  -17.0437   22.9333 C.ar    1  UNL1        0.0685
      7 CL        -13.2270  -16.2270   22.3915 Cl      1  UNL1       -0.0815
      8 C         -10.6865  -16.7623   22.4895 C.ar    1  UNL1        0.0266
      9 C         -13.7657  -18.4234   24.3628 C.1     1  UNL1        0.1013
     10 N         -15.1706  -18.7048   24.8066 N.1     1  UNL1       -0.1908
     11 C          -7.4043  -18.3060   21.7611 C.3     1  UNL1        0.0946
     12 C          -8.0227  -19.3437   20.8719 C.3     1  UNL1        0.0430
     13 C          -6.9145  -20.1329   20.2402 C.3     1  UNL1        0.0953
     14 N          -5.6111  -19.5830   20.7390 N.am    1  UNL1       -0.2758
     15 C          -4.2449  -20.0756   20.3638 C.2     1  UNL1        0.2526
     16 O          -4.0974  -21.2206   19.4061 O.2     1  UNL1       -0.2723
     17 C          -5.9138  -18.4538   21.6791 C.3     1  UNL1        0.1131
     18 C          -3.0263  -19.4233   20.9463 C.3     1  UNL1        0.1869
     19 C          -2.7022  -17.9991   20.6045 C.3     1  UNL1        0.0417
     20 O          -2.1317  -20.1950   21.8706 O.3     1  UNL1       -0.3758
     21 H          -1.3959  -19.6304   22.1545 H       1  UNL1        0.2110
     22 C          -7.4829  -16.0075   22.9698 C.3     1  UNL1        0.1175
     23 C          -4.6059  -15.9536   23.8181 C.3     1  UNL1        0.0308
     24 C          -5.6899  -15.7155   24.8272 C.ar    1  UNL1       -0.0241
     25 C          -5.3355  -15.4505   26.2604 C.ar    1  UNL1       -0.0022
     26 C          -6.4195  -15.2125   27.2694 C.ar    1  UNL1        0.0293
     27 C          -7.8580  -15.2395   26.8453 C.ar    1  UNL1        0.1399
     28 F          -8.9421  -15.0015   27.8543 F       1  UNL1       -0.2042
     29 C          -8.2125  -15.5045   25.4121 C.ar    1  UNL1        0.0267
     30 C          -7.1284  -15.7425   24.4030 C.ar    1  UNL1       -0.0041
@<TRIPOS>BOND
     1    23    24    1
     2    24    25   ar
     3    25    26   ar
     4    26    27   ar
     5    27    28    1
     6    27    29   ar
     7    29    30   ar
     8    30    22    1
     9    22     1    1
    10     1     2    1
    11     2     3   ar
    12     3     4   ar
    13     4     5   ar
    14     5     9    1
    15     9    10    3
    16     5     6   ar
    17     6     7    1
    18     6     8   ar
    19    11     1    1
    20    11    12    1
    21    12    13    1
    22    13    14    1
    23    14    15   am
    24    15    16    2
    25    15    18    1
    26    18    19    1
    27    18    20    1
    28    14    17    1
    29    30    24   ar
    30     8     2   ar
    31    17    11    1
    32    20    21    1
@<TRIPOS>MOLECULE
*****
 30 32 0 0 0
SMALL
GASTEIGER

@<TRIPOS>ATOM
      1 N          -7.8681  -18.9642   21.7144 N.pl3   1  UNL1       -0.3035
      2 C          -8.0439  -18.1210   22.9425 C.ar    1  UNL1        0.0490
      3 C          -9.0379  -18.5223   23.9918 C.ar    1  UNL1        0.0153
      4 C          -9.2138  -17.6791   25.2198 C.ar    1  UNL1        0.0124
      5 C          -8.3957  -16.4346   25.3985 C.ar    1  UNL1        0.0791
      6 C          -7.4017  -16.0333   24.3492 C.ar    1  UNL1        0.0685
      7 CL         -6.5836  -14.7888   24.5279 Cl      1  UNL1       -0.0815
      8 C          -7.2259  -16.8765   23.1212 C.ar    1  UNL1        0.0266
      9 C          -8.5715  -15.5914   26.6266 C.1     1  UNL1        0.1013
     10 N          -8.7474  -14.7482   27.8546 N.1     1  UNL1       -0.1908
     11 C          -6.4986  -19.4233   21.3097 C.3     1  UNL1        0.0946
     12 C          -6.1833  -20.6338   20.4819 C.3     1  UNL1        0.0430
     13 C          -4.6938  -20.7111   20.3223 C.3     1  UNL1        0.0953
     14 N          -4.0885  -19.5482   21.0514 N.am    1  UNL1       -0.2758
     15 C          -2.6249  -19.2361   21.1525 C.2     1  UNL1        0.2526
     16 O          -1.6199  -20.1285   20.4862 O.2     1  UNL1       -0.2723
     17 C          -5.2040  -18.7523   21.6616 C.3     1  UNL1        0.1131
     18 C          -2.1661  -18.0317   21.9199 C.3     1  UNL1        0.1869
     19 C          -2.0892  -16.6955   21.2427 C.3     1  UNL1        0.0417
     20 O          -1.7843  -18.1635   23.3645 O.3     1  UNL1       -0.3758
     21 H          -1.5134  -17.2976   23.7076 H       1  UNL1        0.2110
     22 C          -9.0617  -19.3484   20.8912 C.3     1  UNL1        0.1175
     23 C         -11.4443  -19.9373   22.6164 C.3     1  UNL1        0.0308
     24 C         -11.4530  -18.7440   21.7076 C.ar    1  UNL1       -0.0241
     25 C         -12.6529  -17.8451   21.6614 C.ar    1  UNL1       -0.0022
     26 C         -12.6616  -16.6518   20.7526 C.ar    1  UNL1        0.0293
     27 C         -11.4703  -16.3573   19.8900 C.ar    1  UNL1        0.1399
     28 F         -11.4790  -15.1640   18.9812 F       1  UNL1       -0.2042
     29 C         -10.2704  -17.2562   19.9362 C.ar    1  UNL1        0.0267
     30 C         -10.2617  -18.4495   20.8450 C.ar    1  UNL1       -0.0041
@<TRIPOS>BOND
     1    23    24    1
     2    24    25   ar
     3    25    26   ar
     4    26    27   ar
     5    27    28    1
     6    27    29   ar
     7    29    30   ar
     8    30    22    1
     9    22     1    1
    10     1     2    1
    11     2     3   ar
    12     3     4   ar
    13     4     5   ar
    14     5     9    1
    15     9    10    3
    16     5     6   ar
    17     6     7    1
    18     6     8   ar
    19    11     1    1
    20    11    12    1
    21    12    13    1
    22    13    14    1
    23    14    15   am
    24    15    16    2
    25    15    18    1
    26    18    19    1
    27    18    20    1
    28    14    17    1
    29    30    24   ar
    30     8     2   ar
    31    17    11    1
    32    20    21    1
@<TRIPOS>MOLECULE
*****
 30 32 0 0 0
SMALL
GASTEIGER

@<TRIPOS>ATOM
      1 N          -8.3728  -16.6937   22.3879 N.pl3   1  UNL1       -0.3035
      2 C          -7.3832  -17.6770   21.8367 C.ar    1  UNL1        0.0490
      3 C          -7.6831  -18.4081   20.5617 C.ar    1  UNL1        0.0153
      4 C          -6.6935  -19.3914   20.0105 C.ar    1  UNL1        0.0124
      5 C          -5.4041  -19.6436   20.7344 C.ar    1  UNL1        0.0791
      6 C          -5.1043  -18.9126   22.0093 C.ar    1  UNL1        0.0685
      7 CL         -3.8149  -19.1648   22.7332 Cl      1  UNL1       -0.0815
      8 C          -6.0939  -17.9292   22.5605 C.ar    1  UNL1        0.0266
      9 C          -4.4145  -20.6269   20.1832 C.1     1  UNL1        0.1013
     10 N          -3.4249  -21.6102   19.6320 N.1     1  UNL1       -0.1908
     11 C          -9.8439  -16.9546   22.2532 C.3     1  UNL1        0.0946
     12 C         -10.6811  -16.6770   21.0399 C.3     1  UNL1        0.0430
     13 C         -12.0906  -17.0897   21.3451 C.3     1  UNL1        0.0953
     14 N         -12.1245  -17.6223   22.7470 N.am    1  UNL1       -0.2758
     15 C         -13.3344  -18.1464   23.4620 C.2     1  UNL1        0.2526
     16 O         -14.6645  -18.1681   22.7688 O.2     1  UNL1       -0.2723
     17 C         -10.7359  -17.5388   23.3083 C.3     1  UNL1        0.1131
     18 C         -13.2143  -18.6487   24.8703 C.3     1  UNL1        0.1869
     19 C         -14.3603  -18.4871   25.8245 C.3     1  UNL1        0.0417
     20 O         -11.9483  -19.3128   25.3243 O.3     1  UNL1       -0.3758
     21 H         -12.0365  -19.5759   26.2538 H       1  UNL1        0.2110
     22 C          -7.8915  -15.4496   23.0737 C.3     1  UNL1        0.1175
     23 C          -4.9894  -15.0541   23.7233 C.3     1  UNL1        0.0308
     24 C          -5.9757  -15.3129   24.8234 C.ar    1  UNL1       -0.0241
     25 C          -5.5110  -15.3740   26.2483 C.ar    1  UNL1       -0.0022
     26 C          -6.4973  -15.6328   27.3484 C.ar    1  UNL1        0.0293
     27 C          -7.9483  -15.8306   27.0237 C.ar    1  UNL1        0.1399
     28 F          -8.9346  -16.0894   28.1238 F       1  UNL1       -0.2042
     29 C          -8.4130  -15.7695   25.5988 C.ar    1  UNL1        0.0267
     30 C          -7.4267  -15.5107   24.4987 C.ar    1  UNL1       -0.0041
@<TRIPOS>BOND
     1    23    24    1
     2    24    25   ar
     3    25    26   ar
     4    26    27   ar
     5    27    28    1
     6    27    29   ar
     7    29    30   ar
     8    30    22    1
     9    22     1    1
    10     1     2    1
    11     2     3   ar
    12     3     4   ar
    13     4     5   ar
    14     5     9    1
    15     9    10    3
    16     5     6   ar
    17     6     7    1
    18     6     8   ar
    19    11     1    1
    20    11    12    1
    21    12    13    1
    22    13    14    1
    23    14    15   am
    24    15    16    2
    25    15    18    1
    26    18    19    1
    27    18    20    1
    28    14    17    1
    29    30    24   ar
    30     8     2   ar
    31    17    11    1
    32    20    21    1
@<TRIPOS>MOLECULE
*****
 30 32 0 0 0
SMALL
GASTEIGER

@<TRIPOS>ATOM
      1 N          -8.4158  -19.0812   22.5217 N.pl3   1  UNL1       -0.3035
      2 C          -8.4278  -18.1212   23.6743 C.ar    1  UNL1        0.0490
      3 C          -9.0525  -18.5221   24.9778 C.ar    1  UNL1        0.0153
      4 C          -9.0646  -17.5621   26.1303 C.ar    1  UNL1        0.0124
      5 C          -8.4519  -16.2012   25.9793 C.ar    1  UNL1        0.0791
      6 C          -7.8272  -15.8004   24.6758 C.ar    1  UNL1        0.0685
      7 CL         -7.2145  -14.4395   24.5248 Cl      1  UNL1       -0.0815
      8 C          -7.8152  -16.7604   23.5233 C.ar    1  UNL1        0.0266
      9 C          -8.4639  -15.2412   27.1318 C.1     1  UNL1        0.1013
     10 N          -8.4760  -14.2812   28.2843 N.1     1  UNL1       -0.1908
     11 C          -7.1241  -19.4113   21.8341 C.3     1  UNL1        0.0946
     12 C          -6.9047  -20.5312   20.8607 C.3     1  UNL1        0.0430
     13 C          -5.4702  -20.4915   20.4242 C.3     1  UNL1        0.0953
     14 N          -4.8030  -19.3471   21.1279 N.am    1  UNL1       -0.2758
     15 C          -3.3659  -18.9415   20.9852 C.2     1  UNL1        0.2526
     16 O          -2.4573  -19.7085   20.0709 O.2     1  UNL1       -0.2723
     17 C          -5.8253  -18.6794   21.9993 C.3     1  UNL1        0.1131
     18 C          -2.8375  -17.7688   21.7570 C.3     1  UNL1        0.1869
     19 C          -2.5540  -17.9026   23.2238 C.3     1  UNL1        0.0417
     20 O          -2.5926  -16.4623   21.0618 O.3     1  UNL1       -0.3758
     21 H          -2.2540  -15.8150   21.7000 H       1  UNL1        0.2110
     22 C          -9.6953  -19.7110   22.0569 C.3     1  UNL1        0.1175
     23 C         -10.5840  -18.1578   19.6490 C.3     1  UNL1        0.0308
     24 C         -11.4191  -18.1525   20.8950 C.ar    1  UNL1       -0.0241
     25 C         -12.6984  -17.3706   20.9372 C.ar    1  UNL1       -0.0022
     26 C         -13.5335  -17.3653   22.1832 C.ar    1  UNL1        0.0293
     27 C         -13.0892  -18.1419   23.3871 C.ar    1  UNL1        0.1399
     28 F         -13.9242  -18.1366   24.6332 F       1  UNL1       -0.2042
     29 C         -11.8098  -18.9238   23.3450 C.ar    1  UNL1        0.0267
     30 C         -10.9747  -18.9291   22.0989 C.ar    1  UNL1       -0.0041
@<TRIPOS>BOND
     1    23    24    1
     2    24    25   ar
     3    25    26   ar
     4    26    27   ar
     5    27    28    1
     6    27    29   ar
     7    29    30   ar
     8    30    22    1
     9    22     1    1
    10     1     2    1
    11     2     3   ar
    12     3     4   ar
    13     4     5   ar
    14     5     9    1
    15     9    10    3
    16     5     6   ar
    17     6     7    1
    18     6     8   ar
    19    11     1    1
    20    11    12    1
    21    12    13    1
    22    13    14    1
    23    14    15   am
    24    15    16    2
    25    15    18    1
    26    18    19    1
    27    18    20    1
    28    14    17    1
    29    30    24   ar
    30     8     2   ar
    31    17    11    1
    32    20    21    1
