@<TRIPOS>MOLECULE
*****
 22 24 0 0 0
SMALL
GASTEIGER

@<TRIPOS>ATOM
      1 C          -9.6726  -18.4940   22.7777 C.ar    1  UNL1        0.0001
      2 C          -8.7741  -17.3057   22.6028 C.ar    1  UNL1        0.0000
      3 C          -7.3165  -17.5043   22.3092 C.ar    1  UNL1        0.0000
      4 C          -6.7576  -18.8912   22.1905 C.ar    1  UNL1        0.0001
      5 C          -7.6562  -20.0795   22.3653 C.ar    1  UNL1        0.0000
      6 C          -9.1137  -19.8809   22.6589 C.ar    1  UNL1        0.0000
      7 O         -13.6919  -18.8445   26.0523 O.3     1  UNL1       -0.5055
      8 C         -13.1398  -18.4707   24.7086 C.ar    1  UNL1        0.1337
      9 C         -14.0452  -17.8982   23.6586 C.ar    1  UNL1        0.0366
     10 C         -13.4931  -17.5243   22.3150 C.ar    1  UNL1        0.0031
     11 C         -12.0356  -17.7229   22.0213 C.ar    1  UNL1        0.0002
     12 C         -11.1302  -18.2954   23.0713 C.ar    1  UNL1        0.0030
     13 C         -11.6823  -18.6692   24.4150 C.ar    1  UNL1        0.0366
     14 H         -14.6023  -18.7205   26.2357 H       1  UNL1        0.2922
     15 C          -5.3001  -19.0899   21.8969 C.ar    1  UNL1        0.0030
     16 C          -4.8754  -20.0389   20.8157 C.ar    1  UNL1        0.0002
     17 C          -3.4179  -20.2376   20.5220 C.ar    1  UNL1        0.0031
     18 C          -2.3851  -19.4872   21.3096 C.ar    1  UNL1        0.0366
     19 C          -2.8098  -18.5381   22.3908 C.ar    1  UNL1        0.1337
     20 O          -1.7770  -17.7878   23.1784 O.3     1  UNL1       -0.5055
     21 C          -4.2673  -18.3395   22.6844 C.ar    1  UNL1        0.0366
     22 H          -0.8666  -17.9119   22.9950 H       1  UNL1        0.2922
@<TRIPOS>BOND
     1     7     8    1
     2     8     9   ar
     3     9    10   ar
     4    10    11   ar
     5    11    12   ar
     6    12     1    1
     7     1     2   ar
     8     2     3   ar
     9     3     4   ar
    10     4    15    1
    11    15    16   ar
    12    16    17   ar
    13    17    18   ar
    14    18    19   ar
    15    19    20    1
    16    19    21   ar
    17     4     5   ar
    18     5     6   ar
    19    12    13   ar
    20    13     8   ar
    21     6     1   ar
    22    21    15   ar
    23     7    14    1
    24    20    22    1
@<TRIPOS>MOLECULE
*****
 22 24 0 0 0
SMALL
GASTEIGER

@<TRIPOS>ATOM
      1 C          -6.7582  -18.8933   22.1948 C.ar    1  UNL1        0.0001
      2 C          -7.6534  -20.0848   22.3649 C.ar    1  UNL1        0.0000
      3 C          -9.1125  -19.8915   22.6541 C.ar    1  UNL1        0.0000
      4 C          -9.6765  -18.5067   22.7731 C.ar    1  UNL1        0.0001
      5 C          -8.7812  -17.3151   22.6030 C.ar    1  UNL1        0.0000
      6 C          -7.3222  -17.5085   22.3139 C.ar    1  UNL1        0.0000
      7 O          -1.7842  -17.7836   23.2088 O.3     1  UNL1       -0.5055
      8 C          -2.8121  -18.5318   22.4127 C.ar    1  UNL1        0.1337
      9 C          -2.3809  -19.4732   21.3275 C.ar    1  UNL1        0.0366
     10 C          -3.4087  -20.2213   20.5314 C.ar    1  UNL1        0.0031
     11 C          -4.8678  -20.0281   20.8205 C.ar    1  UNL1        0.0002
     12 C          -5.2991  -19.0866   21.9057 C.ar    1  UNL1        0.0030
     13 C          -4.2712  -18.3385   22.7018 C.ar    1  UNL1        0.0366
     14 H          -0.8728  -17.9044   23.0282 H       1  UNL1        0.2922
     15 C         -11.1356  -18.3133   23.0623 C.ar    1  UNL1        0.0030
     16 C         -12.0413  -17.7517   22.0068 C.ar    1  UNL1        0.0002
     17 C         -13.5004  -17.5583   22.2959 C.ar    1  UNL1        0.0031
     18 C         -14.0538  -17.9266   23.6405 C.ar    1  UNL1        0.0366
     19 C         -13.1480  -18.4883   24.6961 C.ar    1  UNL1        0.1337
     20 O         -13.7014  -18.8566   26.0408 O.3     1  UNL1       -0.5055
     21 C         -11.6889  -18.6816   24.4070 C.ar    1  UNL1        0.0366
     22 H         -14.6128  -18.7358   26.2214 H       1  UNL1        0.2922
@<TRIPOS>BOND
     1     7     8    1
     2     8     9   ar
     3     9    10   ar
     4    10    11   ar
     5    11    12   ar
     6    12     1    1
     7     1     2   ar
     8     2     3   ar
     9     3     4   ar
    10     4    15    1
    11    15    16   ar
    12    16    17   ar
    13    17    18   ar
    14    18    19   ar
    15    19    20    1
    16    19    21   ar
    17     4     5   ar
    18     5     6   ar
    19    12    13   ar
    20    13     8   ar
    21     6     1   ar
    22    21    15   ar
    23     7    14    1
    24    20    22    1
@<TRIPOS>MOLECULE
*****
 22 24 0 0 0
SMALL
GASTEIGER

@<TRIPOS>ATOM
      1 C          -6.1072  -18.8023   21.4308 C.ar    1  UNL1        0.0001
      2 C          -7.1368  -19.5305   20.6188 C.ar    1  UNL1        0.0000
      3 C          -8.5948  -19.3562   20.9256 C.ar    1  UNL1        0.0000
      4 C          -9.0230  -18.4535   22.0444 C.ar    1  UNL1        0.0001
      5 C          -7.9932  -17.7252   22.8565 C.ar    1  UNL1        0.0000
      6 C          -6.5354  -17.8996   22.5496 C.ar    1  UNL1        0.0000
      7 O          -2.1202  -18.3652   18.1273 O.3     1  UNL1       -0.5055
      8 C          -2.6558  -18.7581   19.4722 C.ar    1  UNL1        0.1337
      9 C          -1.7335  -19.3254   20.5102 C.ar    1  UNL1        0.0366
     10 C          -2.2691  -19.7182   21.8551 C.ar    1  UNL1        0.0031
     11 C          -3.7270  -19.5439   22.1620 C.ar    1  UNL1        0.0002
     12 C          -4.6492  -18.9767   21.1239 C.ar    1  UNL1        0.0030
     13 C          -4.1137  -18.5838   19.7790 C.ar    1  UNL1        0.0366
     14 H          -1.2095  -18.4741   17.9356 H       1  UNL1        0.2922
     15 C         -10.4808  -18.2791   22.3513 C.ar    1  UNL1        0.0030
     16 C         -11.4180  -17.7906   21.2869 C.ar    1  UNL1        0.0002
     17 C         -12.8760  -17.6162   21.5937 C.ar    1  UNL1        0.0031
     18 C         -13.3966  -17.9303   22.9650 C.ar    1  UNL1        0.0366
     19 C         -12.4593  -18.4188   24.0294 C.ar    1  UNL1        0.1337
     20 O         -12.9800  -18.7329   25.4006 O.3     1  UNL1       -0.5055
     21 C         -11.0015  -18.5932   23.7225 C.ar    1  UNL1        0.0366
     22 H         -13.8907  -18.6240   25.5923 H       1  UNL1        0.2922
@<TRIPOS>BOND
     1     7     8    1
     2     8     9   ar
     3     9    10   ar
     4    10    11   ar
     5    11    12   ar
     6    12     1    1
     7     1     2   ar
     8     2     3   ar
     9     3     4   ar
    10     4    15    1
    11    15    16   ar
    12    16    17   ar
    13    17    18   ar
    14    18    19   ar
    15    19    20    1
    16    19    21   ar
    17     4     5   ar
    18     5     6   ar
    19    12    13   ar
    20    13     8   ar
    21     6     1   ar
    22    21    15   ar
    23     7    14    1
    24    20    22    1
@<TRIPOS>MOLECULE
*****
 22 24 0 0 0
SMALL
GASTEIGER

@<TRIPOS>ATOM
      1 C          -4.3165  -18.6551   20.7172 C.ar    1  UNL1        0.0001
      2 C          -5.3555  -19.0934   19.7281 C.ar    1  UNL1        0.0000
      3 C          -6.7581  -19.3662   20.1848 C.ar    1  UNL1        0.0000
      4 C          -7.1215  -19.2007   21.6306 C.ar    1  UNL1        0.0001
      5 C          -6.0825  -18.7624   22.6198 C.ar    1  UNL1        0.0000
      6 C          -4.6800  -18.4896   22.1630 C.ar    1  UNL1        0.0000
      7 O          -0.9255  -17.7665   16.8816 O.3     1  UNL1       -0.5055
      8 C          -1.2185  -17.9380   18.3427 C.ar    1  UNL1        0.1337
      9 C          -0.1091  -17.8368   19.3470 C.ar    1  UNL1        0.0366
     10 C          -0.4020  -18.0083   20.8081 C.ar    1  UNL1        0.0031
     11 C          -1.8045  -18.2810   21.2648 C.ar    1  UNL1        0.0002
     12 C          -2.9140  -18.3823   20.2605 C.ar    1  UNL1        0.0030
     13 C          -2.6210  -18.2108   18.7994 C.ar    1  UNL1        0.0366
     14 H          -0.0494  -17.5961   16.5963 H       1  UNL1        0.2922
     15 C          -8.5240  -19.4735   22.0873 C.ar    1  UNL1        0.0030
     16 C          -9.6557  -19.4254   21.1040 C.ar    1  UNL1        0.0002
     17 C         -11.0582  -19.6982   21.5607 C.ar    1  UNL1        0.0031
     18 C         -11.3290  -20.0190   23.0008 C.ar    1  UNL1        0.0366
     19 C         -10.1973  -20.0670   23.9841 C.ar    1  UNL1        0.1337
     20 O         -10.4681  -20.3878   25.4242 O.3     1  UNL1       -0.5055
     21 C          -8.7948  -19.7942   23.5274 C.ar    1  UNL1        0.0366
     22 H         -11.3442  -20.5582   25.7095 H       1  UNL1        0.2922
@<TRIPOS>BOND
     1     7     8    1
     2     8     9   ar
     3     9    10   ar
     4    10    11   ar
     5    11    12   ar
     6    12     1    1
     7     1     2   ar
     8     2     3   ar
     9     3     4   ar
    10     4    15    1
    11    15    16   ar
    12    16    17   ar
    13    17    18   ar
    14    18    19   ar
    15    19    20    1
    16    19    21   ar
    17     4     5   ar
    18     5     6   ar
    19    12    13   ar
    20    13     8   ar
    21     6     1   ar
    22    21    15   ar
    23     7    14    1
    24    20    22    1
@<TRIPOS>MOLECULE
*****
 22 24 0 0 0
SMALL
GASTEIGER

@<TRIPOS>ATOM
      1 C         -13.6102   -6.6749   18.9312 C.ar    1  UNL1        0.0001
      2 C         -14.7582   -5.8954   19.5007 C.ar    1  UNL1        0.0000
      3 C         -16.1284   -6.5042   19.5472 C.ar    1  UNL1        0.0000
      4 C         -16.3504   -7.8925   19.0243 C.ar    1  UNL1        0.0001
      5 C         -15.2022   -8.6719   18.4548 C.ar    1  UNL1        0.0000
      6 C         -13.8322   -8.0631   18.4083 C.ar    1  UNL1        0.0000
      7 O         -10.5442   -2.4806   19.0203 O.3     1  UNL1       -0.5055
      8 C         -10.7071   -3.9689   18.9292 C.ar    1  UNL1        0.1337
      9 C          -9.4998   -4.8485   18.7915 C.ar    1  UNL1        0.0366
     10 C          -9.6627   -6.3368   18.7004 C.ar    1  UNL1        0.0031
     11 C         -11.0328   -6.9456   18.7470 C.ar    1  UNL1        0.0002
     12 C         -12.2400   -6.0661   18.8846 C.ar    1  UNL1        0.0030
     13 C         -12.0771   -4.5777   18.9758 C.ar    1  UNL1        0.0366
     14 H          -9.6883   -2.1003   18.9912 H       1  UNL1        0.2922
     15 C         -17.7205   -8.5013   19.0709 C.ar    1  UNL1        0.0030
     16 C         -18.6833   -8.0999   20.1487 C.ar    1  UNL1        0.0002
     17 C         -20.0534   -8.7087   20.1953 C.ar    1  UNL1        0.0031
     18 C         -20.4607   -9.7189   19.1640 C.ar    1  UNL1        0.0366
     19 C         -19.4978  -10.1202   18.0861 C.ar    1  UNL1        0.1337
     20 O         -19.9051  -11.1304   17.0548 O.3     1  UNL1       -0.5055
     21 C         -18.1278   -9.5114   18.0395 C.ar    1  UNL1        0.0366
     22 H         -20.7610  -11.5107   17.0838 H       1  UNL1        0.2922
@<TRIPOS>BOND
     1     7     8    1
     2     8     9   ar
     3     9    10   ar
     4    10    11   ar
     5    11    12   ar
     6    12     1    1
     7     1     2   ar
     8     2     3   ar
     9     3     4   ar
    10     4    15    1
    11    15    16   ar
    12    16    17   ar
    13    17    18   ar
    14    18    19   ar
    15    19    20    1
    16    19    21   ar
    17     4     5   ar
    18     5     6   ar
    19    12    13   ar
    20    13     8   ar
    21     6     1   ar
    22    21    15   ar
    23     7    14    1
    24    20    22    1
@<TRIPOS>MOLECULE
*****
 22 24 0 0 0
SMALL
GASTEIGER

@<TRIPOS>ATOM
      1 C          -5.3694  -18.7406   21.2282 C.ar    1  UNL1        0.0001
      2 C          -5.7693  -17.9690   22.4507 C.ar    1  UNL1        0.0000
      3 C          -7.2170  -17.8582   22.8276 C.ar    1  UNL1        0.0000
      4 C          -8.2648  -18.5190   21.9818 C.ar    1  UNL1        0.0001
      5 C          -7.8649  -19.2906   20.7591 C.ar    1  UNL1        0.0000
      6 C          -6.4172  -19.4014   20.3824 C.ar    1  UNL1        0.0000
      7 O          -1.4978  -17.7658   17.9025 O.3     1  UNL1       -0.5055
      8 C          -1.9859  -18.3640   19.1885 C.ar    1  UNL1        0.1337
      9 C          -1.0265  -19.0730   20.0977 C.ar    1  UNL1        0.0366
     10 C          -1.5146  -19.6711   21.3837 C.ar    1  UNL1        0.0031
     11 C          -2.9622  -19.5604   21.7606 C.ar    1  UNL1        0.0002
     12 C          -3.9217  -18.8514   20.8514 C.ar    1  UNL1        0.0030
     13 C          -3.4336  -18.2532   19.5653 C.ar    1  UNL1        0.0366
     14 H          -0.5935  -17.8350   17.6671 H       1  UNL1        0.2922
     15 C          -9.7124  -18.4082   22.3585 C.ar    1  UNL1        0.0030
     16 C         -10.1784  -18.8974   23.6977 C.ar    1  UNL1        0.0002
     17 C         -11.6261  -18.7867   24.0745 C.ar    1  UNL1        0.0031
     18 C         -12.6078  -18.1867   23.1121 C.ar    1  UNL1        0.0366
     19 C         -12.1418  -17.6975   21.7728 C.ar    1  UNL1        0.1337
     20 O         -13.1235  -17.0975   20.8104 O.3     1  UNL1       -0.5055
     21 C         -10.6941  -17.8082   21.3961 C.ar    1  UNL1        0.0366
     22 H         -14.0278  -17.0283   21.0457 H       1  UNL1        0.2922
@<TRIPOS>BOND
     1     7     8    1
     2     8     9   ar
     3     9    10   ar
     4    10    11   ar
     5    11    12   ar
     6    12     1    1
     7     1     2   ar
     8     2     3   ar
     9     3     4   ar
    10     4    15    1
    11    15    16   ar
    12    16    17   ar
    13    17    18   ar
    14    18    19   ar
    15    19    20    1
    16    19    21   ar
    17     4     5   ar
    18     5     6   ar
    19    12    13   ar
    20    13     8   ar
    21     6     1   ar
    22    21    15   ar
    23     7    14    1
    24    20    22    1
@<TRIPOS>MOLECULE
*****
 22 24 0 0 0
SMALL
GASTEIGER

@<TRIPOS>ATOM
      1 C          -9.0202  -18.2171   22.9106 C.ar    1  UNL1        0.0001
      2 C          -8.1803  -17.0510   23.3403 C.ar    1  UNL1        0.0000
      3 C          -6.6894  -17.1020   23.1827 C.ar    1  UNL1        0.0000
      4 C          -6.0385  -18.3191   22.5953 C.ar    1  UNL1        0.0001
      5 C          -6.8785  -19.4852   22.1656 C.ar    1  UNL1        0.0000
      6 C          -8.3693  -19.4342   22.3232 C.ar    1  UNL1        0.0000
      7 O         -13.7228  -17.2263   20.9349 O.3     1  UNL1       -0.5055
      8 C         -12.8623  -17.6707   22.0803 C.ar    1  UNL1        0.1337
      9 C         -13.4926  -18.0641   23.3833 C.ar    1  UNL1        0.0366
     10 C         -12.6321  -18.5086   24.5288 C.ar    1  UNL1        0.0031
     11 C         -11.1413  -18.5595   24.3712 C.ar    1  UNL1        0.0002
     12 C         -10.5110  -18.1661   23.0682 C.ar    1  UNL1        0.0030
     13 C         -11.3715  -17.7217   21.9227 C.ar    1  UNL1        0.0366
     14 H         -14.6541  -17.1945   21.0333 H       1  UNL1        0.2922
     15 C          -4.5477  -18.3701   22.4377 C.ar    1  UNL1        0.0030
     16 C          -3.6921  -17.2992   23.0468 C.ar    1  UNL1        0.0002
     17 C          -2.2012  -17.3502   22.8892 C.ar    1  UNL1        0.0031
     18 C          -1.5661  -18.4721   22.1224 C.ar    1  UNL1        0.0366
     19 C          -2.4218  -19.5430   21.5133 C.ar    1  UNL1        0.1337
     20 O          -1.7866  -20.6649   20.7465 O.3     1  UNL1       -0.5055
     21 C          -3.9126  -19.4920   21.6709 C.ar    1  UNL1        0.0366
     22 H          -0.8553  -20.6968   20.6480 H       1  UNL1        0.2922
@<TRIPOS>BOND
     1     7     8    1
     2     8     9   ar
     3     9    10   ar
     4    10    11   ar
     5    11    12   ar
     6    12     1    1
     7     1     2   ar
     8     2     3   ar
     9     3     4   ar
    10     4    15    1
    11    15    16   ar
    12    16    17   ar
    13    17    18   ar
    14    18    19   ar
    15    19    20    1
    16    19    21   ar
    17     4     5   ar
    18     5     6   ar
    19    12    13   ar
    20    13     8   ar
    21     6     1   ar
    22    21    15   ar
    23     7    14    1
    24    20    22    1
@<TRIPOS>MOLECULE
*****
 22 24 0 0 0
SMALL
GASTEIGER

@<TRIPOS>ATOM
      1 C          -7.4818  -18.9360   21.7059 C.ar    1  UNL1        0.0001
      2 C          -6.4378  -18.5143   22.6969 C.ar    1  UNL1        0.0000
      3 C          -5.0068  -18.3799   22.2674 C.ar    1  UNL1        0.0000
      4 C          -4.6200  -18.6671   20.8469 C.ar    1  UNL1        0.0001
      5 C          -5.6641  -19.0888   19.8559 C.ar    1  UNL1        0.0000
      6 C          -7.0949  -19.2232   20.2853 C.ar    1  UNL1        0.0000
      7 O         -12.5173  -17.8822   20.9753 O.3     1  UNL1       -0.5055
      8 C         -11.4305  -18.5435   21.7700 C.ar    1  UNL1        0.1337
      9 C         -11.7745  -19.3391   22.9941 C.ar    1  UNL1        0.0366
     10 C         -10.6877  -20.0004   23.7888 C.ar    1  UNL1        0.0031
     11 C          -9.2568  -19.8660   23.3594 C.ar    1  UNL1        0.0002
     12 C          -8.9127  -19.0704   22.1353 C.ar    1  UNL1        0.0030
     13 C          -9.9996  -18.4091   21.3406 C.ar    1  UNL1        0.0366
     14 H         -13.4111  -17.9662   21.2436 H       1  UNL1        0.2922
     15 C          -3.1891  -18.5328   20.4174 C.ar    1  UNL1        0.0030
     16 C          -2.0850  -18.7417   21.4111 C.ar    1  UNL1        0.0002
     17 C          -0.6541  -18.6073   20.9816 C.ar    1  UNL1        0.0031
     18 C          -0.3273  -18.2640   19.5585 C.ar    1  UNL1        0.0366
     19 C          -1.4314  -18.0550   18.5648 C.ar    1  UNL1        0.1337
     20 O          -1.1046  -17.7117   17.1417 O.3     1  UNL1       -0.5055
     21 C          -2.8623  -18.1894   18.9943 C.ar    1  UNL1        0.0366
     22 H          -0.2107  -17.6277   16.8734 H       1  UNL1        0.2922
@<TRIPOS>BOND
     1     7     8    1
     2     8     9   ar
     3     9    10   ar
     4    10    11   ar
     5    11    12   ar
     6    12     1    1
     7     1     2   ar
     8     2     3   ar
     9     3     4   ar
    10     4    15    1
    11    15    16   ar
    12    16    17   ar
    13    17    18   ar
    14    18    19   ar
    15    19    20    1
    16    19    21   ar
    17     4     5   ar
    18     5     6   ar
    19    12    13   ar
    20    13     8   ar
    21     6     1   ar
    22    21    15   ar
    23     7    14    1
    24    20    22    1
@<TRIPOS>MOLECULE
*****
 22 24 0 0 0
SMALL
GASTEIGER

@<TRIPOS>ATOM
      1 C          -6.1136  -18.7687   21.6863 C.ar    1  UNL1        0.0001
      2 C          -7.1843  -19.6991   21.1985 C.ar    1  UNL1        0.0000
      3 C          -8.6013  -19.5174   21.6558 C.ar    1  UNL1        0.0000
      4 C          -8.9476  -18.4054   22.6010 C.ar    1  UNL1        0.0001
      5 C          -7.8769  -17.4749   23.0888 C.ar    1  UNL1        0.0000
      6 C          -6.4599  -17.6566   22.6314 C.ar    1  UNL1        0.0000
      7 O          -1.0151  -18.6663   22.6833 O.3     1  UNL1       -0.5055
      8 C          -2.1474  -18.8991   21.7274 C.ar    1  UNL1        0.1337
      9 C          -1.8627  -19.3136   20.3143 C.ar    1  UNL1        0.0366
     10 C          -2.9950  -19.5465   19.3584 C.ar    1  UNL1        0.0031
     11 C          -4.4120  -19.3648   19.8157 C.ar    1  UNL1        0.0002
     12 C          -4.6966  -18.9503   21.2289 C.ar    1  UNL1        0.0030
     13 C          -3.5643  -18.7175   22.1848 C.ar    1  UNL1        0.0366
     14 H          -0.1299  -18.7797   22.3976 H       1  UNL1        0.2922
     15 C         -10.3645  -18.2237   23.0584 C.ar    1  UNL1        0.0030
     16 C         -10.9420  -19.1424   24.0940 C.ar    1  UNL1        0.0002
     17 C         -12.3590  -18.9607   24.5514 C.ar    1  UNL1        0.0031
     18 C         -13.1985  -17.8603   23.9732 C.ar    1  UNL1        0.0366
     19 C         -12.6210  -16.9416   22.9375 C.ar    1  UNL1        0.1337
     20 O         -13.4605  -15.8412   22.3593 O.3     1  UNL1       -0.5055
     21 C         -11.2041  -17.1233   22.4802 C.ar    1  UNL1        0.0366
     22 H         -14.3456  -15.7277   22.6450 H       1  UNL1        0.2922
@<TRIPOS>BOND
     1     7     8    1
     2     8     9   ar
     3     9    10   ar
     4    10    11   ar
     5    11    12   ar
     6    12     1    1
     7     1     2   ar
     8     2     3   ar
     9     3     4   ar
    10     4    15    1
    11    15    16   ar
    12    16    17   ar
    13    17    18   ar
    14    18    19   ar
    15    19    20    1
    16    19    21   ar
    17     4     5   ar
    18     5     6   ar
    19    12    13   ar
    20    13     8   ar
    21     6     1   ar
    22    21    15   ar
    23     7    14    1
    24    20    22    1
