@<TRIPOS>MOLECULE
*****
 37 40 0 0 0
SMALL
GASTEIGER

@<TRIPOS>ATOM
      1 N           4.5427    0.0182   30.3203 N.am    1  UNL1       -0.2766
      2 C           3.5299   -0.4106   31.3403 C.2     1  UNL1        0.2859
      3 O           2.2213   -0.9955   30.8980 O.2     1  UNL1       -0.2664
      4 H           5.4016    0.4020   30.6105 H       1  UNL1        0.1553
      5 C           3.6554   -0.4503   25.9335 C.ar    1  UNL1        0.1319
      6 C           4.3982   -1.5269   26.6676 C.ar    1  UNL1        0.0356
      7 C           4.6940   -1.3708   28.1299 C.ar    1  UNL1        0.0191
      8 C           4.2469   -0.1380   28.8580 C.ar    1  UNL1        0.0702
      9 C           3.5041    0.9387   28.1239 C.ar    1  UNL1        0.1149
     10 N           3.2084    0.7826   26.6617 N.ar    1  UNL1       -0.2279
     11 C           2.4724   -1.0748   20.0846 C.2     1  UNL1        0.4049
     12 O           1.4860   -0.1628   19.4173 O.2     1  UNL1       -0.2262
     13 N           2.7681   -0.9187   21.5468 N.am    1  UNL1       -0.2425
     14 C           3.7545   -1.8307   22.2141 C.3     1  UNL1        0.1182
     15 C           4.0502   -1.6746   23.6763 C.3     1  UNL1        0.1138
     16 N           3.3597   -0.6064   24.4713 N.pl3   1  UNL1       -0.2897
     17 C           2.3733    0.3056   23.8040 C.3     1  UNL1        0.1138
     18 C           2.0776    0.1495   22.3418 C.3     1  UNL1        0.1182
     19 O           3.1629   -2.1430   19.2896 O.3     1  UNL1       -0.4383
     20 C           5.6390   -2.2168   18.5063 C.3     1  UNL1        0.0474
     21 C           4.2224   -1.7711   18.2950 C.3     1  UNL1        0.1707
     22 C           3.8653   -0.9534   17.0892 C.3     1  UNL1        0.0474
     23 C           3.8257   -0.2544   32.8025 C.ar    1  UNL1        0.2233
     24 O           3.3738    0.8769   33.6776 O.2     1  UNL1       -0.4191
     25 C           3.8941    0.6284   35.0623 C.ar    1  UNL1        0.2925
     26 N           4.6676   -0.6566   35.0431 N.ar    1  UNL1       -0.1904
     27 C           4.6254   -1.2023   33.6464 C.ar    1  UNL1        0.1959
     28 N           3.6787    1.5099   36.2566 N.pl3   1  UNL1       -0.2636
     29 C           4.3685    1.1997   37.5519 C.3     1  UNL1        0.0951
     30 C           4.1530    2.0814   38.7462 C.3     1  UNL1        0.0216
     31 C           3.2479    3.2732   38.6451 C.3     1  UNL1        0.0035
     32 C           2.5581    3.5834   37.3497 C.3     1  UNL1        0.0216
     33 C           2.7735    2.7018   36.1555 C.3     1  UNL1        0.0951
     34 C           5.2696   -2.4726   33.1763 C.3     1  UNL1        0.4381
     35 F           5.9140   -3.7430   32.7061 F       1  UNL1       -0.1643
     36 F           4.0739   -3.2506   33.6397 F       1  UNL1       -0.1643
     37 F           6.4655   -1.6946   32.7128 F       1  UNL1       -0.1643
@<TRIPOS>BOND
     1    20    21    1
     2    21    22    1
     3    21    19    1
     4    19    11    1
     5    11    12    2
     6    11    13   am
     7    13    14    1
     8    14    15    1
     9    15    16    1
    10    16     5    1
    11     5     6   ar
    12     6     7   ar
    13     7     8   ar
    14     8     1    1
    15     1     2   am
    16     2     3    2
    17     2    23    1
    18    23    24   ar
    19    24    25   ar
    20    25    28    1
    21    28    29    1
    22    29    30    1
    23    30    31    1
    24    31    32    1
    25    32    33    1
    26    25    26   ar
    27    26    27   ar
    28    27    34    1
    29    34    35    1
    30    34    36    1
    31    34    37    1
    32     8     9   ar
    33     9    10   ar
    34    16    17    1
    35    17    18    1
    36    18    13    1
    37    10     5   ar
    38    27    23   ar
    39    33    28    1
    40     1     4    1
@<TRIPOS>MOLECULE
*****
 37 40 0 0 0
SMALL
GASTEIGER

@<TRIPOS>ATOM
      1 N           4.6822   -0.2504   30.2566 N.am    1  UNL1       -0.2766
      2 C           3.5598   -0.4744   31.2261 C.2     1  UNL1        0.2859
      3 O           2.2221   -0.9383   30.7307 O.2     1  UNL1       -0.2664
      4 H           5.5602    0.0540   30.5818 H       1  UNL1        0.1553
      5 C           4.0364   -0.9698   25.8617 C.ar    1  UNL1        0.1319
      6 C           3.3410    0.1699   26.5452 C.ar    1  UNL1        0.0356
      7 C           3.5562    0.4097   28.0102 C.ar    1  UNL1        0.0191
      8 C           4.4669   -0.4902   28.7916 C.ar    1  UNL1        0.0702
      9 C           5.1624   -1.6300   28.1081 C.ar    1  UNL1        0.1149
     10 N           4.9471   -1.8698   26.6431 N.ar    1  UNL1       -0.2279
     11 C           3.1753   -1.9290   20.0018 C.2     1  UNL1        0.4049
     12 O           3.8141   -3.1101   19.3333 O.2     1  UNL1       -0.2262
     13 N           3.3906   -1.6892   21.4668 N.am    1  UNL1       -0.2425
     14 C           2.7518   -0.5081   22.1352 C.3     1  UNL1        0.1182
     15 C           2.9671   -0.2683   23.6002 C.3     1  UNL1        0.1138
     16 N           3.8211   -1.2096   24.3967 N.pl3   1  UNL1       -0.2897
     17 C           4.4599   -2.3907   23.7282 C.3     1  UNL1        0.1138
     18 C           4.2446   -2.6305   22.2633 C.3     1  UNL1        0.1182
     19 O           2.3212   -0.9877   19.2053 O.3     1  UNL1       -0.4383
     20 C           2.7539    1.4468   18.4075 C.3     1  UNL1        0.0474
     21 C           2.9578   -0.0301   18.2420 C.3     1  UNL1        0.1707
     22 C           3.7982   -0.5494   17.1133 C.3     1  UNL1        0.0474
     23 C           3.7751   -0.2346   32.6911 C.ar    1  UNL1        0.2233
     24 O           3.2480    0.9263   33.4813 O.2     1  UNL1       -0.4191
     25 C           3.7024    0.7648   34.9017 C.ar    1  UNL1        0.2925
     26 N           4.5103   -0.4960   34.9893 N.ar    1  UNL1       -0.1904
     27 C           4.5553   -1.1137   33.6231 C.ar    1  UNL1        0.1959
     28 N           3.4017    1.6998   36.0353 N.pl3   1  UNL1       -0.2636
     29 C           2.6032    2.9453   35.7886 C.3     1  UNL1        0.0951
     30 C           2.3025    3.8803   36.9224 C.3     1  UNL1        0.0216
     31 C           2.8004    3.5697   38.3028 C.3     1  UNL1        0.0035
     32 C           3.5989    2.3242   38.5496 C.3     1  UNL1        0.0216
     33 C           3.8996    1.3892   37.4158 C.3     1  UNL1        0.0951
     34 C           5.2571   -2.3868   33.2538 C.3     1  UNL1        0.4381
     35 F           5.9590   -3.6601   32.8845 F       1  UNL1       -0.1643
     36 F           6.4431   -1.5972   32.7850 F       1  UNL1       -0.1643
     37 F           4.0712   -3.1767   33.7226 F       1  UNL1       -0.1643
@<TRIPOS>BOND
     1    20    21    1
     2    21    22    1
     3    21    19    1
     4    19    11    1
     5    11    12    2
     6    11    13   am
     7    13    14    1
     8    14    15    1
     9    15    16    1
    10    16     5    1
    11     5     6   ar
    12     6     7   ar
    13     7     8   ar
    14     8     1    1
    15     1     2   am
    16     2     3    2
    17     2    23    1
    18    23    24   ar
    19    24    25   ar
    20    25    28    1
    21    28    29    1
    22    29    30    1
    23    30    31    1
    24    31    32    1
    25    32    33    1
    26    25    26   ar
    27    26    27   ar
    28    27    34    1
    29    34    35    1
    30    34    36    1
    31    34    37    1
    32     8     9   ar
    33     9    10   ar
    34    16    17    1
    35    17    18    1
    36    18    13    1
    37    10     5   ar
    38    27    23   ar
    39    33    28    1
    40     1     4    1
@<TRIPOS>MOLECULE
*****
 37 40 0 0 0
SMALL
GASTEIGER

@<TRIPOS>ATOM
      1 N          -4.4101    4.7993   22.9631 N.am    1  UNL1       -0.2766
      2 C          -5.2992    4.1400   23.9754 C.2     1  UNL1        0.2859
      3 O          -4.9935    2.7503   24.4501 O.2     1  UNL1       -0.2664
      4 H          -4.6107    5.7114   22.6515 H       1  UNL1        0.1553
      5 C          -0.8256    2.6083   21.3504 C.ar    1  UNL1        0.1319
      6 C          -0.7621    3.2588   22.7005 C.ar    1  UNL1        0.0356
      7 C          -1.9569    3.9891   23.2380 C.ar    1  UNL1        0.0191
      8 C          -3.2152    4.0690   22.4255 C.ar    1  UNL1        0.0702
      9 C          -3.2787    3.4185   21.0755 C.ar    1  UNL1        0.1149
     10 N          -2.0839    2.6881   20.5379 N.ar    1  UNL1       -0.2279
     11 C           3.9537   -0.3131   19.2001 C.2     1  UNL1        0.4049
     12 O           5.2978    0.3528   19.1901 O.2     1  UNL1       -0.2262
     13 N           2.7589    0.4173   19.7377 N.am    1  UNL1       -0.2425
     14 C           1.4149   -0.2486   19.7478 C.3     1  UNL1        0.1182
     15 C           0.2201    0.4817   20.2853 C.3     1  UNL1        0.1138
     16 N           0.3693    1.8779   20.8128 N.pl3   1  UNL1       -0.2897
     17 C           1.7133    2.5438   20.8028 C.3     1  UNL1        0.1138
     18 C           2.9081    1.8135   20.2652 C.3     1  UNL1        0.1182
     19 O           3.8045   -1.7093   18.6726 O.3     1  UNL1       -0.4383
     20 C           3.5242   -4.2535   19.1183 C.3     1  UNL1        0.0474
     21 C           3.8491   -2.8757   19.6147 C.3     1  UNL1        0.1707
     22 C           4.2184   -2.6644   21.0530 C.3     1  UNL1        0.0474
     23 C          -6.4940    4.8704   24.5129 C.ar    1  UNL1        0.2233
     24 O          -7.9135    4.6901   24.0630 O.2     1  UNL1       -0.4191
     25 C          -8.7760    5.6176   24.8668 C.ar    1  UNL1        0.2925
     26 N          -7.8894    6.3710   25.8136 N.ar    1  UNL1       -0.1904
     27 C          -6.4791    5.9093   25.5949 C.ar    1  UNL1        0.1959
     28 N         -10.2636    5.7656   24.7452 N.pl3   1  UNL1       -0.2636
     29 C         -10.8614    7.1071   24.4406 C.3     1  UNL1        0.0951
     30 C         -12.3492    7.2551   24.3191 C.3     1  UNL1        0.0216
     31 C         -13.2390    6.0615   24.5021 C.3     1  UNL1        0.0035
     32 C         -12.6412    4.7199   24.8068 C.3     1  UNL1        0.0216
     33 C         -11.1535    4.5720   24.9283 C.3     1  UNL1        0.0951
     34 C          -5.2668    6.4001   26.3292 C.3     1  UNL1        0.4381
     35 F          -4.0544    6.8910   27.0636 F       1  UNL1       -0.1643
     36 F          -4.9273    7.2925   25.1724 F       1  UNL1       -0.1643
     37 F          -5.6062    5.5078   27.4862 F       1  UNL1       -0.1643
@<TRIPOS>BOND
     1    20    21    1
     2    21    22    1
     3    21    19    1
     4    19    11    1
     5    11    12    2
     6    11    13   am
     7    13    14    1
     8    14    15    1
     9    15    16    1
    10    16     5    1
    11     5     6   ar
    12     6     7   ar
    13     7     8   ar
    14     8     1    1
    15     1     2   am
    16     2     3    2
    17     2    23    1
    18    23    24   ar
    19    24    25   ar
    20    25    28    1
    21    28    29    1
    22    29    30    1
    23    30    31    1
    24    31    32    1
    25    32    33    1
    26    25    26   ar
    27    26    27   ar
    28    27    34    1
    29    34    35    1
    30    34    36    1
    31    34    37    1
    32     8     9   ar
    33     9    10   ar
    34    16    17    1
    35    17    18    1
    36    18    13    1
    37    10     5   ar
    38    27    23   ar
    39    33    28    1
    40     1     4    1
@<TRIPOS>MOLECULE
*****
 37 40 0 0 0
SMALL
GASTEIGER

@<TRIPOS>ATOM
      1 N           1.6291    0.5262   26.8446 N.am    1  UNL1       -0.2766
      2 C           2.8035    0.7311   25.9343 C.2     1  UNL1        0.2859
      3 O           4.0251    1.4434   26.4348 O.2     1  UNL1       -0.2664
      4 H           0.8273    0.0587   26.5161 H       1  UNL1        0.1553
      5 C           1.7704    2.0480   31.0771 C.ar    1  UNL1        0.1319
      6 C           1.5697    3.0072   29.9415 C.ar    1  UNL1        0.0356
      7 C           1.5226    2.4999   28.5307 C.ar    1  UNL1        0.0191
      8 C           1.6762    1.0334   28.2554 C.ar    1  UNL1        0.0702
      9 C           1.8769    0.0742   29.3910 C.ar    1  UNL1        0.1149
     10 N           1.9241    0.5815   30.8018 N.ar    1  UNL1       -0.2279
     11 C           1.9589    4.0771   36.7204 C.2     1  UNL1        0.4049
     12 O           1.2732    5.3621   37.0787 O.2     1  UNL1       -0.2262
     13 N           1.9118    3.5698   35.3096 N.am    1  UNL1       -0.2425
     14 C           2.5976    2.2848   34.9513 C.3     1  UNL1        0.1182
     15 C           2.5504    1.7775   33.5405 C.3     1  UNL1        0.1138
     16 N           1.8176    2.5552   32.4879 N.pl3   1  UNL1       -0.2897
     17 C           1.1318    3.8403   32.8462 C.3     1  UNL1        0.1138
     18 C           1.1789    4.3475   34.2570 C.3     1  UNL1        0.1182
     19 O           2.6918    3.2993   37.7730 O.3     1  UNL1       -0.4383
     20 C           0.6701    2.4983   39.1947 C.3     1  UNL1        0.0474
     21 C           1.9859    2.2153   38.5323 C.3     1  UNL1        0.1707
     22 C           2.5958    0.8483   38.6293 C.3     1  UNL1        0.0474
     23 C           2.7563    0.2239   24.5234 C.ar    1  UNL1        0.2233
     24 O           3.6096   -0.8686   23.9503 O.2     1  UNL1       -0.4191
     25 C           3.2283   -1.0477   22.5107 C.ar    1  UNL1        0.2925
     26 N           2.1394   -0.0658   22.1940 N.ar    1  UNL1       -0.1904
     27 C           1.8476    0.7201   23.4380 C.ar    1  UNL1        0.1959
     28 N           3.8302   -2.0351   21.5554 N.pl3   1  UNL1       -0.2636
     29 C           4.9714   -2.9038   21.9947 C.3     1  UNL1        0.0951
     30 C           5.5732   -3.8912   21.0393 C.3     1  UNL1        0.0216
     31 C           5.0338   -4.0100   19.6447 C.3     1  UNL1        0.0035
     32 C           3.8927   -3.1413   19.2054 C.3     1  UNL1        0.0216
     33 C           3.2908   -2.1538   20.1608 C.3     1  UNL1        0.0951
     34 C           0.8266    1.8105   23.5728 C.3     1  UNL1        0.4381
     35 F          -0.1945    2.9010   23.7076 F       1  UNL1       -0.1643
     36 F           1.7333    2.7508   22.8355 F       1  UNL1       -0.1643
     37 F          -0.0802    0.8703   24.3101 F       1  UNL1       -0.1643
@<TRIPOS>BOND
     1    20    21    1
     2    21    22    1
     3    21    19    1
     4    19    11    1
     5    11    12    2
     6    11    13   am
     7    13    14    1
     8    14    15    1
     9    15    16    1
    10    16     5    1
    11     5     6   ar
    12     6     7   ar
    13     7     8   ar
    14     8     1    1
    15     1     2   am
    16     2     3    2
    17     2    23    1
    18    23    24   ar
    19    24    25   ar
    20    25    28    1
    21    28    29    1
    22    29    30    1
    23    30    31    1
    24    31    32    1
    25    32    33    1
    26    25    26   ar
    27    26    27   ar
    28    27    34    1
    29    34    35    1
    30    34    36    1
    31    34    37    1
    32     8     9   ar
    33     9    10   ar
    34    16    17    1
    35    17    18    1
    36    18    13    1
    37    10     5   ar
    38    27    23   ar
    39    33    28    1
    40     1     4    1
@<TRIPOS>MOLECULE
*****
 37 40 0 0 0
SMALL
GASTEIGER

@<TRIPOS>ATOM
      1 N           2.8537   -0.8392   26.7618 N.am    1  UNL1       -0.2766
      2 C           3.0926    0.1931   25.7001 C.2     1  UNL1        0.2859
      3 O           3.4383    1.6006   26.0868 O.2     1  UNL1       -0.2664
      4 H           2.6268   -1.7630   26.5080 H       1  UNL1        0.1553
      5 C           3.1744    0.2861   31.1070 C.ar    1  UNL1        0.1319
      6 C           4.4160    0.1148   30.2830 C.ar    1  UNL1        0.0356
      7 C           4.3091   -0.2603   28.8346 C.ar    1  UNL1        0.0191
      8 C           2.9606   -0.4641   28.2102 C.ar    1  UNL1        0.0702
      9 C           1.7190   -0.2928   29.0342 C.ar    1  UNL1        0.1149
     10 N           1.8259    0.0823   30.4826 N.ar    1  UNL1       -0.2279
     11 C           3.6019    1.7866   36.9006 C.2     1  UNL1        0.4049
     12 O           4.5244    1.0259   37.8063 O.2     1  UNL1       -0.2262
     13 N           3.4950    1.4115   35.4522 N.am    1  UNL1       -0.2425
     14 C           2.5726    2.1722   34.5465 C.3     1  UNL1        0.1182
     15 C           2.4657    1.7971   33.0981 C.3     1  UNL1        0.1138
     16 N           3.2813    0.6612   32.5554 N.pl3   1  UNL1       -0.2897
     17 C           4.2038   -0.0995   33.4611 C.3     1  UNL1        0.1138
     18 C           4.3106    0.2756   34.9095 C.3     1  UNL1        0.1182
     19 O           2.7863    2.9225   37.4433 O.3     1  UNL1       -0.4383
     20 C           1.2597    2.2589   39.4382 C.3     1  UNL1        0.0474
     21 C           2.4624    2.9810   38.9068 C.3     1  UNL1        0.1707
     22 C           3.3409    3.7617   39.8388 C.3     1  UNL1        0.0474
     23 C           2.9857   -0.1821   24.2517 C.ar    1  UNL1        0.2233
     24 O           3.7808   -1.2466   23.5556 O.2     1  UNL1       -0.4191
     25 C           3.3515   -1.2810   22.1188 C.ar    1  UNL1        0.2925
     26 N           2.2910   -0.2377   21.9268 N.ar    1  UNL1       -0.1904
     27 C           2.0648    0.4415   23.2451 C.ar    1  UNL1        0.1959
     28 N           3.8883   -2.1976   21.0598 N.pl3   1  UNL1       -0.2636
     29 C           5.0054   -3.1449   21.3837 C.3     1  UNL1        0.0951
     30 C           5.5422   -4.0615   20.3247 C.3     1  UNL1        0.0216
     31 C           4.9619   -4.0309   18.9418 C.3     1  UNL1        0.0035
     32 C           3.8449   -3.0837   18.6179 C.3     1  UNL1        0.0216
     33 C           3.3081   -2.1670   19.6769 C.3     1  UNL1        0.0951
     34 C           1.0893    1.5496   23.5101 C.3     1  UNL1        0.4381
     35 F           0.1137    2.6578   23.7751 F       1  UNL1       -0.1643
     36 F           0.2812    0.6308   24.3775 F       1  UNL1       -0.1643
     37 F           1.8974    2.4686   22.6426 F       1  UNL1       -0.1643
@<TRIPOS>BOND
     1    20    21    1
     2    21    22    1
     3    21    19    1
     4    19    11    1
     5    11    12    2
     6    11    13   am
     7    13    14    1
     8    14    15    1
     9    15    16    1
    10    16     5    1
    11     5     6   ar
    12     6     7   ar
    13     7     8   ar
    14     8     1    1
    15     1     2   am
    16     2     3    2
    17     2    23    1
    18    23    24   ar
    19    24    25   ar
    20    25    28    1
    21    28    29    1
    22    29    30    1
    23    30    31    1
    24    31    32    1
    25    32    33    1
    26    25    26   ar
    27    26    27   ar
    28    27    34    1
    29    34    35    1
    30    34    36    1
    31    34    37    1
    32     8     9   ar
    33     9    10   ar
    34    16    17    1
    35    17    18    1
    36    18    13    1
    37    10     5   ar
    38    27    23   ar
    39    33    28    1
    40     1     4    1
@<TRIPOS>MOLECULE
*****
 37 40 0 0 0
SMALL
GASTEIGER

@<TRIPOS>ATOM
      1 N           3.7087    1.1675   29.7579 N.am    1  UNL1       -0.2766
      2 C           2.5900    0.8033   30.6883 C.2     1  UNL1        0.2859
      3 O           1.5696   -0.2144   30.2722 O.2     1  UNL1       -0.2664
      4 H           4.3784    1.8354   30.0310 H       1  UNL1        0.1553
      5 C           4.0039   -0.7931   25.7182 C.ar    1  UNL1        0.1319
      6 C           4.5106   -1.5061   26.9367 C.ar    1  UNL1        0.0356
      7 C           4.4122   -0.8526   28.2833 C.ar    1  UNL1        0.0191
      8 C           3.8071    0.5139   28.4113 C.ar    1  UNL1        0.0702
      9 C           3.3004    1.2269   27.1928 C.ar    1  UNL1        0.1149
     10 N           3.3988    0.5734   25.8462 N.ar    1  UNL1       -0.2279
     11 C           4.3974   -3.4072   20.3320 C.2     1  UNL1        0.4049
     12 O           5.2107   -4.6560   20.1620 O.2     1  UNL1       -0.2262
     13 N           4.2991   -2.7537   21.6785 N.am    1  UNL1       -0.2425
     14 C           3.4858   -1.5048   21.8485 C.3     1  UNL1        0.1182
     15 C           3.3874   -0.8513   23.1950 C.3     1  UNL1        0.1138
     16 N           4.1023   -1.4466   24.3716 N.pl3   1  UNL1       -0.2897
     17 C           4.9156   -2.6955   24.2017 C.3     1  UNL1        0.1138
     18 C           5.0139   -3.3490   22.8551 C.3     1  UNL1        0.1182
     19 O           3.6826   -2.8119   19.1553 O.3     1  UNL1       -0.4383
     20 C           3.6753   -0.8212   17.4858 C.3     1  UNL1        0.0474
     21 C           4.4160   -1.9043   18.2128 C.3     1  UNL1        0.1707
     22 C           5.8900   -2.0798   17.9972 C.3     1  UNL1        0.0474
     23 C           2.4916    1.4568   32.0349 C.ar    1  UNL1        0.2233
     24 O           3.1466    0.9789   33.2969 O.2     1  UNL1       -0.4191
     25 C           2.7808    1.9297   34.3978 C.ar    1  UNL1        0.2925
     26 N           1.8997    2.9953   33.8163 N.ar    1  UNL1       -0.1904
     27 C           1.7209    2.7031   32.3559 C.ar    1  UNL1        0.1959
     28 N           3.2190    1.8322   35.8290 N.pl3   1  UNL1       -0.2636
     29 C           2.5717    2.6941   36.8721 C.3     1  UNL1        0.0951
     30 C           3.0100    2.5964   38.3033 C.3     1  UNL1        0.0216
     31 C           4.0957    1.6369   38.6914 C.3     1  UNL1        0.0035
     32 C           4.7430    0.7750   37.6483 C.3     1  UNL1        0.0216
     33 C           4.3047    0.8726   36.2171 C.3     1  UNL1        0.0951
     34 C           0.9134    3.5145   31.3868 C.3     1  UNL1        0.4381
     35 F           0.1058    4.3261   30.4176 F       1  UNL1       -0.1643
     36 F          -0.1883    2.4989   31.4543 F       1  UNL1       -0.1643
     37 F           2.0151    4.5303   31.3192 F       1  UNL1       -0.1643
@<TRIPOS>BOND
     1    20    21    1
     2    21    22    1
     3    21    19    1
     4    19    11    1
     5    11    12    2
     6    11    13   am
     7    13    14    1
     8    14    15    1
     9    15    16    1
    10    16     5    1
    11     5     6   ar
    12     6     7   ar
    13     7     8   ar
    14     8     1    1
    15     1     2   am
    16     2     3    2
    17     2    23    1
    18    23    24   ar
    19    24    25   ar
    20    25    28    1
    21    28    29    1
    22    29    30    1
    23    30    31    1
    24    31    32    1
    25    32    33    1
    26    25    26   ar
    27    26    27   ar
    28    27    34    1
    29    34    35    1
    30    34    36    1
    31    34    37    1
    32     8     9   ar
    33     9    10   ar
    34    16    17    1
    35    17    18    1
    36    18    13    1
    37    10     5   ar
    38    27    23   ar
    39    33    28    1
    40     1     4    1
@<TRIPOS>MOLECULE
*****
 37 40 0 0 0
SMALL
GASTEIGER

@<TRIPOS>ATOM
      1 N           2.6835    2.4725   30.0642 N.am    1  UNL1       -0.2766
      2 C           1.5921    2.1486   31.0408 C.2     1  UNL1        0.2859
      3 O           0.3905    1.3708   30.5920 O.2     1  UNL1       -0.2664
      4 H           3.4721    2.9830   30.3588 H       1  UNL1        0.1553
      5 C           2.3531    1.1112   25.7878 C.ar    1  UNL1        0.1319
      6 C           3.0000    0.2238   26.8095 C.ar    1  UNL1        0.0356
      7 C           3.1101    0.6776   28.2350 C.ar    1  UNL1        0.0191
      8 C           2.5734    2.0188   28.6387 C.ar    1  UNL1        0.0702
      9 C           1.9265    2.9062   27.6170 C.ar    1  UNL1        0.1149
     10 N           1.8163    2.4524   26.1915 N.ar    1  UNL1       -0.2279
     11 C           1.9126   -0.7038   20.0859 C.2     1  UNL1        0.4049
     12 O           0.9553   -0.0222   19.1537 O.2     1  UNL1       -0.2262
     13 N           2.0227   -0.2500   21.5114 N.am    1  UNL1       -0.2425
     14 C           2.9800   -0.9316   22.4436 C.3     1  UNL1        0.1182
     15 C           3.0901   -0.4778   23.8690 C.3     1  UNL1        0.1138
     16 N           2.2430    0.6575   24.3623 N.pl3   1  UNL1       -0.2897
     17 C           1.2857    1.3390   23.4301 C.3     1  UNL1        0.1138
     18 C           1.1756    0.8853   22.0046 C.3     1  UNL1        0.1182
     19 O           2.7597   -1.8391   19.5926 O.3     1  UNL1       -0.4383
     20 C           5.3434   -1.8871   19.3231 C.3     1  UNL1        0.0474
     21 C           3.9859   -1.5598   18.7750 C.3     1  UNL1        0.1707
     22 C           3.8547   -0.9534   17.4094 C.3     1  UNL1        0.0474
     23 C           1.7022    2.6023   32.4663 C.ar    1  UNL1        0.2233
     24 O           2.4117    1.8760   33.5705 O.2     1  UNL1       -0.4191
     25 C           2.2702    2.6869   34.8245 C.ar    1  UNL1        0.2925
     26 N           1.4733    3.9143   34.4954 N.ar    1  UNL1       -0.1904
     27 C           1.1222    3.8621   33.0379 C.ar    1  UNL1        0.1959
     28 N           2.8276    2.3326   36.1712 N.pl3   1  UNL1       -0.2636
     29 C           3.9087    1.2992   36.2872 C.3     1  UNL1        0.0951
     30 C           4.4661    0.9450   37.6339 C.3     1  UNL1        0.0216
     31 C           3.9425    1.6240   38.8647 C.3     1  UNL1        0.0035
     32 C           2.8614    2.6573   38.7487 C.3     1  UNL1        0.0216
     33 C           2.3039    3.0116   37.4019 C.3     1  UNL1        0.0951
     34 C           0.3304    4.8892   32.2844 C.3     1  UNL1        0.4381
     35 F          -0.4616    5.9164   31.5309 F       1  UNL1       -0.1643
     36 F           1.5999    5.4526   31.7181 F       1  UNL1       -0.1643
     37 F          -0.9393    4.3259   32.8507 F       1  UNL1       -0.1643
@<TRIPOS>BOND
     1    20    21    1
     2    21    22    1
     3    21    19    1
     4    19    11    1
     5    11    12    2
     6    11    13   am
     7    13    14    1
     8    14    15    1
     9    15    16    1
    10    16     5    1
    11     5     6   ar
    12     6     7   ar
    13     7     8   ar
    14     8     1    1
    15     1     2   am
    16     2     3    2
    17     2    23    1
    18    23    24   ar
    19    24    25   ar
    20    25    28    1
    21    28    29    1
    22    29    30    1
    23    30    31    1
    24    31    32    1
    25    32    33    1
    26    25    26   ar
    27    26    27   ar
    28    27    34    1
    29    34    35    1
    30    34    36    1
    31    34    37    1
    32     8     9   ar
    33     9    10   ar
    34    16    17    1
    35    17    18    1
    36    18    13    1
    37    10     5   ar
    38    27    23   ar
    39    33    28    1
    40     1     4    1
@<TRIPOS>MOLECULE
*****
 37 40 0 0 0
SMALL
GASTEIGER

@<TRIPOS>ATOM
      1 N          -0.6628    1.8171   25.1124 N.am    1  UNL1       -0.2766
      2 C          -1.2658    3.1651   24.8492 C.2     1  UNL1        0.2859
      3 O          -1.1643    4.2470   25.8832 O.2     1  UNL1       -0.2664
      4 H          -0.7294    1.1070   24.4337 H       1  UNL1        0.1553
      5 C           1.4507    1.0187   29.0041 C.ar    1  UNL1        0.1319
      6 C          -0.0241    0.7716   28.8872 C.ar    1  UNL1        0.0356
      7 C          -0.7286    1.0378   27.5899 C.ar    1  UNL1        0.0191
      8 C           0.0417    1.5510   26.4096 C.ar    1  UNL1        0.0702
      9 C           1.5165    1.7981   26.5266 C.ar    1  UNL1        0.1149
     10 N           2.2210    1.5320   27.8238 N.ar    1  UNL1       -0.2279
     11 C           4.2687   -0.0458   34.1931 C.2     1  UNL1        0.4049
     12 O           4.8803   -1.3907   34.4523 O.2     1  UNL1       -0.2262
     13 N           3.5642    0.2203   32.8959 N.am    1  UNL1       -0.2425
     14 C           2.9526    1.5652   32.6367 C.3     1  UNL1        0.1182
     15 C           2.2481    1.8313   31.3394 C.3     1  UNL1        0.1138
     16 N           2.1552    0.7526   30.3014 N.pl3   1  UNL1       -0.2897
     17 C           2.7668   -0.5923   30.5606 C.3     1  UNL1        0.1138
     18 C           3.4713   -0.8584   31.8578 C.3     1  UNL1        0.1182
     19 O           4.3616    1.0330   35.2312 O.3     1  UNL1       -0.4383
     20 C           6.1432    0.2635   36.9586 C.3     1  UNL1        0.0474
     21 C           4.7396    0.6867   36.6409 C.3     1  UNL1        0.1707
     22 C           3.7141    0.7637   37.7328 C.3     1  UNL1        0.0474
     23 C          -1.9703    3.4312   23.5519 C.ar    1  UNL1        0.2233
     24 O          -1.3490    3.3931   22.1872 O.2     1  UNL1       -0.4191
     25 C          -2.4145    3.7205   21.1834 C.ar    1  UNL1        0.2925
     26 N          -3.6944    3.9610   21.9278 N.ar    1  UNL1       -0.1904
     27 C          -3.4199    3.7821   23.3916 C.ar    1  UNL1        0.1959
     28 N          -2.2322    3.7945   19.6964 N.pl3   1  UNL1       -0.2636
     29 C          -3.4188    4.0132   18.8053 C.3     1  UNL1        0.0951
     30 C          -3.2364    4.0872   17.3183 C.3     1  UNL1        0.0216
     31 C          -1.8675    3.9425   16.7224 C.3     1  UNL1        0.0035
     32 C          -0.6809    3.7239   17.6135 C.3     1  UNL1        0.0216
     33 C          -0.8632    3.6499   19.1006 C.3     1  UNL1        0.0951
     34 C          -4.4194    3.9285   24.5004 C.3     1  UNL1        0.4381
     35 F          -5.4189    4.0750   25.6093 F       1  UNL1       -0.1643
     36 F          -4.9509    2.5580   24.2024 F       1  UNL1       -0.1643
     37 F          -3.8879    5.2992   24.7986 F       1  UNL1       -0.1643
@<TRIPOS>BOND
     1    20    21    1
     2    21    22    1
     3    21    19    1
     4    19    11    1
     5    11    12    2
     6    11    13   am
     7    13    14    1
     8    14    15    1
     9    15    16    1
    10    16     5    1
    11     5     6   ar
    12     6     7   ar
    13     7     8   ar
    14     8     1    1
    15     1     2   am
    16     2     3    2
    17     2    23    1
    18    23    24   ar
    19    24    25   ar
    20    25    28    1
    21    28    29    1
    22    29    30    1
    23    30    31    1
    24    31    32    1
    25    32    33    1
    26    25    26   ar
    27    26    27   ar
    28    27    34    1
    29    34    35    1
    30    34    36    1
    31    34    37    1
    32     8     9   ar
    33     9    10   ar
    34    16    17    1
    35    17    18    1
    36    18    13    1
    37    10     5   ar
    38    27    23   ar
    39    33    28    1
    40     1     4    1
@<TRIPOS>MOLECULE
*****
 37 40 0 0 0
SMALL
GASTEIGER

@<TRIPOS>ATOM
      1 N          -0.1429    0.8715   20.8629 N.am    1  UNL1       -0.2766
      2 C          -0.0526    2.2976   20.4069 C.2     1  UNL1        0.2859
      3 O           1.2857    2.9069   20.1101 O.2     1  UNL1       -0.2664
      4 H          -1.0212    0.4716   21.0576 H       1  UNL1        0.1553
      5 C           3.6008   -1.5793   21.3407 C.ar    1  UNL1        0.1319
      6 C           3.1654   -0.6535   22.4376 C.ar    1  UNL1        0.0356
      7 C           1.9175    0.1635   22.2783 C.ar    1  UNL1        0.0191
      8 C           1.1050    0.0546   21.0222 C.ar    1  UNL1        0.0702
      9 C           1.5404   -0.8713   19.9253 C.ar    1  UNL1        0.1149
     10 N           2.7883   -1.6882   20.0846 N.ar    1  UNL1       -0.2279
     11 C           8.5924   -4.8471   21.9779 C.2     1  UNL1        0.4049
     12 O           9.2883   -5.3970   20.7682 O.2     1  UNL1       -0.2262
     13 N           7.3445   -4.0301   21.8186 N.am    1  UNL1       -0.2425
     14 C           6.6485   -3.4802   23.0282 C.3     1  UNL1        0.1182
     15 C           5.4006   -2.6633   22.8689 C.3     1  UNL1        0.1138
     16 N           4.8487   -2.3963   21.5000 N.pl3   1  UNL1       -0.2897
     17 C           5.5446   -2.9461   20.2904 C.3     1  UNL1        0.1138
     18 C           6.7925   -3.7631   20.4497 C.3     1  UNL1        0.1182
     19 O           9.1443   -5.1141   23.3468 O.3     1  UNL1       -0.4383
     20 C           9.5352   -7.6587   23.6970 C.3     1  UNL1        0.0474
     21 C           8.8106   -6.3945   24.0534 C.3     1  UNL1        0.1707
     22 C           7.7524   -6.4108   25.1163 C.3     1  UNL1        0.0474
     23 C          -1.3005    3.1145   20.2476 C.ar    1  UNL1        0.2233
     24 O          -2.4769    3.1179   21.1782 O.2     1  UNL1       -0.4191
     25 C          -3.4945    4.0770   20.6355 C.ar    1  UNL1        0.2925
     26 N          -2.9471    4.6664   19.3694 N.ar    1  UNL1       -0.1904
     27 C          -1.5911    4.0716   19.1296 C.ar    1  UNL1        0.1959
     28 N          -4.8258    4.3915   21.2508 N.pl3   1  UNL1       -0.2636
     29 C          -5.7823    5.3048   20.5429 C.3     1  UNL1        0.0951
     30 C          -7.1136    5.6193   21.1582 C.3     1  UNL1        0.0216
     31 C          -7.4885    5.0205   22.4815 C.3     1  UNL1        0.0035
     32 C          -6.5320    4.1073   23.1894 C.3     1  UNL1        0.0216
     33 C          -5.2007    3.7928   22.5740 C.3     1  UNL1        0.0951
     34 C          -0.6849    4.3796   17.9748 C.3     1  UNL1        0.4381
     35 F           0.2214    4.6876   16.8198 F       1  UNL1       -0.1643
     36 F          -0.0297    5.4638   18.7780 F       1  UNL1       -0.1643
     37 F          -1.3400    3.2954   17.1715 F       1  UNL1       -0.1643
@<TRIPOS>BOND
     1    20    21    1
     2    21    22    1
     3    21    19    1
     4    19    11    1
     5    11    12    2
     6    11    13   am
     7    13    14    1
     8    14    15    1
     9    15    16    1
    10    16     5    1
    11     5     6   ar
    12     6     7   ar
    13     7     8   ar
    14     8     1    1
    15     1     2   am
    16     2     3    2
    17     2    23    1
    18    23    24   ar
    19    24    25   ar
    20    25    28    1
    21    28    29    1
    22    29    30    1
    23    30    31    1
    24    31    32    1
    25    32    33    1
    26    25    26   ar
    27    26    27   ar
    28    27    34    1
    29    34    35    1
    30    34    36    1
    31    34    37    1
    32     8     9   ar
    33     9    10   ar
    34    16    17    1
    35    17    18    1
    36    18    13    1
    37    10     5   ar
    38    27    23   ar
    39    33    28    1
    40     1     4    1
