@<TRIPOS>MOLECULE
*****
 32 34 0 0 0
SMALL
GASTEIGER

@<TRIPOS>ATOM
      1 C         -10.0180  -18.3662   22.6528 C.3     1  UNL1        0.0378
      2 C         -10.7366  -19.0880   21.5517 C.3     1  UNL1        0.0075
      3 C          -9.9696  -19.6163   20.3758 C.3     1  UNL1        0.0219
      4 C          -8.4840  -19.4227   20.3011 C.3     1  UNL1        0.0950
      5 N          -7.7654  -18.7009   21.4022 N.am    1  UNL1       -0.2637
      6 C          -6.2798  -18.5073   21.3274 C.2     1  UNL1        0.3077
      7 O          -5.5613  -17.7854   22.4286 O.2     1  UNL1       -0.2522
      8 N          -5.5129  -19.0356   20.1516 N.am    1  UNL1       -0.2681
      9 C          -8.5324  -18.1726   22.5781 C.3     1  UNL1        0.0989
     10 H          -5.9845  -19.5094   19.4289 H       1  UNL1        0.1564
     11 C          -4.0273  -18.8420   20.0769 C.ar    1  UNL1        0.0516
     12 C          -3.1278  -19.5639   21.0361 C.ar    1  UNL1        0.0156
     13 C          -1.6423  -19.3703   20.9615 C.ar    1  UNL1        0.0127
     14 C          -1.0561  -18.4549   19.9277 C.ar    1  UNL1        0.0578
     15 CL          0.4295  -18.2614   19.8531 Cl      1  UNL1       -0.0822
     16 C          -1.9556  -17.7331   18.9686 C.ar    1  UNL1        0.0127
     17 C          -3.4412  -17.9267   19.0432 C.ar    1  UNL1        0.0156
     18 C         -11.4235  -18.3012   23.1727 C.ar    1  UNL1       -0.0212
     19 C         -12.5098  -17.7076   22.3256 C.ar    1  UNL1       -0.0042
     20 C         -13.9153  -17.6427   22.8455 C.ar    1  UNL1       -0.0003
     21 C         -14.2345  -18.1713   24.2125 C.ar    1  UNL1       -0.0000
     22 C         -13.1482  -18.7648   25.0596 C.ar    1  UNL1       -0.0003
     23 C         -11.7427  -18.8298   24.5397 C.ar    1  UNL1       -0.0042
     24 C          -9.7875  -17.6217   23.9345 C.3     1  UNL1        0.0153
     25 C          -9.5410  -16.1424   23.9087 C.3     1  UNL1        0.0857
     26 N          -7.3871  -15.5917   25.2531 N.am    1  UNL1       -0.2795
     27 C          -8.1375  -15.6149   23.9545 C.2     1  UNL1        0.2256
     28 O          -7.4845  -15.1108   22.7018 O.2     1  UNL1       -0.2749
     29 C          -4.9095  -15.8495   25.9916 C.3     1  UNL1        0.0233
     30 C          -5.9836  -15.0643   25.2989 C.3     1  UNL1        0.0935
     31 C          -8.0401  -16.0959   26.5059 C.3     1  UNL1        0.0935
     32 C          -8.3892  -15.1391   27.6070 C.3     1  UNL1        0.0233
@<TRIPOS>BOND
     1    29    30    1
     2    30    26    1
     3    26    31    1
     4    31    32    1
     5    26    27   am
     6    27    28    2
     7    27    25    1
     8    25    24    1
     9    24     1    1
    10     1    18    1
    11    18    19   ar
    12    19    20   ar
    13    20    21   ar
    14    21    22   ar
    15    22    23   ar
    16     1     2    1
    17     2     3    1
    18     3     4    1
    19     4     5    1
    20     5     6   am
    21     6     7    2
    22     6     8   am
    23     8    11    1
    24    11    12   ar
    25    12    13   ar
    26    13    14   ar
    27    14    15    1
    28    14    16   ar
    29    16    17   ar
    30     5     9    1
    31     9     1    1
    32    23    18   ar
    33    17    11   ar
    34     8    10    1
@<TRIPOS>MOLECULE
*****
 32 34 0 0 0
SMALL
GASTEIGER

@<TRIPOS>ATOM
      1 C         -10.1812  -18.4472   22.6204 C.3     1  UNL1        0.0378
      2 C         -10.9405  -18.8871   21.4040 C.3     1  UNL1        0.0075
      3 C         -10.2043  -19.2221   20.1408 C.3     1  UNL1        0.0219
      4 C          -8.7087  -19.1173   20.0941 C.3     1  UNL1        0.0950
      5 N          -7.9493  -18.6774   21.3105 N.am    1  UNL1       -0.2637
      6 C          -6.4537  -18.5726   21.2638 C.2     1  UNL1        0.3077
      7 O          -5.6944  -18.1327   22.4803 O.2     1  UNL1       -0.2522
      8 N          -5.7175  -18.9076   20.0006 N.am    1  UNL1       -0.2681
      9 C          -8.6855  -18.3424   22.5737 C.3     1  UNL1        0.0989
     10 H          -6.2159  -19.1963   19.2021 H       1  UNL1        0.1564
     11 C          -4.2219  -18.8027   19.9539 C.ar    1  UNL1        0.0516
     12 C          -3.5636  -17.9151   18.9395 C.ar    1  UNL1        0.0156
     13 C          -2.0681  -17.8102   18.8928 C.ar    1  UNL1        0.0127
     14 C          -1.2307  -18.5929   19.8605 C.ar    1  UNL1        0.0578
     15 CL          0.2649  -18.4879   19.8138 Cl      1  UNL1       -0.0822
     16 C          -1.8890  -19.4804   20.8749 C.ar    1  UNL1        0.0127
     17 C          -3.3846  -19.5853   20.9216 C.ar    1  UNL1        0.0156
     18 C         -11.5820  -18.3927   23.1540 C.ar    1  UNL1       -0.0212
     19 C         -11.8652  -18.8226   24.5629 C.ar    1  UNL1       -0.0042
     20 C         -13.2660  -18.7681   25.0964 C.ar    1  UNL1       -0.0003
     21 C         -14.3837  -18.2836   24.2211 C.ar    1  UNL1       -0.0000
     22 C         -14.1005  -17.8537   22.8122 C.ar    1  UNL1       -0.0003
     23 C         -12.6997  -17.9083   22.2787 C.ar    1  UNL1       -0.0042
     24 C          -9.9083  -17.9884   24.0223 C.3     1  UNL1        0.0153
     25 C          -9.1776  -16.7004   24.2610 C.3     1  UNL1        0.0857
     26 N          -7.1352  -15.7138   25.5280 N.am    1  UNL1       -0.2795
     27 C          -8.4152  -16.4958   25.5365 C.2     1  UNL1        0.2256
     28 O          -8.9329  -17.0733   26.8205 O.2     1  UNL1       -0.2749
     29 C          -6.8938  -14.5643   27.8454 C.3     1  UNL1        0.0233
     30 C          -6.3728  -15.5093   26.8036 C.3     1  UNL1        0.0935
     31 C          -6.6176  -15.1364   24.2441 C.3     1  UNL1        0.0935
     32 C          -5.1571  -15.2293   23.9149 C.3     1  UNL1        0.0233
@<TRIPOS>BOND
     1    29    30    1
     2    30    26    1
     3    26    31    1
     4    31    32    1
     5    26    27   am
     6    27    28    2
     7    27    25    1
     8    25    24    1
     9    24     1    1
    10     1    18    1
    11    18    19   ar
    12    19    20   ar
    13    20    21   ar
    14    21    22   ar
    15    22    23   ar
    16     1     2    1
    17     2     3    1
    18     3     4    1
    19     4     5    1
    20     5     6   am
    21     6     7    2
    22     6     8   am
    23     8    11    1
    24    11    12   ar
    25    12    13   ar
    26    13    14   ar
    27    14    15    1
    28    14    16   ar
    29    16    17   ar
    30     5     9    1
    31     9     1    1
    32    23    18   ar
    33    17    11   ar
    34     8    10    1
@<TRIPOS>MOLECULE
*****
 32 34 0 0 0
SMALL
GASTEIGER

@<TRIPOS>ATOM
      1 C          -9.4683  -17.7202   23.1728 C.3     1  UNL1        0.0378
      2 C          -9.5308  -16.8208   24.3716 C.3     1  UNL1        0.0075
      3 C          -8.2814  -16.1707   24.8875 C.3     1  UNL1        0.0219
      4 C          -6.9693  -16.4200   24.2046 C.3     1  UNL1        0.0950
      5 N          -6.9067  -17.3194   23.0058 N.am    1  UNL1       -0.2637
      6 C          -5.5947  -17.5686   22.3228 C.2     1  UNL1        0.3077
      7 O          -5.5322  -18.4680   21.1239 O.2     1  UNL1       -0.2522
      8 N          -4.3452  -16.9185   22.8387 N.am    1  UNL1       -0.2681
      9 C          -8.1562  -17.9694   22.4898 C.3     1  UNL1        0.0989
     10 H          -4.3862  -16.3283   23.6256 H       1  UNL1        0.1564
     11 C          -3.0332  -17.1678   22.1557 C.ar    1  UNL1        0.0516
     12 C          -2.5420  -18.5723   21.9649 C.ar    1  UNL1        0.0156
     13 C          -1.2301  -18.8217   21.2820 C.ar    1  UNL1        0.0127
     14 C          -0.4092  -17.6667   20.7897 C.ar    1  UNL1        0.0578
     15 CL          0.9028  -17.9161   20.1067 Cl      1  UNL1       -0.0822
     16 C          -0.9004  -16.2623   20.9805 C.ar    1  UNL1        0.0127
     17 C          -2.2124  -16.0129   21.6635 C.ar    1  UNL1        0.0156
     18 C         -10.9356  -17.7919   23.4759 C.ar    1  UNL1       -0.0212
     19 C         -11.9042  -16.9516   22.6977 C.ar    1  UNL1       -0.0042
     20 C         -13.3715  -17.0234   23.0008 C.ar    1  UNL1       -0.0003
     21 C         -13.8701  -17.9355   24.0822 C.ar    1  UNL1       -0.0000
     22 C         -12.9016  -18.7757   24.8605 C.ar    1  UNL1       -0.0003
     23 C         -11.4343  -18.7040   24.5574 C.ar    1  UNL1       -0.0042
     24 C          -9.9153  -18.6445   22.0792 C.3     1  UNL1        0.0153
     25 C          -9.2830  -18.5612   20.7216 C.3     1  UNL1        0.0857
     26 N          -8.5118  -20.4718   19.1389 N.am    1  UNL1       -0.2795
     27 C          -9.6007  -19.5943   19.6815 C.2     1  UNL1        0.2256
     28 O         -11.0073  -19.7500   19.1842 O.2     1  UNL1       -0.2749
     29 C          -9.1401  -21.0834   16.6933 C.3     1  UNL1        0.0233
     30 C          -8.8295  -21.5050   18.0989 C.3     1  UNL1        0.0935
     31 C          -7.1053  -20.3161   19.6363 C.3     1  UNL1        0.0935
     32 C          -6.3448  -21.5141   20.1226 C.3     1  UNL1        0.0233
@<TRIPOS>BOND
     1    29    30    1
     2    30    26    1
     3    26    31    1
     4    31    32    1
     5    26    27   am
     6    27    28    2
     7    27    25    1
     8    25    24    1
     9    24     1    1
    10     1    18    1
    11    18    19   ar
    12    19    20   ar
    13    20    21   ar
    14    21    22   ar
    15    22    23   ar
    16     1     2    1
    17     2     3    1
    18     3     4    1
    19     4     5    1
    20     5     6   am
    21     6     7    2
    22     6     8   am
    23     8    11    1
    24    11    12   ar
    25    12    13   ar
    26    13    14   ar
    27    14    15    1
    28    14    16   ar
    29    16    17   ar
    30     5     9    1
    31     9     1    1
    32    23    18   ar
    33    17    11   ar
    34     8    10    1
@<TRIPOS>MOLECULE
*****
 32 34 0 0 0
SMALL
GASTEIGER

@<TRIPOS>ATOM
      1 C         -12.5374   -4.3789   18.3752 C.3     1  UNL1        0.0378
      2 C         -11.1770   -3.7472   18.3869 C.3     1  UNL1        0.0075
      3 C         -11.0415   -2.2609   18.5371 C.3     1  UNL1        0.0219
      4 C         -12.2664   -1.4063   18.6756 C.3     1  UNL1        0.0950
      5 N         -13.6268   -2.0380   18.6640 N.am    1  UNL1       -0.2637
      6 C         -14.8518   -1.1834   18.8025 C.2     1  UNL1        0.3077
      7 O         -16.2122   -1.8152   18.7908 O.2     1  UNL1       -0.2522
      8 N         -14.7163    0.3029   18.9527 N.am    1  UNL1       -0.2681
      9 C         -13.7624   -3.5243   18.5137 C.3     1  UNL1        0.0989
     10 H         -13.8234    0.7175   18.9604 H       1  UNL1        0.1564
     11 C         -15.9413    1.1574   19.0913 C.ar    1  UNL1        0.0516
     12 C         -16.4330    1.9585   17.9222 C.ar    1  UNL1        0.0156
     13 C         -17.6579    2.8130   18.0607 C.ar    1  UNL1        0.0127
     14 C         -18.3913    2.8664   19.3682 C.ar    1  UNL1        0.0578
     15 CL        -19.6163    3.7210   19.5067 Cl      1  UNL1       -0.0822
     16 C         -17.8996    2.0654   20.5372 C.ar    1  UNL1        0.0127
     17 C         -16.6746    1.2108   20.3987 C.ar    1  UNL1        0.0156
     18 C         -11.6817   -5.6002   18.2130 C.ar    1  UNL1       -0.0212
     19 C         -10.5128   -5.8237   19.1260 C.ar    1  UNL1       -0.0042
     20 C          -9.6572   -7.0449   18.9638 C.ar    1  UNL1       -0.0003
     21 C          -9.9705   -8.0428   17.8886 C.ar    1  UNL1       -0.0000
     22 C         -11.1394   -7.8193   16.9755 C.ar    1  UNL1       -0.0003
     23 C         -11.9950   -6.5981   17.1377 C.ar    1  UNL1       -0.0042
     24 C         -13.6007   -5.4348   18.3072 C.3     1  UNL1        0.0153
     25 C         -14.3591   -5.8161   19.5438 C.3     1  UNL1        0.0857
     26 N         -16.2911   -7.5142   19.1779 N.am    1  UNL1       -0.2795
     27 C         -15.8265   -6.1164   19.4610 C.2     1  UNL1        0.2256
     28 O         -16.8290   -5.0187   19.6614 O.2     1  UNL1       -0.2749
     29 C         -18.5061   -8.2458   20.3218 C.3     1  UNL1        0.0233
     30 C         -17.7585   -7.8144   19.0951 C.3     1  UNL1        0.0935
     31 C         -15.2886   -8.6118   18.9775 C.3     1  UNL1        0.0935
     32 C         -14.9059   -9.0339   17.5900 C.3     1  UNL1        0.0233
@<TRIPOS>BOND
     1    29    30    1
     2    30    26    1
     3    26    31    1
     4    31    32    1
     5    26    27   am
     6    27    28    2
     7    27    25    1
     8    25    24    1
     9    24     1    1
    10     1    18    1
    11    18    19   ar
    12    19    20   ar
    13    20    21   ar
    14    21    22   ar
    15    22    23   ar
    16     1     2    1
    17     2     3    1
    18     3     4    1
    19     4     5    1
    20     5     6   am
    21     6     7    2
    22     6     8   am
    23     8    11    1
    24    11    12   ar
    25    12    13   ar
    26    13    14   ar
    27    14    15    1
    28    14    16   ar
    29    16    17   ar
    30     5     9    1
    31     9     1    1
    32    23    18   ar
    33    17    11   ar
    34     8    10    1
