@<TRIPOS>MOLECULE
*****
 42 46 0 0 0
SMALL
GASTEIGER

@<TRIPOS>ATOM
      1 C           5.7243    0.1796   36.0103 C.ar    1  UNL1        0.0702
      2 C           7.1463    0.2598   35.5400 C.ar    1  UNL1        0.0191
      3 C           7.5673   -0.4668   34.2972 C.ar    1  UNL1        0.0356
      4 C           6.5663   -1.2737   33.5246 C.ar    1  UNL1        0.1319
      5 N           5.1442   -1.3540   33.9949 N.ar    1  UNL1       -0.2279
      6 C           4.7232   -0.6273   35.2378 C.ar    1  UNL1        0.1149
      7 N           6.9874   -2.0004   32.2817 N.pl3   1  UNL1       -0.2897
      8 C           6.2205   -3.2042   31.8206 C.3     1  UNL1        0.1137
      9 C           6.6416   -3.9309   30.5777 C.3     1  UNL1        0.1164
     10 N           7.8296   -3.4536   29.7960 N.am    1  UNL1       -0.2605
     11 C           8.2507   -4.1802   28.5531 C.2     1  UNL1        0.3078
     12 O           9.4386   -3.7029   27.7714 O.2     1  UNL1       -0.2522
     13 N           7.4838   -5.3840   28.0920 N.am    1  UNL1       -0.2674
     14 C           8.5964   -2.2497   30.2572 C.3     1  UNL1        0.1164
     15 C           8.1753   -1.5231   31.5000 C.3     1  UNL1        0.1137
     16 H           6.7042   -5.6973   28.6051 H       1  UNL1        0.1564
     17 C           7.9049   -6.1107   26.8491 C.ar    1  UNL1        0.0622
     18 C           8.7537   -7.3431   26.9520 C.ar    1  UNL1        0.0156
     19 C           9.1747   -8.0697   25.7092 C.ar    1  UNL1        0.0013
     20 C           8.7470   -7.5639   24.3634 C.ar    1  UNL1        0.0009
     21 C           7.8982   -6.3314   24.2604 C.ar    1  UNL1        0.0126
     22 C           7.4772   -5.6048   25.5033 C.ar    1  UNL1        0.0711
     23 CL          6.6284   -4.3723   25.4004 Cl      1  UNL1       -0.0810
     24 O           4.1946    2.7516   35.7988 O.2     1  UNL1       -0.2664
     25 C           4.5384    2.1922   37.1474 C.2     1  UNL1        0.2859
     26 N           5.3032    0.9062   37.2532 N.am    1  UNL1       -0.2766
     27 H           5.5288    0.5391   38.1384 H       1  UNL1        0.1553
     28 C           4.1173    2.9189   38.3903 C.ar    1  UNL1        0.2233
     29 O           4.8718    4.0281   39.0614 O.2     1  UNL1       -0.4191
     30 C           4.0886    4.4586   40.2662 C.ar    1  UNL1        0.2925
     31 N           2.8501    3.6155   40.3395 N.ar    1  UNL1       -0.1904
     32 C           2.8679    2.6639   39.1802 C.ar    1  UNL1        0.1959
     33 N           4.4759    5.5421   41.2286 N.pl3   1  UNL1       -0.2636
     34 C           3.5416    5.9311   42.3357 C.3     1  UNL1        0.0951
     35 C           3.9289    7.0145   43.2980 C.3     1  UNL1        0.0216
     36 C           5.2506    7.7089   43.1533 C.3     1  UNL1        0.0035
     37 C           6.1849    7.3199   42.0462 C.3     1  UNL1        0.0216
     38 C           5.7976    6.2365   41.0838 C.3     1  UNL1        0.0951
     39 C           1.8202    1.6375   38.8659 C.3     1  UNL1        0.4381
     40 F           0.7724    0.6112   38.5515 F       1  UNL1       -0.1643
     41 F           0.8830    2.7264   38.4342 F       1  UNL1       -0.1643
     42 F           2.7572    0.5487   39.2975 F       1  UNL1       -0.1643
@<TRIPOS>BOND
     1    24    25    2
     2    25    26   am
     3    26     1    1
     4     1     2   ar
     5     2     3   ar
     6     3     4   ar
     7     4     7    1
     8     7     8    1
     9     8     9    1
    10     9    10    1
    11    10    11   am
    12    11    12    2
    13    11    13   am
    14    13    17    1
    15    17    18   ar
    16    18    19   ar
    17    19    20   ar
    18    20    21   ar
    19    21    22   ar
    20    22    23    1
    21    10    14    1
    22    14    15    1
    23     4     5   ar
    24     5     6   ar
    25    25    28    1
    26    28    29   ar
    27    29    30   ar
    28    30    33    1
    29    33    34    1
    30    34    35    1
    31    35    36    1
    32    36    37    1
    33    37    38    1
    34    30    31   ar
    35    31    32   ar
    36    32    39    1
    37    39    40    1
    38    39    41    1
    39    39    42    1
    40     6     1   ar
    41    32    28   ar
    42    15     7    1
    43    38    33    1
    44    22    17   ar
    45    26    27    1
    46    13    16    1
@<TRIPOS>MOLECULE
*****
 42 46 0 0 0
SMALL
GASTEIGER

@<TRIPOS>ATOM
      1 C           2.6086    1.9168   29.7775 C.ar    1  UNL1        0.0702
      2 C           1.2127    2.4335   29.5918 C.ar    1  UNL1        0.0191
      3 C           0.6317    2.5455   28.2135 C.ar    1  UNL1        0.0356
      4 C           1.4465    2.1409   27.0208 C.ar    1  UNL1        0.1319
      5 N           2.8424    1.6242   27.2065 N.ar    1  UNL1       -0.2279
      6 C           3.4234    1.5121   28.5848 C.ar    1  UNL1        0.1149
      7 N           0.8654    2.2530   25.6425 N.pl3   1  UNL1       -0.2897
      8 C          -0.0677    3.3797   25.3113 C.3     1  UNL1        0.1137
      9 C          -0.6489    3.4918   23.9329 C.3     1  UNL1        0.1164
     10 N          -0.2968    2.4771   22.8858 N.am    1  UNL1       -0.2605
     11 C          -0.8779    2.5891   21.5075 C.2     1  UNL1        0.3078
     12 O          -0.5258    1.5744   20.4604 O.2     1  UNL1       -0.2522
     13 N          -1.8110    3.7158   21.1763 N.am    1  UNL1       -0.2674
     14 C           0.6364    1.3503   23.2171 C.3     1  UNL1        0.1164
     15 C           1.2174    1.2383   24.5954 C.3     1  UNL1        0.1137
     16 H          -2.0421    4.3818   21.8636 H       1  UNL1        0.1564
     17 C          -2.3921    3.8279   19.7980 C.ar    1  UNL1        0.0622
     18 C          -1.5073    4.1719   18.6367 C.ar    1  UNL1        0.0156
     19 C          -2.0884    4.2840   17.2584 C.ar    1  UNL1        0.0013
     20 C          -3.5544    4.0520   17.0414 C.ar    1  UNL1        0.0009
     21 C          -4.4392    3.7080   18.2027 C.ar    1  UNL1        0.0126
     22 C          -3.8581    3.5959   19.5810 C.ar    1  UNL1        0.0711
     23 CL         -4.7430    3.2519   20.7424 Cl      1  UNL1       -0.0810
     24 O           2.4252   -0.6754   31.2765 O.2     1  UNL1       -0.2664
     25 C           3.0980    0.5087   31.9053 C.2     1  UNL1        0.2859
     26 N           3.1897    1.8047   31.1558 N.am    1  UNL1       -0.2766
     27 H           3.6313    2.5818   31.5685 H       1  UNL1        0.1553
     28 C           3.6791    0.3966   33.2837 C.ar    1  UNL1        0.2233
     29 O           3.5257    1.3987   34.3893 O.2     1  UNL1       -0.4191
     30 C           4.2675    0.8842   35.5873 C.ar    1  UNL1        0.2925
     31 N           4.8792   -0.4358   35.2221 N.ar    1  UNL1       -0.1904
     32 C           4.5156   -0.7372   33.7984 C.ar    1  UNL1        0.1959
     33 N           4.3780    1.5694   36.9171 N.pl3   1  UNL1       -0.2636
     34 C           5.7196    1.7308   37.5684 C.3     1  UNL1        0.0951
     35 C           5.8301    2.4160   38.8982 C.3     1  UNL1        0.0216
     36 C           4.5991    2.9399   39.5765 C.3     1  UNL1        0.0035
     37 C           3.2576    2.7785   38.9252 C.3     1  UNL1        0.0216
     38 C           3.1470    2.0933   37.5954 C.3     1  UNL1        0.0951
     39 C           4.9177   -1.9579   33.0251 C.3     1  UNL1        0.4381
     40 F           5.3199   -3.1787   32.2519 F       1  UNL1       -0.1643
     41 F           3.9400   -2.7789   33.8126 F       1  UNL1       -0.1643
     42 F           5.8955   -1.1370   32.2376 F       1  UNL1       -0.1643
@<TRIPOS>BOND
     1    24    25    2
     2    25    26   am
     3    26     1    1
     4     1     2   ar
     5     2     3   ar
     6     3     4   ar
     7     4     7    1
     8     7     8    1
     9     8     9    1
    10     9    10    1
    11    10    11   am
    12    11    12    2
    13    11    13   am
    14    13    17    1
    15    17    18   ar
    16    18    19   ar
    17    19    20   ar
    18    20    21   ar
    19    21    22   ar
    20    22    23    1
    21    10    14    1
    22    14    15    1
    23     4     5   ar
    24     5     6   ar
    25    25    28    1
    26    28    29   ar
    27    29    30   ar
    28    30    33    1
    29    33    34    1
    30    34    35    1
    31    35    36    1
    32    36    37    1
    33    37    38    1
    34    30    31   ar
    35    31    32   ar
    36    32    39    1
    37    39    40    1
    38    39    41    1
    39    39    42    1
    40     6     1   ar
    41    32    28   ar
    42    15     7    1
    43    38    33    1
    44    22    17   ar
    45    26    27    1
    46    13    16    1
@<TRIPOS>MOLECULE
*****
 42 46 0 0 0
SMALL
GASTEIGER

@<TRIPOS>ATOM
      1 C          -0.8368    2.3512   27.2296 C.ar    1  UNL1        0.0702
      2 C          -0.9241    0.9643   27.7944 C.ar    1  UNL1        0.0191
      3 C           0.0964    0.4935   28.7877 C.ar    1  UNL1        0.0356
      4 C           1.2042    1.4095   29.2164 C.ar    1  UNL1        0.1319
      5 N           1.2915    2.7963   28.6516 N.ar    1  UNL1       -0.2279
      6 C           0.2710    3.2672   27.6582 C.ar    1  UNL1        0.1149
      7 N           2.2247    0.9386   30.2098 N.pl3   1  UNL1       -0.2897
      8 C           3.0438    1.9362   30.9738 C.3     1  UNL1        0.1137
      9 C           4.0643    1.4653   31.9672 C.3     1  UNL1        0.1164
     10 N           4.2657   -0.0033   32.1966 N.am    1  UNL1       -0.2605
     11 C           5.2861   -0.4742   33.1900 C.2     1  UNL1        0.3078
     12 O           5.4874   -1.9428   33.4195 O.2     1  UNL1       -0.2522
     13 N           6.1052    0.5234   33.9540 N.am    1  UNL1       -0.2674
     14 C           3.4465   -1.0010   31.4326 C.3     1  UNL1        0.1164
     15 C           2.4260   -0.5300   30.4393 C.3     1  UNL1        0.1137
     16 H           5.9731    1.4873   33.8034 H       1  UNL1        0.1564
     17 C           7.1257    0.0525   34.9474 C.ar    1  UNL1        0.0622
     18 C           8.5132   -0.2903   34.4921 C.ar    1  UNL1        0.0156
     19 C           9.5336   -0.7611   35.4855 C.ar    1  UNL1        0.0013
     20 C           9.1666   -0.8892   36.9343 C.ar    1  UNL1        0.0009
     21 C           7.7791   -0.5465   37.3896 C.ar    1  UNL1        0.0126
     22 C           6.7587   -0.0756   36.3962 C.ar    1  UNL1        0.0711
     23 CL          5.3711    0.2672   36.8515 Cl      1  UNL1       -0.0810
     24 O          -0.1414    2.4867   24.3144 O.2     1  UNL1       -0.2664
     25 C          -1.5096    2.8898   24.7786 C.2     1  UNL1        0.2859
     26 N          -1.8573    2.8221   26.2361 N.am    1  UNL1       -0.2766
     27 H          -2.7553    3.0867   26.5408 H       1  UNL1        0.1553
     28 C          -2.5301    3.3607   23.7852 C.ar    1  UNL1        0.2233
     29 O          -2.4855    3.1377   22.3025 O.2     1  UNL1       -0.4191
     30 C          -3.7022    3.7765   21.7009 C.ar    1  UNL1        0.2925
     31 N          -4.4987    4.3942   22.8119 N.ar    1  UNL1       -0.1904
     32 C          -3.7742    4.1373   24.1000 C.ar    1  UNL1        0.1959
     33 N          -4.0597    3.7943   20.2443 N.pl3   1  UNL1       -0.2636
     34 C          -3.0107    4.1061   19.2184 C.3     1  UNL1        0.0951
     35 C          -3.3681    4.1240   17.7617 C.3     1  UNL1        0.0216
     36 C          -4.7746    3.8301   17.3310 C.3     1  UNL1        0.0035
     37 C          -5.8235    3.5183   18.3569 C.3     1  UNL1        0.0216
     38 C          -5.4661    3.5004   19.8135 C.3     1  UNL1        0.0951
     39 C          -4.2163    4.5792   25.4635 C.3     1  UNL1        0.4381
     40 F          -4.6583    5.0213   26.8270 F       1  UNL1       -0.1643
     41 F          -3.2917    5.7576   25.3813 F       1  UNL1       -0.1643
     42 F          -5.1408    3.4009   25.5458 F       1  UNL1       -0.1643
@<TRIPOS>BOND
     1    24    25    2
     2    25    26   am
     3    26     1    1
     4     1     2   ar
     5     2     3   ar
     6     3     4   ar
     7     4     7    1
     8     7     8    1
     9     8     9    1
    10     9    10    1
    11    10    11   am
    12    11    12    2
    13    11    13   am
    14    13    17    1
    15    17    18   ar
    16    18    19   ar
    17    19    20   ar
    18    20    21   ar
    19    21    22   ar
    20    22    23    1
    21    10    14    1
    22    14    15    1
    23     4     5   ar
    24     5     6   ar
    25    25    28    1
    26    28    29   ar
    27    29    30   ar
    28    30    33    1
    29    33    34    1
    30    34    35    1
    31    35    36    1
    32    36    37    1
    33    37    38    1
    34    30    31   ar
    35    31    32   ar
    36    32    39    1
    37    39    40    1
    38    39    41    1
    39    39    42    1
    40     6     1   ar
    41    32    28   ar
    42    15     7    1
    43    38    33    1
    44    22    17   ar
    45    26    27    1
    46    13    16    1
@<TRIPOS>MOLECULE
*****
 42 46 0 0 0
SMALL
GASTEIGER

@<TRIPOS>ATOM
      1 C           6.6382   -2.1302   30.7798 C.ar    1  UNL1        0.0702
      2 C           5.7590   -2.7659   31.8155 C.ar    1  UNL1        0.0191
      3 C           5.4861   -2.0537   33.1071 C.ar    1  UNL1        0.0356
      4 C           6.0925   -0.7058   33.3629 C.ar    1  UNL1        0.1319
      5 N           6.9717   -0.0701   32.3272 N.ar    1  UNL1       -0.2279
      6 C           7.2446   -0.7823   31.0356 C.ar    1  UNL1        0.1149
      7 N           5.8195    0.0065   34.6546 N.pl3   1  UNL1       -0.2897
      8 C           6.6109    1.2272   35.0197 C.3     1  UNL1        0.1137
      9 C           6.3380    1.9395   36.3113 C.3     1  UNL1        0.1164
     10 N           5.2736    1.4309   37.2379 N.am    1  UNL1       -0.2605
     11 C           5.0007    2.1430   38.5295 C.2     1  UNL1        0.3078
     12 O           3.9363    1.6344   39.4560 O.2     1  UNL1       -0.2522
     13 N           5.7921    3.3638   38.8945 N.am    1  UNL1       -0.2674
     14 C           4.4822    0.2100   36.8727 C.3     1  UNL1        0.1164
     15 C           4.7552   -0.5022   35.5811 C.3     1  UNL1        0.1137
     16 H           6.4907    3.6976   38.2864 H       1  UNL1        0.1564
     17 C           5.5192    4.0760   40.1862 C.ar    1  UNL1        0.0622
     18 C           6.2218    3.6494   41.4409 C.ar    1  UNL1        0.0156
     19 C           5.9488    4.3616   42.7325 C.ar    1  UNL1        0.0013
     20 C           4.9733    5.5005   42.7693 C.ar    1  UNL1        0.0009
     21 C           4.2707    5.9271   41.5146 C.ar    1  UNL1        0.0126
     22 C           4.5436    5.2149   40.2231 C.ar    1  UNL1        0.0711
     23 CL          3.8410    5.6415   38.9683 Cl      1  UNL1       -0.0810
     24 O           4.8410   -1.6943   28.4176 O.2     1  UNL1       -0.2664
     25 C           6.0125   -2.6245   28.3071 C.2     1  UNL1        0.2859
     26 N           6.9112   -2.8425   29.4881 N.am    1  UNL1       -0.2766
     27 H           7.6801   -3.4530   29.4156 H       1  UNL1        0.1553
     28 C           6.2855   -3.3367   27.0154 C.ar    1  UNL1        0.2233
     29 O           6.0182   -2.8014   25.6399 O.2     1  UNL1       -0.4191
     30 C           6.4411   -3.8431   24.6468 C.ar    1  UNL1        0.2925
     31 N           6.9698   -5.0222   25.4087 N.ar    1  UNL1       -0.1904
     32 C           6.8736   -4.7092   26.8725 C.ar    1  UNL1        0.1959
     33 N           6.3512   -3.7262   23.1541 N.pl3   1  UNL1       -0.2636
     34 C           5.0144   -3.5607   22.4940 C.3     1  UNL1        0.0951
     35 C           4.9245   -3.4439   21.0012 C.3     1  UNL1        0.0216
     36 C           6.1713   -3.4925   20.1687 C.3     1  UNL1        0.0035
     37 C           7.5080   -3.6580   20.8289 C.3     1  UNL1        0.0216
     38 C           7.5980   -3.7749   22.3216 C.3     1  UNL1        0.0951
     39 C           7.2920   -5.6104   27.9962 C.3     1  UNL1        0.4381
     40 F           7.7105   -6.5116   29.1199 F       1  UNL1       -0.1643
     41 F           8.7281   -5.4406   27.5977 F       1  UNL1       -0.1643
     42 F           5.8559   -5.7803   28.3948 F       1  UNL1       -0.1643
@<TRIPOS>BOND
     1    24    25    2
     2    25    26   am
     3    26     1    1
     4     1     2   ar
     5     2     3   ar
     6     3     4   ar
     7     4     7    1
     8     7     8    1
     9     8     9    1
    10     9    10    1
    11    10    11   am
    12    11    12    2
    13    11    13   am
    14    13    17    1
    15    17    18   ar
    16    18    19   ar
    17    19    20   ar
    18    20    21   ar
    19    21    22   ar
    20    22    23    1
    21    10    14    1
    22    14    15    1
    23     4     5   ar
    24     5     6   ar
    25    25    28    1
    26    28    29   ar
    27    29    30   ar
    28    30    33    1
    29    33    34    1
    30    34    35    1
    31    35    36    1
    32    36    37    1
    33    37    38    1
    34    30    31   ar
    35    31    32   ar
    36    32    39    1
    37    39    40    1
    38    39    41    1
    39    39    42    1
    40     6     1   ar
    41    32    28   ar
    42    15     7    1
    43    38    33    1
    44    22    17   ar
    45    26    27    1
    46    13    16    1
@<TRIPOS>MOLECULE
*****
 42 46 0 0 0
SMALL
GASTEIGER

@<TRIPOS>ATOM
      1 C          -1.4686    3.4110   25.4681 C.ar    1  UNL1        0.0702
      2 C          -0.9060    2.0210   25.4324 C.ar    1  UNL1        0.0191
      3 C          -0.0888    1.5130   26.5831 C.ar    1  UNL1        0.0356
      4 C           0.1656    2.3950   27.7695 C.ar    1  UNL1        0.1319
      5 N          -0.3970    3.7849   27.8051 N.ar    1  UNL1       -0.2279
      6 C          -1.2142    4.2930   26.6544 C.ar    1  UNL1        0.1149
      7 N           0.9828    1.8868   28.9202 N.pl3   1  UNL1       -0.2897
      8 C           1.6547    2.8550   29.8482 C.3     1  UNL1        0.1137
      9 C           2.4719    2.3469   30.9989 C.3     1  UNL1        0.1164
     10 N           2.6171    0.8706   31.2216 N.am    1  UNL1       -0.2605
     11 C           3.4343    0.3625   32.3722 C.2     1  UNL1        0.3078
     12 O           3.5795   -1.1138   32.5949 O.2     1  UNL1       -0.2522
     13 N           4.1062    1.3306   33.3002 N.am    1  UNL1       -0.2674
     14 C           1.9452   -0.0975   30.2935 C.3     1  UNL1        0.1164
     15 C           1.1281    0.4106   29.1428 C.3     1  UNL1        0.1137
     16 H           4.0108    2.2995   33.1541 H       1  UNL1        0.1564
     17 C           4.9234    0.8225   34.4510 C.ar    1  UNL1        0.0622
     18 C           4.3019    0.6847   35.8092 C.ar    1  UNL1        0.0156
     19 C           5.1190    0.1766   36.9598 C.ar    1  UNL1        0.0013
     20 C           6.5577   -0.1937   36.7522 C.ar    1  UNL1        0.0009
     21 C           7.1792   -0.0559   35.3941 C.ar    1  UNL1        0.0126
     22 C           6.3620    0.4522   34.2434 C.ar    1  UNL1        0.0711
     23 CL          6.9835    0.5900   32.8852 Cl      1  UNL1       -0.0810
     24 O          -4.4631    3.2631   25.5739 O.2     1  UNL1       -0.2664
     25 C          -3.7830    3.8452   24.3703 C.2     1  UNL1        0.2859
     26 N          -2.2858    3.9191   24.3173 N.am    1  UNL1       -0.2766
     27 H          -1.8395    4.3012   23.5274 H       1  UNL1        0.1553
     28 C          -4.6002    4.3533   23.2195 C.ar    1  UNL1        0.2233
     29 O          -4.2542    4.2205   21.7660 O.2     1  UNL1       -0.4191
     30 C          -5.3470    4.8685   20.9684 C.ar    1  UNL1        0.2925
     31 N          -6.3683    5.4017   21.9291 N.ar    1  UNL1       -0.1904
     32 C          -5.9067    5.0833   23.3203 C.ar    1  UNL1        0.1959
     33 N          -5.4078    4.9661   19.4728 N.pl3   1  UNL1       -0.2636
     34 C          -4.6370    3.9972   18.6260 C.3     1  UNL1        0.0951
     35 C          -4.6978    4.0949   17.1304 C.3     1  UNL1        0.0216
     36 C          -5.5295    5.1614   16.4817 C.3     1  UNL1        0.0035
     37 C          -6.3003    6.1303   17.3285 C.3     1  UNL1        0.0216
     38 C          -6.2395    6.0327   18.8241 C.3     1  UNL1        0.0951
     39 C          -6.6254    5.4334   24.5895 C.3     1  UNL1        0.4381
     40 F          -7.3440    5.7835   25.8587 F       1  UNL1       -0.1643
     41 F          -5.6622    6.5591   24.8244 F       1  UNL1       -0.1643
     42 F          -7.5886    4.3077   24.3547 F       1  UNL1       -0.1643
@<TRIPOS>BOND
     1    24    25    2
     2    25    26   am
     3    26     1    1
     4     1     2   ar
     5     2     3   ar
     6     3     4   ar
     7     4     7    1
     8     7     8    1
     9     8     9    1
    10     9    10    1
    11    10    11   am
    12    11    12    2
    13    11    13   am
    14    13    17    1
    15    17    18   ar
    16    18    19   ar
    17    19    20   ar
    18    20    21   ar
    19    21    22   ar
    20    22    23    1
    21    10    14    1
    22    14    15    1
    23     4     5   ar
    24     5     6   ar
    25    25    28    1
    26    28    29   ar
    27    29    30   ar
    28    30    33    1
    29    33    34    1
    30    34    35    1
    31    35    36    1
    32    36    37    1
    33    37    38    1
    34    30    31   ar
    35    31    32   ar
    36    32    39    1
    37    39    40    1
    38    39    41    1
    39    39    42    1
    40     6     1   ar
    41    32    28   ar
    42    15     7    1
    43    38    33    1
    44    22    17   ar
    45    26    27    1
    46    13    16    1
@<TRIPOS>MOLECULE
*****
 42 46 0 0 0
SMALL
GASTEIGER

@<TRIPOS>ATOM
      1 C          -0.4932    2.3097   25.9089 C.ar    1  UNL1        0.0702
      2 C          -1.2100    1.5584   26.9913 C.ar    1  UNL1        0.0191
      3 C          -0.5892    1.4269   28.3504 C.ar    1  UNL1        0.0356
      4 C           0.7484    2.0467   28.6272 C.ar    1  UNL1        0.1319
      5 N           1.4653    2.7980   27.5447 N.ar    1  UNL1       -0.2279
      6 C           0.8445    2.9295   26.1856 C.ar    1  UNL1        0.1149
      7 N           1.3692    1.9152   29.9864 N.pl3   1  UNL1       -0.2897
      8 C           0.9965    2.8750   31.0772 C.3     1  UNL1        0.1137
      9 C           1.6173    2.7435   32.4364 C.3     1  UNL1        0.1164
     10 N           2.6108    1.6522   32.7047 N.am    1  UNL1       -0.2605
     11 C           3.2316    1.5206   34.0638 C.2     1  UNL1        0.3078
     12 O           4.2251    0.4293   34.3321 O.2     1  UNL1       -0.2522
     13 N           2.8589    2.4804   35.1546 N.am    1  UNL1       -0.2674
     14 C           2.9835    0.6924   31.6138 C.3     1  UNL1        0.1164
     15 C           2.3627    0.8239   30.2547 C.3     1  UNL1        0.1137
     16 H           2.2068    3.1966   34.9785 H       1  UNL1        0.1564
     17 C           3.4797    2.3489   36.5138 C.ar    1  UNL1        0.0622
     18 C           2.8360    1.4774   37.5512 C.ar    1  UNL1        0.0156
     19 C           3.4568    1.3459   38.9104 C.ar    1  UNL1        0.0013
     20 C           4.7213    2.0859   39.2321 C.ar    1  UNL1        0.0009
     21 C           5.3650    2.9573   38.1947 C.ar    1  UNL1        0.0126
     22 C           4.7442    3.0888   36.8356 C.ar    1  UNL1        0.0711
     23 CL          5.3879    3.9603   35.7981 Cl      1  UNL1       -0.0810
     24 O          -2.2888    4.6342   25.2984 O.2     1  UNL1       -0.2664
     25 C          -2.0118    3.6034   24.2445 C.2     1  UNL1        0.2859
     26 N          -1.1140    2.4412   24.5497 N.am    1  UNL1       -0.2766
     27 H          -0.9322    1.7647   23.8579 H       1  UNL1        0.1553
     28 C          -2.6326    3.7350   22.8853 C.ar    1  UNL1        0.2233
     29 O          -1.8988    3.7327   21.5770 O.2     1  UNL1       -0.4191
     30 C          -2.9088    3.8881   20.4788 C.ar    1  UNL1        0.2925
     31 N          -4.2667    3.9865   21.1086 N.ar    1  UNL1       -0.1904
     32 C          -4.0960    3.8918   22.5958 C.ar    1  UNL1        0.1959
     33 N          -2.6129    3.9367   19.0091 N.pl3   1  UNL1       -0.2636
     34 C          -1.1914    3.9609   18.5307 C.3     1  UNL1        0.0951
     35 C          -0.8955    4.0094   17.0610 C.3     1  UNL1        0.0216
     36 C          -2.0210    4.0338   16.0697 C.3     1  UNL1        0.0035
     37 C          -3.4425    4.0097   16.5482 C.3     1  UNL1        0.0216
     38 C          -3.7384    3.9611   18.0179 C.3     1  UNL1        0.0951
     39 C          -5.1955    3.9448   23.6147 C.3     1  UNL1        0.4381
     40 F          -6.2950    3.9976   24.6336 F       1  UNL1       -0.1643
     41 F          -5.0888    2.4609   23.8069 F       1  UNL1       -0.1643
     42 F          -5.3022    5.4286   23.4226 F       1  UNL1       -0.1643
@<TRIPOS>BOND
     1    24    25    2
     2    25    26   am
     3    26     1    1
     4     1     2   ar
     5     2     3   ar
     6     3     4   ar
     7     4     7    1
     8     7     8    1
     9     8     9    1
    10     9    10    1
    11    10    11   am
    12    11    12    2
    13    11    13   am
    14    13    17    1
    15    17    18   ar
    16    18    19   ar
    17    19    20   ar
    18    20    21   ar
    19    21    22   ar
    20    22    23    1
    21    10    14    1
    22    14    15    1
    23     4     5   ar
    24     5     6   ar
    25    25    28    1
    26    28    29   ar
    27    29    30   ar
    28    30    33    1
    29    33    34    1
    30    34    35    1
    31    35    36    1
    32    36    37    1
    33    37    38    1
    34    30    31   ar
    35    31    32   ar
    36    32    39    1
    37    39    40    1
    38    39    41    1
    39    39    42    1
    40     6     1   ar
    41    32    28   ar
    42    15     7    1
    43    38    33    1
    44    22    17   ar
    45    26    27    1
    46    13    16    1
@<TRIPOS>MOLECULE
*****
 42 46 0 0 0
SMALL
GASTEIGER

@<TRIPOS>ATOM
      1 C           5.5426    1.1940   34.9284 C.ar    1  UNL1        0.0702
      2 C           6.9030    0.5624   34.9081 C.ar    1  UNL1        0.0191
      3 C           7.2358   -0.4685   33.8707 C.ar    1  UNL1        0.0356
      4 C           6.2082   -0.8679   32.8535 C.ar    1  UNL1        0.1319
      5 N           4.8478   -0.2363   32.8738 N.ar    1  UNL1       -0.2279
      6 C           4.5151    0.7947   33.9113 C.ar    1  UNL1        0.1149
      7 N           6.5410   -1.8989   31.8160 N.pl3   1  UNL1       -0.2897
      8 C           6.9489   -1.4712   30.4374 C.3     1  UNL1        0.1137
      9 C           7.2818   -2.5022   29.4000 C.3     1  UNL1        0.1164
     10 N           7.2067   -3.9609   29.7412 N.am    1  UNL1       -0.2605
     11 C           7.5395   -4.9919   28.7038 C.2     1  UNL1        0.3078
     12 O           7.4644   -6.4507   29.0450 O.2     1  UNL1       -0.2522
     13 N           7.9474   -4.5642   27.3252 N.am    1  UNL1       -0.2674
     14 C           6.7987   -4.3887   31.1199 C.3     1  UNL1        0.1164
     15 C           6.4659   -3.3577   32.1573 C.3     1  UNL1        0.1137
     16 H           7.9967   -3.6068   27.1012 H       1  UNL1        0.1564
     17 C           8.2802   -5.5952   26.2877 C.ar    1  UNL1        0.0622
     18 C           9.2010   -6.7298   26.6263 C.ar    1  UNL1        0.0156
     19 C           9.5338   -7.7608   25.5888 C.ar    1  UNL1        0.0013
     20 C           8.9458   -7.6571   24.2128 C.ar    1  UNL1        0.0009
     21 C           8.0250   -6.5225   23.8742 C.ar    1  UNL1        0.0126
     22 C           7.6922   -5.4915   24.9117 C.ar    1  UNL1        0.0711
     23 CL          6.7714   -4.3568   24.5731 Cl      1  UNL1       -0.0810
     24 O           4.1147    0.3876   37.4406 O.2     1  UNL1       -0.2664
     25 C           4.4959    1.8218   37.2219 C.2     1  UNL1        0.2859
     26 N           5.2098    2.2250   35.9659 N.am    1  UNL1       -0.2766
     27 H           5.4600    3.1664   35.8224 H       1  UNL1        0.1553
     28 C           4.1630    2.8529   38.2594 C.ar    1  UNL1        0.2233
     29 O           4.8161    2.9950   39.6023 O.2     1  UNL1       -0.4191
     30 C           4.1754    4.1527   40.3090 C.ar    1  UNL1        0.2925
     31 N           3.1264    4.7260   39.4028 N.ar    1  UNL1       -0.1904
     32 C           3.1188    3.9226   38.1361 C.ar    1  UNL1        0.1959
     33 N           4.5227    4.6499   41.6810 N.pl3   1  UNL1       -0.2636
     34 C           5.7822    4.1855   42.3504 C.3     1  UNL1        0.0951
     35 C           6.1295    4.6827   43.7223 C.3     1  UNL1        0.0216
     36 C           5.2173    5.6441   44.4248 C.3     1  UNL1        0.0035
     37 C           3.9578    6.1085   43.7554 C.3     1  UNL1        0.0216
     38 C           3.6105    5.6113   42.3834 C.3     1  UNL1        0.0951
     39 C           2.2241    4.1491   36.9538 C.3     1  UNL1        0.4381
     40 F           1.3294    4.3757   35.7713 F       1  UNL1       -0.1643
     41 F           3.3506    4.8265   36.2310 F       1  UNL1       -0.1643
     42 F           1.0975    3.4719   37.6763 F       1  UNL1       -0.1643
@<TRIPOS>BOND
     1    24    25    2
     2    25    26   am
     3    26     1    1
     4     1     2   ar
     5     2     3   ar
     6     3     4   ar
     7     4     7    1
     8     7     8    1
     9     8     9    1
    10     9    10    1
    11    10    11   am
    12    11    12    2
    13    11    13   am
    14    13    17    1
    15    17    18   ar
    16    18    19   ar
    17    19    20   ar
    18    20    21   ar
    19    21    22   ar
    20    22    23    1
    21    10    14    1
    22    14    15    1
    23     4     5   ar
    24     5     6   ar
    25    25    28    1
    26    28    29   ar
    27    29    30   ar
    28    30    33    1
    29    33    34    1
    30    34    35    1
    31    35    36    1
    32    36    37    1
    33    37    38    1
    34    30    31   ar
    35    31    32   ar
    36    32    39    1
    37    39    40    1
    38    39    41    1
    39    39    42    1
    40     6     1   ar
    41    32    28   ar
    42    15     7    1
    43    38    33    1
    44    22    17   ar
    45    26    27    1
    46    13    16    1
@<TRIPOS>MOLECULE
*****
 42 46 0 0 0
SMALL
GASTEIGER

@<TRIPOS>ATOM
      1 C           5.4680   -2.4361   28.5755 C.ar    1  UNL1        0.0702
      2 C           4.5604   -1.2686   28.8267 C.ar    1  UNL1        0.0191
      3 C           4.4971   -0.6478   30.1907 C.ar    1  UNL1        0.0356
      4 C           5.3414   -1.1945   31.3035 C.ar    1  UNL1        0.1319
      5 N           6.2490   -2.3620   31.0523 N.ar    1  UNL1       -0.2279
      6 C           6.3123   -2.9828   29.6883 C.ar    1  UNL1        0.1149
      7 N           5.2781   -0.5736   32.6676 N.pl3   1  UNL1       -0.2897
      8 C           5.9787    0.7258   32.9334 C.3     1  UNL1        0.1137
      9 C           5.9154    1.3467   34.2975 C.3     1  UNL1        0.1164
     10 N           5.1514    0.6682   35.3956 N.am    1  UNL1       -0.2605
     11 C           5.0880    1.2890   36.7596 C.2     1  UNL1        0.3078
     12 O           4.3240    0.6105   37.8577 O.2     1  UNL1       -0.2522
     13 N           5.7887    2.5883   37.0254 N.am    1  UNL1       -0.2674
     14 C           4.4507   -0.6312   35.1297 C.3     1  UNL1        0.1164
     15 C           4.5140   -1.2521   33.7657 C.3     1  UNL1        0.1137
     16 H           6.2901    3.0337   36.3047 H       1  UNL1        0.1564
     17 C           5.7254    3.2092   38.3895 C.ar    1  UNL1        0.0622
     18 C           6.7960    2.9149   39.3979 C.ar    1  UNL1        0.0156
     19 C           6.7327    3.5358   40.7619 C.ar    1  UNL1        0.0013
     20 C           5.5986    4.4510   41.1174 C.ar    1  UNL1        0.0009
     21 C           4.5280    4.7453   40.1090 C.ar    1  UNL1        0.0126
     22 C           4.5913    4.1244   38.7450 C.ar    1  UNL1        0.0711
     23 CL          3.5206    4.4187   37.7365 Cl      1  UNL1       -0.0810
     24 O           7.5319   -1.5154   26.6026 O.2     1  UNL1       -0.2664
     25 C           6.5632   -2.5966   26.2251 C.2     1  UNL1        0.2859
     26 N           5.5313   -3.0570   27.2115 N.am    1  UNL1       -0.2766
     27 H           4.8955   -3.7667   26.9637 H       1  UNL1        0.1553
     28 C           6.6266   -3.2176   24.8610 C.ar    1  UNL1        0.2233
     29 O           6.0927   -2.6181   23.5939 O.2     1  UNL1       -0.4191
     30 C           6.3711   -3.5769   22.4743 C.ar    1  UNL1        0.2925
     31 N           7.0769   -4.7689   23.0497 N.ar    1  UNL1       -0.1904
     32 C           7.2348   -4.5468   24.5247 C.ar    1  UNL1        0.1959
     33 N           6.0074   -3.3786   21.0327 N.pl3   1  UNL1       -0.2636
     34 C           6.9328   -2.6270   20.1223 C.3     1  UNL1        0.0951
     35 C           6.5691   -2.4286   18.6806 C.3     1  UNL1        0.0216
     36 C           5.2801   -2.9819   18.1494 C.3     1  UNL1        0.0035
     37 C           4.3547   -3.7335   19.0597 C.3     1  UNL1        0.0216
     38 C           4.7184   -3.9319   20.5014 C.3     1  UNL1        0.0951
     39 C           7.8865   -5.4885   25.4934 C.3     1  UNL1        0.4381
     40 F           8.5383   -6.4302   26.4620 F       1  UNL1       -0.1643
     41 F           9.2373   -5.0564   25.0047 F       1  UNL1       -0.1643
     42 F           6.5358   -5.9207   25.9821 F       1  UNL1       -0.1643
@<TRIPOS>BOND
     1    24    25    2
     2    25    26   am
     3    26     1    1
     4     1     2   ar
     5     2     3   ar
     6     3     4   ar
     7     4     7    1
     8     7     8    1
     9     8     9    1
    10     9    10    1
    11    10    11   am
    12    11    12    2
    13    11    13   am
    14    13    17    1
    15    17    18   ar
    16    18    19   ar
    17    19    20   ar
    18    20    21   ar
    19    21    22   ar
    20    22    23    1
    21    10    14    1
    22    14    15    1
    23     4     5   ar
    24     5     6   ar
    25    25    28    1
    26    28    29   ar
    27    29    30   ar
    28    30    33    1
    29    33    34    1
    30    34    35    1
    31    35    36    1
    32    36    37    1
    33    37    38    1
    34    30    31   ar
    35    31    32   ar
    36    32    39    1
    37    39    40    1
    38    39    41    1
    39    39    42    1
    40     6     1   ar
    41    32    28   ar
    42    15     7    1
    43    38    33    1
    44    22    17   ar
    45    26    27    1
    46    13    16    1
@<TRIPOS>MOLECULE
*****
 42 46 0 0 0
SMALL
GASTEIGER

@<TRIPOS>ATOM
      1 C           0.4065    1.5066   26.0474 C.ar    1  UNL1        0.0702
      2 C          -0.4928    1.7543   27.2220 C.ar    1  UNL1        0.0191
      3 C           0.0686    1.7384   28.6129 C.ar    1  UNL1        0.0356
      4 C           1.5293    1.4747   28.8291 C.ar    1  UNL1        0.1319
      5 N           2.4286    1.2269   27.6545 N.ar    1  UNL1       -0.2279
      6 C           1.8672    1.2429   26.2636 C.ar    1  UNL1        0.1149
      7 N           2.0907    1.4587   30.2200 N.pl3   1  UNL1       -0.2897
      8 C           2.1561    2.7278   31.0170 C.3     1  UNL1        0.1137
      9 C           2.7175    2.7118   32.4080 C.3     1  UNL1        0.1164
     10 N           3.2134    1.4268   33.0019 N.am    1  UNL1       -0.2605
     11 C           3.7748    1.4108   34.3927 C.2     1  UNL1        0.3078
     12 O           4.2707    0.1258   34.9866 O.2     1  UNL1       -0.2522
     13 N           3.8402    2.6799   35.1897 N.am    1  UNL1       -0.2674
     14 C           3.1480    0.1577   32.2048 C.3     1  UNL1        0.1164
     15 C           2.5866    0.1737   30.8139 C.3     1  UNL1        0.1137
     16 H           3.5147    3.5233   34.7999 H       1  UNL1        0.1564
     17 C           4.4016    2.6639   36.5807 C.ar    1  UNL1        0.0622
     18 C           5.8669    2.4261   36.7953 C.ar    1  UNL1        0.0156
     19 C           6.4282    2.4102   38.1862 C.ar    1  UNL1        0.0013
     20 C           5.5242    2.6321   39.3624 C.ar    1  UNL1        0.0009
     21 C           4.0588    2.8699   39.1477 C.ar    1  UNL1        0.0126
     22 C           3.4975    2.8859   37.7569 C.ar    1  UNL1        0.0711
     23 CL          2.0321    3.1237   37.5421 Cl      1  UNL1       -0.0810
     24 O           0.0569    4.1113   24.6006 O.2     1  UNL1       -0.2664
     25 C          -0.3297    2.8248   23.9331 C.2     1  UNL1        0.2859
     26 N          -0.1549    1.5225   24.6564 N.am    1  UNL1       -0.2766
     27 H          -0.4086    0.6782   24.2183 H       1  UNL1        0.1553
     28 C          -0.8911    2.8408   22.5421 C.ar    1  UNL1        0.2233
     29 O          -2.2437    3.3520   22.1431 O.2     1  UNL1       -0.4191
     30 C          -2.3870    3.1755   20.6604 C.ar    1  UNL1        0.2925
     31 N          -1.1230    2.5552   20.1431 N.ar    1  UNL1       -0.1904
     32 C          -0.1985    2.3483   21.3061 C.ar    1  UNL1        0.1959
     33 N          -3.5841    3.5530   19.8392 N.pl3   1  UNL1       -0.2636
     34 C          -3.4021    4.0877   18.4496 C.3     1  UNL1        0.0951
     35 C          -4.5992    4.4651   17.6284 C.3     1  UNL1        0.0216
     36 C          -5.9784    4.3079   18.1968 C.3     1  UNL1        0.0035
     37 C          -6.1604    3.7732   19.5864 C.3     1  UNL1        0.0216
     38 C          -4.9633    3.3957   20.4076 C.3     1  UNL1        0.0951
     39 C           1.1771    1.7535   21.2440 C.3     1  UNL1        0.4381
     40 F           2.5527    1.1586   21.1819 F       1  UNL1       -0.1643
     41 F           0.5968    0.3882   21.4659 F       1  UNL1       -0.1643
     42 F           1.7575    3.1187   21.0221 F       1  UNL1       -0.1643
@<TRIPOS>BOND
     1    24    25    2
     2    25    26   am
     3    26     1    1
     4     1     2   ar
     5     2     3   ar
     6     3     4   ar
     7     4     7    1
     8     7     8    1
     9     8     9    1
    10     9    10    1
    11    10    11   am
    12    11    12    2
    13    11    13   am
    14    13    17    1
    15    17    18   ar
    16    18    19   ar
    17    19    20   ar
    18    20    21   ar
    19    21    22   ar
    20    22    23    1
    21    10    14    1
    22    14    15    1
    23     4     5   ar
    24     5     6   ar
    25    25    28    1
    26    28    29   ar
    27    29    30   ar
    28    30    33    1
    29    33    34    1
    30    34    35    1
    31    35    36    1
    32    36    37    1
    33    37    38    1
    34    30    31   ar
    35    31    32   ar
    36    32    39    1
    37    39    40    1
    38    39    41    1
    39    39    42    1
    40     6     1   ar
    41    32    28   ar
    42    15     7    1
    43    38    33    1
    44    22    17   ar
    45    26    27    1
    46    13    16    1
