@<TRIPOS>MOLECULE
*****
 39 41 0 0 0
SMALL
GASTEIGER

@<TRIPOS>ATOM
      1 O          -8.7762  -17.3475   21.1248 O.3     1  UNL1       -0.2709
      2 P          -9.1160  -16.7354   22.4514 P.3     1  UNL1        0.4634
      3 O          -8.2116  -17.7169   23.1360 O.2     1  UNL1       -0.2281
      4 N         -10.0205  -15.7538   21.7669 N.3     1  UNL1       -0.1929
      5 H         -10.3926  -15.1409   22.4922 H       1  UNL1        0.1358
      6 C         -11.1932  -16.2438   20.9704 C.3     1  UNL1        0.1635
      7 C         -11.4713  -15.6684   19.6133 C.3     1  UNL1        0.0296
      8 C         -12.0880  -17.3093   21.5309 C.2     1  UNL1        0.3317
      9 O         -12.1236  -18.6685   20.8975 O.2     1  UNL1       -0.2486
     10 O         -12.9472  -17.0155   22.7249 O.3     1  UNL1       -0.4514
     11 C         -14.3443  -18.3129   24.4897 C.3     1  UNL1        0.0473
     12 C         -13.0220  -17.9987   23.8552 C.3     1  UNL1        0.1691
     13 C         -11.7744  -18.6679   24.3509 C.3     1  UNL1        0.0473
     14 O          -9.4558  -16.1233   23.7780 O.3     1  UNL1       -0.4115
     15 C          -8.3768  -15.8844   24.7922 C.ar    1  UNL1        0.1479
     16 C          -7.0597  -15.3084   24.3644 C.ar    1  UNL1        0.0374
     17 C          -5.9807  -15.0695   25.3786 C.ar    1  UNL1        0.0031
     18 C          -6.2188  -15.4067   26.8207 C.ar    1  UNL1        0.0002
     19 C          -7.5360  -15.9828   27.2485 C.ar    1  UNL1        0.0031
     20 C          -8.6150  -16.2217   26.2342 C.ar    1  UNL1        0.0374
     21 C          -8.3883  -18.7942   21.0437 C.3     1  UNL1        0.1857
     22 C          -6.9772  -19.1745   20.7058 C.3     1  UNL1        0.1768
     23 O          -5.7767  -18.2799   20.7983 O.3     1  UNL1       -0.3306
     24 C          -4.5764  -19.0687   20.3658 C.3     1  UNL1        0.2413
     25 C          -5.0350  -20.4508   20.0060 C.3     1  UNL1        0.2057
     26 C          -3.5837  -20.6846   19.7077 C.3     1  UNL1        0.0426
     27 F          -5.1903  -21.8818   19.5839 F       1  UNL1       -0.2328
     28 C          -6.5188  -20.5162   20.2161 C.3     1  UNL1        0.1742
     29 O          -7.3910  -21.7132   19.9784 O.3     1  UNL1       -0.3792
     30 H          -8.3109  -21.4902   20.1908 H       1  UNL1        0.2106
     31 N          -3.1651  -18.5640   20.3040 N.ar    1  UNL1       -0.2549
     32 C          -2.5159  -18.3131   18.9753 C.ar    1  UNL1        0.0869
     33 C          -1.1047  -17.8085   18.9135 C.ar    1  UNL1        0.0795
     34 C          -0.3428  -17.5547   20.1804 C.ar    1  UNL1        0.2626
     35 O           1.0684  -17.0500   20.1185 O.2     1  UNL1       -0.2670
     36 N          -0.9920  -17.8056   21.5091 N.ar    1  UNL1       -0.2743
     37 C          -2.4032  -18.3102   21.5709 C.ar    1  UNL1        0.3323
     38 O          -3.0525  -18.5611   22.8996 O.2     1  UNL1       -0.2464
     39 H          -0.4920  -17.6390   22.3406 H       1  UNL1        0.1734
@<TRIPOS>BOND
     1    11    12    1
     2    12    13    1
     3    12    10    1
     4    10     8    1
     5     8     9    2
     6     8     6    1
     7     6     7    1
     8     6     4    1
     9     2     4    1
    10     2     3    2
    11     2     1    1
    12     1    21    1
    13    22    21    1
    14    22    23    1
    15    23    24    1
    16    24    31    1
    17    31    32   ar
    18    32    33   ar
    19    33    34   ar
    20    34    35    2
    21    34    36   ar
    22    36    37   ar
    23    37    38    2
    24    24    25    1
    25    25    26    1
    26    25    27    1
    27    25    28    1
    28    28    29    1
    29     2    14    1
    30    14    15    1
    31    15    16   ar
    32    16    17   ar
    33    17    18   ar
    34    18    19   ar
    35    19    20   ar
    36    28    22    1
    37    20    15   ar
    38    37    31   ar
    39     4     5    1
    40    36    39    1
    41    29    30    1
@<TRIPOS>MOLECULE
*****
 39 41 0 0 0
SMALL
GASTEIGER

@<TRIPOS>ATOM
      1 O          -8.9007  -18.6159   22.1854 O.3     1  UNL1       -0.2709
      2 P          -8.9418  -17.2955   22.8959 P.3     1  UNL1        0.4634
      3 O          -8.4759  -16.6086   21.6464 O.2     1  UNL1       -0.2281
      4 N          -9.4078  -17.9823   24.1454 N.3     1  UNL1       -0.1929
      5 H          -8.5866  -18.4171   24.5661 H       1  UNL1        0.1358
      6 C         -10.4671  -19.0415   24.0685 C.3     1  UNL1        0.1635
      7 C         -10.1217  -20.4706   24.3660 C.3     1  UNL1        0.0296
      8 C         -11.8717  -18.6717   23.6940 C.2     1  UNL1        0.3317
      9 O         -12.9119  -18.4997   24.7610 O.2     1  UNL1       -0.2486
     10 O         -12.2362  -18.4739   22.2523 O.3     1  UNL1       -0.4514
     11 C         -11.7883  -16.9482   20.1978 C.3     1  UNL1        0.0473
     12 C         -12.1638  -17.1060   21.6414 C.3     1  UNL1        0.1691
     13 C         -12.4669  -15.8957   22.4740 C.3     1  UNL1        0.0473
     14 O          -8.9830  -15.9751   23.6063 O.3     1  UNL1       -0.4115
     15 C          -8.0705  -15.7204   24.7692 C.ar    1  UNL1        0.1479
     16 C          -6.5952  -15.5677   24.5455 C.ar    1  UNL1        0.0374
     17 C          -5.6826  -15.3129   25.7084 C.ar    1  UNL1        0.0031
     18 C          -6.2454  -15.2109   27.0951 C.ar    1  UNL1        0.0002
     19 C          -7.7207  -15.3636   27.3188 C.ar    1  UNL1        0.0031
     20 C          -8.6332  -15.6183   26.1559 C.ar    1  UNL1        0.0374
     21 C          -8.3842  -18.6953   20.7794 C.3     1  UNL1        0.1857
     22 C          -6.9639  -19.1048   20.5241 C.3     1  UNL1        0.1768
     23 O          -5.7605  -18.2133   20.6080 O.3     1  UNL1       -0.3306
     24 C          -4.5506  -19.0352   20.2759 C.3     1  UNL1        0.2413
     25 C          -5.0061  -20.4349   19.9867 C.3     1  UNL1        0.2057
     26 C          -3.5461  -20.6959   19.7631 C.3     1  UNL1        0.0426
     27 F          -5.1564  -21.8890   19.6508 F       1  UNL1       -0.2328
     28 C          -6.4976  -20.4779   20.1401 C.3     1  UNL1        0.1742
     29 O          -7.3698  -21.6824   19.9441 O.3     1  UNL1       -0.3792
     30 H          -8.2955  -21.4409   20.1043 H       1  UNL1        0.2106
     31 N          -3.1338  -18.5439   20.2393 N.ar    1  UNL1       -0.2549
     32 C          -2.4577  -18.3018   18.9224 C.ar    1  UNL1        0.0869
     33 C          -1.0409  -17.8105   18.8859 C.ar    1  UNL1        0.0795
     34 C          -0.3003  -17.5613   20.1662 C.ar    1  UNL1        0.2626
     35 O           1.1166  -17.0700   20.1297 O.2     1  UNL1       -0.2670
     36 N          -0.9763  -17.8034   21.4831 N.ar    1  UNL1       -0.2743
     37 C          -2.3931  -18.2947   21.5196 C.ar    1  UNL1        0.3323
     38 O          -3.0693  -18.5368   22.8366 O.2     1  UNL1       -0.2464
     39 H          -0.4902  -17.6398   22.3235 H       1  UNL1        0.1734
@<TRIPOS>BOND
     1    11    12    1
     2    12    13    1
     3    12    10    1
     4    10     8    1
     5     8     9    2
     6     8     6    1
     7     6     7    1
     8     6     4    1
     9     2     4    1
    10     2     3    2
    11     2     1    1
    12     1    21    1
    13    22    21    1
    14    22    23    1
    15    23    24    1
    16    24    31    1
    17    31    32   ar
    18    32    33   ar
    19    33    34   ar
    20    34    35    2
    21    34    36   ar
    22    36    37   ar
    23    37    38    2
    24    24    25    1
    25    25    26    1
    26    25    27    1
    27    25    28    1
    28    28    29    1
    29     2    14    1
    30    14    15    1
    31    15    16   ar
    32    16    17   ar
    33    17    18   ar
    34    18    19   ar
    35    19    20   ar
    36    28    22    1
    37    20    15   ar
    38    37    31   ar
    39     4     5    1
    40    36    39    1
    41    29    30    1
@<TRIPOS>MOLECULE
*****
 39 41 0 0 0
SMALL
GASTEIGER

@<TRIPOS>ATOM
      1 O          -8.6795  -15.1196   23.0874 O.3     1  UNL1       -0.2709
      2 P          -9.0445  -16.3611   22.3288 P.3     1  UNL1        0.4634
      3 O          -8.1196  -15.9553   21.2197 O.2     1  UNL1       -0.2281
      4 N          -9.9693  -16.7669   23.4379 N.3     1  UNL1       -0.1929
      5 H          -9.6397  -17.6691   23.7809 H       1  UNL1        0.1358
      6 C         -11.4383  -16.9147   23.1733 C.3     1  UNL1        0.1635
      7 C         -12.1350  -15.9555   22.2543 C.3     1  UNL1        0.0296
      8 C         -12.2106  -18.0217   23.8275 C.2     1  UNL1        0.3317
      9 O         -13.7097  -18.0239   23.7738 O.2     1  UNL1       -0.2486
     10 O         -11.4839  -19.1265   24.5356 O.3     1  UNL1       -0.4514
     11 C         -11.0657  -20.4268   22.3256 C.3     1  UNL1        0.0473
     12 C         -10.6946  -20.1300   23.7484 C.3     1  UNL1        0.1691
     13 C          -9.5341  -20.8368   24.3838 C.3     1  UNL1        0.0473
     14 O          -9.4094  -17.6026   21.5703 O.3     1  UNL1       -0.4115
     15 C          -8.3572  -18.6226   21.2505 C.ar    1  UNL1        0.1479
     16 C          -8.2717  -19.2048   19.8708 C.ar    1  UNL1        0.0374
     17 C          -7.2195  -20.2249   19.5510 C.ar    1  UNL1        0.0031
     18 C          -6.2527  -20.6628   20.6110 C.ar    1  UNL1        0.0002
     19 C          -6.3381  -20.0806   21.9907 C.ar    1  UNL1        0.0031
     20 C          -7.3904  -19.0605   22.3105 C.ar    1  UNL1        0.0374
     21 C          -7.8526  -15.2187   24.3349 C.3     1  UNL1        0.1857
     22 C          -6.5132  -15.8929   24.2953 C.3     1  UNL1        0.1768
     23 O          -5.7535  -16.2727   23.0589 O.3     1  UNL1       -0.3306
     24 C          -4.4692  -16.9201   23.4845 C.3     1  UNL1        0.2413
     25 C          -4.4350  -16.9405   24.9840 C.3     1  UNL1        0.2057
     26 C          -3.1066  -17.6089   24.7879 C.3     1  UNL1        0.0426
     27 F          -4.1232  -17.1006   26.4425 F       1  UNL1       -0.2328
     28 C          -5.6983  -16.3056   25.4851 C.3     1  UNL1        0.1742
     29 O          -6.0797  -16.1167   26.9234 O.3     1  UNL1       -0.3792
     30 H          -6.9450  -15.6812   26.9740 H       1  UNL1        0.2106
     31 N          -3.4056  -17.4536   22.5711 N.ar    1  UNL1       -0.2549
     32 C          -3.2558  -18.9336   22.3782 C.ar    1  UNL1        0.0869
     33 C          -2.1922  -19.4669   21.4648 C.ar    1  UNL1        0.0795
     34 C          -1.2785  -18.5204   20.7443 C.ar    1  UNL1        0.2626
     35 O          -0.2150  -19.0539   19.8308 O.2     1  UNL1       -0.2670
     36 N          -1.4284  -17.0404   20.9371 N.ar    1  UNL1       -0.2743
     37 C          -2.4919  -16.5070   21.8505 C.ar    1  UNL1        0.3323
     38 O          -2.6418  -15.0270   22.0434 O.2     1  UNL1       -0.2464
     39 H          -0.8287  -16.4192   20.4642 H       1  UNL1        0.1734
@<TRIPOS>BOND
     1    11    12    1
     2    12    13    1
     3    12    10    1
     4    10     8    1
     5     8     9    2
     6     8     6    1
     7     6     7    1
     8     6     4    1
     9     2     4    1
    10     2     3    2
    11     2     1    1
    12     1    21    1
    13    22    21    1
    14    22    23    1
    15    23    24    1
    16    24    31    1
    17    31    32   ar
    18    32    33   ar
    19    33    34   ar
    20    34    35    2
    21    34    36   ar
    22    36    37   ar
    23    37    38    2
    24    24    25    1
    25    25    26    1
    26    25    27    1
    27    25    28    1
    28    28    29    1
    29     2    14    1
    30    14    15    1
    31    15    16   ar
    32    16    17   ar
    33    17    18   ar
    34    18    19   ar
    35    19    20   ar
    36    28    22    1
    37    20    15   ar
    38    37    31   ar
    39     4     5    1
    40    36    39    1
    41    29    30    1
@<TRIPOS>MOLECULE
*****
 39 41 0 0 0
SMALL
GASTEIGER

@<TRIPOS>ATOM
      1 O          -5.4133  -18.4665   22.7315 O.3     1  UNL1       -0.2709
      2 P          -3.9532  -18.1351   22.6398 P.3     1  UNL1        0.4634
      3 O          -3.6363  -19.5871   22.4370 O.2     1  UNL1       -0.2281
      4 N          -4.2701  -16.6830   22.8427 N.3     1  UNL1       -0.1929
      5 H          -3.3781  -16.1901   22.8852 H       1  UNL1        0.1358
      6 C          -5.0625  -16.2484   24.0398 C.3     1  UNL1        0.1635
      7 C          -4.5509  -16.5318   25.4211 C.3     1  UNL1        0.0296
      8 C          -6.3666  -15.5304   23.8557 C.2     1  UNL1        0.3317
      9 O          -7.0196  -15.4957   22.5057 O.2     1  UNL1       -0.2486
     10 O          -7.0177  -14.8470   25.0216 O.3     1  UNL1       -0.4514
     11 C          -8.1366  -15.4858   27.2776 C.3     1  UNL1        0.0473
     12 C          -8.1136  -15.5366   25.7786 C.3     1  UNL1        0.1691
     13 C          -9.1866  -16.2770   25.0368 C.3     1  UNL1        0.0473
     14 O          -2.4932  -17.8037   22.5482 O.3     1  UNL1       -0.4115
     15 C          -1.8096  -17.7902   21.2131 C.ar    1  UNL1        0.1479
     16 C          -0.3124  -17.7385   21.1376 C.ar    1  UNL1        0.0374
     17 C           0.3712  -17.7251   19.8026 C.ar    1  UNL1        0.0031
     18 C          -0.4423  -17.7634   18.5429 C.ar    1  UNL1        0.0002
     19 C          -1.9395  -17.8151   18.6184 C.ar    1  UNL1        0.0031
     20 C          -2.6231  -17.8286   19.9534 C.ar    1  UNL1        0.0374
     21 C          -6.1618  -18.9023   21.5068 C.3     1  UNL1        0.1857
     22 C          -7.6611  -18.9445   21.5196 C.3     1  UNL1        0.1768
     23 O          -8.5383  -18.7550   22.7215 O.3     1  UNL1       -0.3306
     24 C          -9.9658  -18.8769   22.2774 C.3     1  UNL1        0.2413
     25 C          -9.9709  -19.1418   20.8010 C.3     1  UNL1        0.2057
     26 C         -11.4615  -19.1561   20.9680 C.3     1  UNL1        0.0426
     27 F         -10.2877  -19.4097   19.3595 F       1  UNL1       -0.2328
     28 C          -8.5466  -19.1836   20.3326 C.3     1  UNL1        0.1742
     29 O          -8.0881  -19.4224   18.9245 O.3     1  UNL1       -0.3792
     30 H          -7.1189  -19.3996   18.8917 H       1  UNL1        0.2106
     31 N         -11.1759  -18.7554   23.1556 N.ar    1  UNL1       -0.2549
     32 C         -12.3795  -18.0010   22.6737 C.ar    1  UNL1        0.0869
     33 C         -13.5895  -17.8795   23.5519 C.ar    1  UNL1        0.0795
     34 C         -13.5958  -18.5123   24.9118 C.ar    1  UNL1        0.2626
     35 O         -14.8059  -18.3907   25.7900 O.2     1  UNL1       -0.2670
     36 N         -12.3922  -19.2667   25.3937 N.ar    1  UNL1       -0.2743
     37 C         -11.1822  -19.3882   24.5155 C.ar    1  UNL1        0.3323
     38 O          -9.9785  -20.1426   24.9974 O.2     1  UNL1       -0.2464
     39 H         -12.3963  -19.6820   26.2863 H       1  UNL1        0.1734
@<TRIPOS>BOND
     1    11    12    1
     2    12    13    1
     3    12    10    1
     4    10     8    1
     5     8     9    2
     6     8     6    1
     7     6     7    1
     8     6     4    1
     9     2     4    1
    10     2     3    2
    11     2     1    1
    12     1    21    1
    13    22    21    1
    14    22    23    1
    15    23    24    1
    16    24    31    1
    17    31    32   ar
    18    32    33   ar
    19    33    34   ar
    20    34    35    2
    21    34    36   ar
    22    36    37   ar
    23    37    38    2
    24    24    25    1
    25    25    26    1
    26    25    27    1
    27    25    28    1
    28    28    29    1
    29     2    14    1
    30    14    15    1
    31    15    16   ar
    32    16    17   ar
    33    17    18   ar
    34    18    19   ar
    35    19    20   ar
    36    28    22    1
    37    20    15   ar
    38    37    31   ar
    39     4     5    1
    40    36    39    1
    41    29    30    1
@<TRIPOS>MOLECULE
*****
 39 41 0 0 0
SMALL
GASTEIGER

@<TRIPOS>ATOM
      1 O          -5.0594  -17.8355   21.9204 O.3     1  UNL1       -0.2709
      2 P          -4.9238  -16.9316   23.1098 P.3     1  UNL1        0.4634
      3 O          -6.3020  -16.3952   22.8592 O.2     1  UNL1       -0.2281
      4 N          -3.5455  -17.4680   23.3603 N.3     1  UNL1       -0.1929
      5 H          -3.1790  -16.9706   24.1719 H       1  UNL1        0.1358
      6 C          -2.4996  -17.3782   22.2889 C.3     1  UNL1        0.1635
      7 C          -1.9448  -16.0422   21.8924 C.3     1  UNL1        0.0296
      8 C          -2.0084  -18.6245   21.6139 C.2     1  UNL1        0.3317
      9 O          -2.1635  -19.9545   22.2901 O.2     1  UNL1       -0.2486
     10 O          -1.3622  -18.5408   20.2628 O.3     1  UNL1       -0.4514
     11 C          -3.6116  -18.8908   19.0109 C.3     1  UNL1        0.0473
     12 C          -2.2078  -18.3630   19.0368 C.3     1  UNL1        0.1691
     13 C          -1.6496  -17.6574   17.8366 C.3     1  UNL1        0.0473
     14 O          -4.7882  -16.0277   24.2990 O.3     1  UNL1       -0.4115
     15 C          -5.9563  -15.8133   25.2152 C.ar    1  UNL1        0.1479
     16 C          -7.3254  -15.5888   24.6450 C.ar    1  UNL1        0.0374
     17 C          -8.4936  -15.3744   25.5611 C.ar    1  UNL1        0.0031
     18 C          -8.2927  -15.3845   27.0476 C.ar    1  UNL1        0.0002
     19 C          -6.9236  -15.6090   27.6178 C.ar    1  UNL1        0.0031
     20 C          -5.7555  -15.8234   26.7017 C.ar    1  UNL1        0.0374
     21 C          -5.8492  -19.1060   22.0302 C.3     1  UNL1        0.1857
     22 C          -7.3418  -19.0761   21.8842 C.3     1  UNL1        0.1768
     23 O          -8.3327  -18.8860   22.9942 O.3     1  UNL1       -0.3306
     24 C          -9.7088  -18.9236   22.3986 C.3     1  UNL1        0.2413
     25 C          -9.5685  -19.1369   20.9205 C.3     1  UNL1        0.2057
     26 C         -11.0676  -19.0849   20.9299 C.3     1  UNL1        0.0426
     27 F          -9.7417  -19.3393   19.4443 F       1  UNL1       -0.2328
     28 C          -8.1057  -19.2312   20.6025 C.3     1  UNL1        0.1742
     29 O          -7.5110  -19.4432   19.2419 O.3     1  UNL1       -0.3792
     30 H          -6.5438  -19.4661   19.3117 H       1  UNL1        0.2106
     31 N         -10.9989  -18.7741   23.1494 N.ar    1  UNL1       -0.2549
     32 C         -12.1223  -17.9752   22.5583 C.ar    1  UNL1        0.0869
     33 C         -13.4123  -17.8257   23.3090 C.ar    1  UNL1        0.0795
     34 C         -13.5788  -18.4751   24.6508 C.ar    1  UNL1        0.2626
     35 O         -14.8688  -18.3256   25.4016 O.2     1  UNL1       -0.2670
     36 N         -12.4553  -19.2740   25.2419 N.ar    1  UNL1       -0.2743
     37 C         -11.1653  -19.4235   24.4912 C.ar    1  UNL1        0.3323
     38 O         -10.0417  -20.2225   25.0823 O.2     1  UNL1       -0.2464
     39 H         -12.5645  -19.7003   26.1226 H       1  UNL1        0.1734
@<TRIPOS>BOND
     1    11    12    1
     2    12    13    1
     3    12    10    1
     4    10     8    1
     5     8     9    2
     6     8     6    1
     7     6     7    1
     8     6     4    1
     9     2     4    1
    10     2     3    2
    11     2     1    1
    12     1    21    1
    13    22    21    1
    14    22    23    1
    15    23    24    1
    16    24    31    1
    17    31    32   ar
    18    32    33   ar
    19    33    34   ar
    20    34    35    2
    21    34    36   ar
    22    36    37   ar
    23    37    38    2
    24    24    25    1
    25    25    26    1
    26    25    27    1
    27    25    28    1
    28    28    29    1
    29     2    14    1
    30    14    15    1
    31    15    16   ar
    32    16    17   ar
    33    17    18   ar
    34    18    19   ar
    35    19    20   ar
    36    28    22    1
    37    20    15   ar
    38    37    31   ar
    39     4     5    1
    40    36    39    1
    41    29    30    1
@<TRIPOS>MOLECULE
*****
 39 41 0 0 0
SMALL
GASTEIGER

@<TRIPOS>ATOM
      1 O          -4.6908  -19.7966   22.8426 O.3     1  UNL1       -0.2709
      2 P          -3.7668  -18.6807   22.4539 P.3     1  UNL1        0.4634
      3 O          -2.7190  -19.6825   22.0685 O.2     1  UNL1       -0.2281
      4 N          -4.8146  -17.6789   22.8393 N.3     1  UNL1       -0.1929
      5 H          -4.9436  -17.0638   22.0359 H       1  UNL1        0.1358
      6 C          -4.6039  -16.7945   24.0324 C.3     1  UNL1        0.1635
      7 C          -3.9933  -17.3547   25.2827 C.3     1  UNL1        0.0296
      8 C          -5.0038  -15.3499   23.9751 C.2     1  UNL1        0.3317
      9 O          -4.6944  -14.5338   22.7551 O.2     1  UNL1       -0.2486
     10 O          -5.7131  -14.7213   25.1378 O.3     1  UNL1       -0.4514
     11 C          -8.0864  -15.7476   24.8848 C.3     1  UNL1        0.0473
     12 C          -6.9068  -15.3984   25.7431 C.3     1  UNL1        0.1691
     13 C          -6.9210  -15.7264   27.2067 C.3     1  UNL1        0.0473
     14 O          -2.8429  -17.5648   22.0652 O.3     1  UNL1       -0.4115
     15 C          -2.1060  -17.6215   20.7600 C.ar    1  UNL1        0.1479
     16 C          -2.8688  -17.6851   19.4701 C.ar    1  UNL1        0.0374
     17 C          -2.1319  -17.7417   18.1649 C.ar    1  UNL1        0.0031
     18 C          -0.6320  -17.7347   18.1496 C.ar    1  UNL1        0.0002
     19 C           0.1309  -17.6711   19.4394 C.ar    1  UNL1        0.0031
     20 C          -0.6060  -17.6145   20.7447 C.ar    1  UNL1        0.0374
     21 C          -5.4594  -20.5358   21.7877 C.3     1  UNL1        0.1857
     22 C          -6.7900  -20.0180   21.3279 C.3     1  UNL1        0.1768
     23 O          -7.6664  -19.0549   22.0725 O.3     1  UNL1       -0.3306
     24 C          -8.8959  -18.8141   21.2476 C.3     1  UNL1        0.2413
     25 C          -8.7793  -19.6283   19.9932 C.3     1  UNL1        0.2057
     26 C         -10.1148  -19.0283   19.6671 C.3     1  UNL1        0.0426
     27 F          -8.9419  -20.3171   18.6707 F       1  UNL1       -0.2328
     28 C          -7.4778  -20.3724   20.0428 C.3     1  UNL1        0.1742
     29 O          -6.9558  -21.3068   18.9919 O.3     1  UNL1       -0.3792
     30 H          -6.0937  -21.6550   19.2683 H       1  UNL1        0.2106
     31 N         -10.0409  -17.9166   21.6129 N.ar    1  UNL1       -0.2549
     32 C         -11.3867  -18.5043   21.9182 C.ar    1  UNL1        0.0869
     33 C         -12.5317  -17.6068   22.2835 C.ar    1  UNL1        0.0795
     34 C         -12.3308  -16.1215   22.3435 C.ar    1  UNL1        0.2626
     35 O         -13.4759  -15.2240   22.7089 O.2     1  UNL1       -0.2670
     36 N         -10.9850  -15.5338   22.0383 N.ar    1  UNL1       -0.2743
     37 C          -9.8400  -16.4313   21.6730 C.ar    1  UNL1        0.3323
     38 O          -8.4941  -15.8435   21.3677 O.2     1  UNL1       -0.2464
     39 H         -10.8532  -14.5589   22.0777 H       1  UNL1        0.1734
@<TRIPOS>BOND
     1    11    12    1
     2    12    13    1
     3    12    10    1
     4    10     8    1
     5     8     9    2
     6     8     6    1
     7     6     7    1
     8     6     4    1
     9     2     4    1
    10     2     3    2
    11     2     1    1
    12     1    21    1
    13    22    21    1
    14    22    23    1
    15    23    24    1
    16    24    31    1
    17    31    32   ar
    18    32    33   ar
    19    33    34   ar
    20    34    35    2
    21    34    36   ar
    22    36    37   ar
    23    37    38    2
    24    24    25    1
    25    25    26    1
    26    25    27    1
    27    25    28    1
    28    28    29    1
    29     2    14    1
    30    14    15    1
    31    15    16   ar
    32    16    17   ar
    33    17    18   ar
    34    18    19   ar
    35    19    20   ar
    36    28    22    1
    37    20    15   ar
    38    37    31   ar
    39     4     5    1
    40    36    39    1
    41    29    30    1
@<TRIPOS>MOLECULE
*****
 39 41 0 0 0
SMALL
GASTEIGER

@<TRIPOS>ATOM
      1 O          -8.4332  -15.1222   23.0363 O.3     1  UNL1       -0.2709
      2 P          -9.1001  -16.4642   23.1031 P.3     1  UNL1        0.4634
      3 O          -9.7643  -16.0701   24.3890 O.2     1  UNL1       -0.2281
      4 N          -8.4359  -16.8583   21.8172 N.3     1  UNL1       -0.1929
      5 H          -9.1400  -16.7738   21.0841 H       1  UNL1        0.1358
      6 C          -7.8247  -18.2208   21.6756 C.3     1  UNL1        0.1635
      7 C          -7.1016  -18.8424   22.8335 C.3     1  UNL1        0.0296
      8 C          -7.9366  -18.9616   20.3761 C.2     1  UNL1        0.3317
      9 O          -6.9391  -20.0277   20.0322 O.2     1  UNL1       -0.2486
     10 O          -9.0462  -18.6363   19.4205 O.3     1  UNL1       -0.4514
     11 C         -11.4073  -17.5637   19.5773 C.3     1  UNL1        0.0473
     12 C         -10.4730  -18.6977   19.8791 C.3     1  UNL1        0.1691
     13 C         -10.9656  -19.8932   20.6394 C.3     1  UNL1        0.0473
     14 O          -9.7670  -17.8060   23.1699 O.3     1  UNL1       -0.4115
     15 C         -11.2191  -17.9046   23.5327 C.ar    1  UNL1        0.1479
     16 C         -11.6515  -18.7937   24.6608 C.ar    1  UNL1        0.0374
     17 C         -13.1036  -18.8923   25.0236 C.ar    1  UNL1        0.0031
     18 C         -14.1233  -18.1019   24.2585 C.ar    1  UNL1        0.0002
     19 C         -13.6908  -17.2128   23.1304 C.ar    1  UNL1        0.0031
     20 C         -12.2387  -17.1142   22.7676 C.ar    1  UNL1        0.0374
     21 C          -7.3178  -14.7911   23.9829 C.3     1  UNL1        0.1857
     22 C          -6.0406  -15.5767   23.9413 C.3     1  UNL1        0.1768
     23 O          -5.2521  -15.9129   22.7103 O.3     1  UNL1       -0.3306
     24 C          -4.0519  -16.7080   23.1315 C.3     1  UNL1        0.2413
     25 C          -4.0986  -16.8630   24.6228 C.3     1  UNL1        0.2057
     26 C          -2.8235  -17.6281   24.4254 C.3     1  UNL1        0.0426
     27 F          -3.8788  -17.1781   26.0728 F       1  UNL1       -0.2328
     28 C          -5.3277  -16.1639   25.1233 C.3     1  UNL1        0.1742
     29 O          -5.7668  -16.0686   26.5544 O.3     1  UNL1       -0.3792
     30 H          -6.5932  -15.5634   26.6061 H       1  UNL1        0.2106
     31 N          -2.9911  -17.2524   22.2213 N.ar    1  UNL1       -0.2549
     32 C          -1.9437  -16.3377   21.6589 C.ar    1  UNL1        0.0869
     33 C          -0.8830  -16.8822   20.7487 C.ar    1  UNL1        0.0795
     34 C          -0.8698  -18.3412   20.4009 C.ar    1  UNL1        0.2626
     35 O           0.1910  -18.8856   19.4906 O.2     1  UNL1       -0.2670
     36 N          -1.9172  -19.2558   20.9632 N.ar    1  UNL1       -0.2743
     37 C          -2.9779  -18.7114   21.8734 C.ar    1  UNL1        0.3323
     38 O          -4.0254  -19.6261   22.4358 O.2     1  UNL1       -0.2464
     39 H          -1.9085  -20.2135   20.7349 H       1  UNL1        0.1734
@<TRIPOS>BOND
     1    11    12    1
     2    12    13    1
     3    12    10    1
     4    10     8    1
     5     8     9    2
     6     8     6    1
     7     6     7    1
     8     6     4    1
     9     2     4    1
    10     2     3    2
    11     2     1    1
    12     1    21    1
    13    22    21    1
    14    22    23    1
    15    23    24    1
    16    24    31    1
    17    31    32   ar
    18    32    33   ar
    19    33    34   ar
    20    34    35    2
    21    34    36   ar
    22    36    37   ar
    23    37    38    2
    24    24    25    1
    25    25    26    1
    26    25    27    1
    27    25    28    1
    28    28    29    1
    29     2    14    1
    30    14    15    1
    31    15    16   ar
    32    16    17   ar
    33    17    18   ar
    34    18    19   ar
    35    19    20   ar
    36    28    22    1
    37    20    15   ar
    38    37    31   ar
    39     4     5    1
    40    36    39    1
    41    29    30    1
@<TRIPOS>MOLECULE
*****
 39 41 0 0 0
SMALL
GASTEIGER

@<TRIPOS>ATOM
      1 O          -8.7096  -15.2528   23.2172 O.3     1  UNL1       -0.2709
      2 P          -9.0984  -16.5938   22.6691 P.3     1  UNL1        0.4634
      3 O          -8.2433  -16.3481   21.4614 O.2     1  UNL1       -0.2281
      4 N          -9.9534  -16.8396   23.8768 N.3     1  UNL1       -0.1929
      5 H          -9.3402  -17.2154   24.6002 H       1  UNL1        0.1358
      6 C         -11.1322  -17.7627   23.7859 C.3     1  UNL1        0.1635
      7 C         -11.0297  -19.1640   24.3112 C.3     1  UNL1        0.0296
      8 C         -12.4135  -17.2845   23.1698 C.2     1  UNL1        0.3317
      9 O         -13.7293  -17.7538   23.7160 O.2     1  UNL1       -0.2486
     10 O         -12.3789  -16.3370   22.0074 O.3     1  UNL1       -0.4514
     11 C         -11.9394  -18.3192   20.3865 C.3     1  UNL1        0.0473
     12 C         -12.0414  -16.8437   20.6366 C.3     1  UNL1        0.1691
     13 C         -11.8058  -15.8750   19.5158 C.3     1  UNL1        0.0473
     14 O          -9.4871  -17.9348   22.1210 O.3     1  UNL1       -0.4115
     15 C          -8.4385  -18.8472   21.5571 C.ar    1  UNL1        0.1479
     16 C          -8.2633  -18.9609   20.0718 C.ar    1  UNL1        0.0374
     17 C          -7.2147  -19.8733   19.5079 C.ar    1  UNL1        0.0031
     18 C          -6.3412  -20.6720   20.4294 C.ar    1  UNL1        0.0002
     19 C          -6.5164  -20.5583   21.9147 C.ar    1  UNL1        0.0031
     20 C          -7.5650  -19.6459   22.4786 C.ar    1  UNL1        0.0374
     21 C          -7.7763  -15.1630   24.3880 C.3     1  UNL1        0.1857
     22 C          -6.4246  -15.8098   24.3210 C.3     1  UNL1        0.1768
     23 O          -5.6534  -16.1132   23.0708 O.3     1  UNL1       -0.3306
     24 C          -4.3590  -16.7578   23.4695 C.3     1  UNL1        0.2413
     25 C          -4.3302  -16.8528   24.9663 C.3     1  UNL1        0.2057
     26 C          -2.9889  -17.4862   24.7432 C.3     1  UNL1        0.0426
     27 F          -4.0210  -17.0801   26.4164 F       1  UNL1       -0.2328
     28 C          -5.6068  -16.2669   25.4926 C.3     1  UNL1        0.1742
     29 O          -5.9972  -16.1573   26.9367 O.3     1  UNL1       -0.3792
     30 H          -6.8705  -15.7407   27.0049 H       1  UNL1        0.2106
     31 N          -3.2823  -17.2253   22.5356 N.ar    1  UNL1       -0.2549
     32 C          -2.3506  -16.2316   21.9076 C.ar    1  UNL1        0.0869
     33 C          -1.2740  -16.6991   20.9736 C.ar    1  UNL1        0.0795
     34 C          -1.1290  -18.1604   20.6677 C.ar    1  UNL1        0.2626
     35 O          -0.0524  -18.6279   19.7338 O.2     1  UNL1       -0.2670
     36 N          -2.0607  -19.1542   21.2957 N.ar    1  UNL1       -0.2743
     37 C          -3.1373  -18.6866   22.2296 C.ar    1  UNL1        0.3323
     38 O          -4.0690  -19.6804   22.8577 O.2     1  UNL1       -0.2464
     39 H          -1.9656  -20.1133   21.0949 H       1  UNL1        0.1734
@<TRIPOS>BOND
     1    11    12    1
     2    12    13    1
     3    12    10    1
     4    10     8    1
     5     8     9    2
     6     8     6    1
     7     6     7    1
     8     6     4    1
     9     2     4    1
    10     2     3    2
    11     2     1    1
    12     1    21    1
    13    22    21    1
    14    22    23    1
    15    23    24    1
    16    24    31    1
    17    31    32   ar
    18    32    33   ar
    19    33    34   ar
    20    34    35    2
    21    34    36   ar
    22    36    37   ar
    23    37    38    2
    24    24    25    1
    25    25    26    1
    26    25    27    1
    27    25    28    1
    28    28    29    1
    29     2    14    1
    30    14    15    1
    31    15    16   ar
    32    16    17   ar
    33    17    18   ar
    34    18    19   ar
    35    19    20   ar
    36    28    22    1
    37    20    15   ar
    38    37    31   ar
    39     4     5    1
    40    36    39    1
    41    29    30    1
@<TRIPOS>MOLECULE
*****
 39 41 0 0 0
SMALL
GASTEIGER

@<TRIPOS>ATOM
      1 O           4.5727   -3.5368   22.2245 O.3     1  UNL1       -0.2709
      2 P           5.8566   -3.7102   22.9807 P.3     1  UNL1        0.4634
      3 O           6.4764   -4.3601   21.7793 O.2     1  UNL1       -0.2281
      4 N           5.2367   -3.0602   24.1821 N.3     1  UNL1       -0.1929
      5 H           4.3558   -3.5439   24.3569 H       1  UNL1        0.1358
      6 C           4.9287   -1.5923   24.1655 C.3     1  UNL1        0.1635
      7 C           5.8586   -0.6387   23.4756 C.3     1  UNL1        0.0296
      8 C           3.6909   -1.0780   24.8389 C.2     1  UNL1        0.3317
      9 O           3.5864   -1.1009   26.3351 O.2     1  UNL1       -0.2486
     10 O           2.5576   -0.5407   24.0160 O.3     1  UNL1       -0.4514
     11 C           0.6547    1.1897   24.3822 C.3     1  UNL1        0.0473
     12 C           2.1101    0.8799   24.1929 C.3     1  UNL1        0.1691
     13 C           3.1179    1.9908   24.1804 C.3     1  UNL1        0.0473
     14 O           7.1403   -3.8835   23.7368 O.3     1  UNL1       -0.4115
     15 C           7.4383   -5.1850   24.4203 C.ar    1  UNL1        0.1479
     16 C           8.2706   -6.2228   23.7273 C.ar    1  UNL1        0.0374
     17 C           8.5686   -7.5243   24.4108 C.ar    1  UNL1        0.0031
     18 C           8.0343   -7.7881   25.7874 C.ar    1  UNL1        0.0002
     19 C           7.2021   -6.7503   26.4804 C.ar    1  UNL1        0.0031
     20 C           6.9041   -5.4488   25.7969 C.ar    1  UNL1        0.0374
     21 C           4.6019   -3.2635   20.7500 C.3     1  UNL1        0.1857
     22 C           3.9537   -2.0259   20.2036 C.3     1  UNL1        0.1768
     23 O           3.2805   -0.9543   21.0089 O.3     1  UNL1       -0.3306
     24 C           2.7757    0.0911   20.0591 C.3     1  UNL1        0.2413
     25 C           3.1368   -0.3344   18.6668 C.3     1  UNL1        0.2057
     26 C           2.4545    0.9408   18.2690 C.3     1  UNL1        0.0426
     27 F           3.3553   -0.4933   17.1913 F       1  UNL1       -0.2328
     28 C           3.8649   -1.6428   18.7561 C.3     1  UNL1        0.1742
     29 O           4.4087   -2.4298   17.6007 O.3     1  UNL1       -0.3792
     30 H           4.8337   -3.2369   17.9308 H       1  UNL1        0.2106
     31 N           2.0390    1.3424   20.4355 N.ar    1  UNL1       -0.2549
     32 C           2.7778    2.6431   20.5466 C.ar    1  UNL1        0.0869
     33 C           2.0411    3.8943   20.9229 C.ar    1  UNL1        0.0795
     34 C           0.5656    3.8448   21.1883 C.ar    1  UNL1        0.2626
     35 O          -0.1711    5.0961   21.5647 O.2     1  UNL1       -0.2670
     36 N          -0.1732    2.5442   21.0772 N.ar    1  UNL1       -0.2743
     37 C           0.5635    1.2930   20.7009 C.ar    1  UNL1        0.3323
     38 O          -0.1754   -0.0078   20.5898 O.2     1  UNL1       -0.2464
     39 H          -1.1417    2.5117   21.2514 H       1  UNL1        0.1734
@<TRIPOS>BOND
     1    11    12    1
     2    12    13    1
     3    12    10    1
     4    10     8    1
     5     8     9    2
     6     8     6    1
     7     6     7    1
     8     6     4    1
     9     2     4    1
    10     2     3    2
    11     2     1    1
    12     1    21    1
    13    22    21    1
    14    22    23    1
    15    23    24    1
    16    24    31    1
    17    31    32   ar
    18    32    33   ar
    19    33    34   ar
    20    34    35    2
    21    34    36   ar
    22    36    37   ar
    23    37    38    2
    24    24    25    1
    25    25    26    1
    26    25    27    1
    27    25    28    1
    28    28    29    1
    29     2    14    1
    30    14    15    1
    31    15    16   ar
    32    16    17   ar
    33    17    18   ar
    34    18    19   ar
    35    19    20   ar
    36    28    22    1
    37    20    15   ar
    38    37    31   ar
    39     4     5    1
    40    36    39    1
    41    29    30    1
