@<TRIPOS>MOLECULE
*****
 34 38 0 0 0
SMALL
GASTEIGER

@<TRIPOS>ATOM
      1 C           5.9311   -1.6940   21.3048 C.3     1  UNL1        0.1412
      2 N           6.8480   -2.4837   22.1912 N.3     1  UNL1       -0.2630
      3 C           8.0117   -1.7282   22.7616 C.3     1  UNL1        0.0742
      4 C           9.0948   -2.2269   23.6718 C.3     1  UNL1        0.0347
      5 C           9.2817   -3.6039   24.2362 C.3     1  UNL1        0.0735
      6 N           8.4317   -4.8226   24.0300 N.3     1  UNL1       -0.2727
      7 C           7.1849   -4.9651   23.2083 C.3     1  UNL1        0.0896
      8 C           6.4801   -3.9241   22.3900 C.3     1  UNL1        0.0902
      9 C           8.8891   -6.0627   24.7391 C.3     1  UNL1        0.0575
     10 C           9.4482   -6.3621   26.0985 C.3     1  UNL1        0.0160
     11 C           9.5359   -7.8165   25.7421 C.3     1  UNL1        0.0028
     12 C           8.9768   -7.5172   24.3827 C.3     1  UNL1        0.0160
     13 C           2.9316    1.1299   23.1154 C.ar    1  UNL1        0.1057
     14 C           3.9507    1.6419   22.1411 C.ar    1  UNL1        0.0181
     15 C           4.9505    0.7006   21.5375 C.ar    1  UNL1       -0.0012
     16 C           4.9313   -0.7527   21.9083 C.ar    1  UNL1       -0.0004
     17 C           3.9122   -1.2647   22.8827 C.ar    1  UNL1       -0.0012
     18 C           2.9124   -0.3234   23.4862 C.ar    1  UNL1        0.0181
     19 C           0.9320    3.0126   24.3225 C.3     1  UNL1        0.1816
     20 S           1.9318    2.0712   23.7190 S.O2    1  UNL1        0.0104
     21 O           2.8778    3.2150   23.5022 O.2     1  UNL1       -0.1686
     22 O           0.9858    0.9275   23.9358 O.2     1  UNL1       -0.1686
     23 C           6.0140   -1.8457   19.8148 C.ar    1  UNL1        0.1798
     24 N           7.2681   -1.8039   18.9927 N.ar    1  UNL1       -0.1110
     25 N           6.8866   -1.9983   17.5551 N.ar    1  UNL1       -0.0229
     26 N           5.3969   -2.1602   17.4887 N.ar    1  UNL1       -0.0428
     27 N           4.8576   -2.0659   18.8852 N.ar    1  UNL1       -0.2108
     28 C           3.4151   -2.1730   19.2824 C.3     1  UNL1        0.1570
     29 C           2.5598   -0.9420   19.3404 C.ar    1  UNL1        0.0022
     30 C           1.3574   -0.9058   20.2365 C.ar    1  UNL1       -0.0023
     31 C           0.5021    0.3251   20.2946 C.ar    1  UNL1       -0.0003
     32 C           0.8492    1.5197   19.4564 C.ar    1  UNL1       -0.0000
     33 C           2.0516    1.4835   18.5603 C.ar    1  UNL1       -0.0003
     34 C           2.9069    0.2525   18.5023 C.ar    1  UNL1       -0.0023
@<TRIPOS>BOND
     1    19    20    1
     2    20    21    2
     3    20    22    2
     4    20    13    1
     5    13    14   ar
     6    14    15   ar
     7    15    16   ar
     8    16     1    1
     9     1    23    1
    10    23    24   ar
    11    24    25   ar
    12    25    26   ar
    13    26    27   ar
    14    27    28    1
    15    28    29    1
    16    29    30   ar
    17    30    31   ar
    18    31    32   ar
    19    32    33   ar
    20    33    34   ar
    21     1     2    1
    22     2     3    1
    23     3     4    1
    24     4     5    1
    25     5     6    1
    26     6     9    1
    27     9    10    1
    28    10    11    1
    29    11    12    1
    30     6     7    1
    31     7     8    1
    32    16    17   ar
    33    17    18   ar
    34    18    13   ar
    35    27    23   ar
    36    34    29   ar
    37     8     2    1
    38    12     9    1
@<TRIPOS>MOLECULE
*****
 34 38 0 0 0
SMALL
GASTEIGER

@<TRIPOS>ATOM
      1 C           5.9583   -1.7241   21.6628 C.3     1  UNL1        0.1412
      2 N           6.7531   -2.5248   22.6513 N.3     1  UNL1       -0.2630
      3 C           7.4982   -1.7305   23.6830 C.3     1  UNL1        0.0742
      4 C           8.3719   -2.2292   24.7957 C.3     1  UNL1        0.0347
      5 C           8.7163   -3.6450   25.1514 C.3     1  UNL1        0.0735
      6 N           8.2722   -4.9120   24.4825 N.3     1  UNL1       -0.2727
      7 C           7.3738   -5.0760   23.2925 C.3     1  UNL1        0.0896
      8 C           6.6978   -4.0135   22.4776 C.3     1  UNL1        0.0902
      9 C           8.7955   -6.1830   25.0829 C.3     1  UNL1        0.0575
     10 C           8.8007   -7.6261   24.6735 C.3     1  UNL1        0.0160
     11 C           9.5357   -7.9806   25.9321 C.3     1  UNL1        0.0028
     12 C           9.5305   -6.5376   26.3416 C.3     1  UNL1        0.0160
     13 C           2.7742    1.1104   23.1042 C.ar    1  UNL1        0.1057
     14 C           2.7849   -0.3114   23.5821 C.ar    1  UNL1        0.0181
     15 C           3.8462   -1.2563   23.1016 C.ar    1  UNL1       -0.0012
     16 C           4.8969   -0.7793   22.1433 C.ar    1  UNL1       -0.0004
     17 C           4.8863    0.6426   21.6653 C.ar    1  UNL1       -0.0012
     18 C           3.8249    1.5873   22.1458 C.ar    1  UNL1        0.0181
     19 C           0.6515    2.9999   24.0652 C.3     1  UNL1        0.1816
     20 S           1.7128    2.0552   23.5847 S.O2    1  UNL1        0.0104
     21 O           1.1803    0.9918   24.4989 O.2     1  UNL1       -0.1686
     22 O           2.2454    3.1184   22.6705 O.2     1  UNL1       -0.1686
     23 C           6.2249   -1.8682   20.1937 C.ar    1  UNL1        0.1798
     24 N           7.5656   -1.7740   19.5275 N.ar    1  UNL1       -0.1110
     25 N           7.3669   -1.9795   18.0550 N.ar    1  UNL1       -0.0229
     26 N           5.9035   -2.2006   17.8111 N.ar    1  UNL1       -0.0428
     27 N           5.1977   -2.1319   19.1329 N.ar    1  UNL1       -0.2108
     28 C           3.7235   -2.2977   19.3549 C.3     1  UNL1        0.1570
     29 C           2.8218   -1.0992   19.3299 C.ar    1  UNL1        0.0022
     30 C           3.1473    0.0660   18.4431 C.ar    1  UNL1       -0.0023
     31 C           2.2457    1.2644   18.4181 C.ar    1  UNL1       -0.0003
     32 C           1.0184    1.2977   19.2800 C.ar    1  UNL1       -0.0000
     33 C           0.6929    0.1326   20.1668 C.ar    1  UNL1       -0.0003
     34 C           1.5946   -1.0659   20.1918 C.ar    1  UNL1       -0.0023
@<TRIPOS>BOND
     1    19    20    1
     2    20    21    2
     3    20    22    2
     4    20    13    1
     5    13    14   ar
     6    14    15   ar
     7    15    16   ar
     8    16     1    1
     9     1    23    1
    10    23    24   ar
    11    24    25   ar
    12    25    26   ar
    13    26    27   ar
    14    27    28    1
    15    28    29    1
    16    29    30   ar
    17    30    31   ar
    18    31    32   ar
    19    32    33   ar
    20    33    34   ar
    21     1     2    1
    22     2     3    1
    23     3     4    1
    24     4     5    1
    25     5     6    1
    26     6     9    1
    27     9    10    1
    28    10    11    1
    29    11    12    1
    30     6     7    1
    31     7     8    1
    32    16    17   ar
    33    17    18   ar
    34    18    13   ar
    35    27    23   ar
    36    34    29   ar
    37     8     2    1
    38    12     9    1
@<TRIPOS>MOLECULE
*****
 34 38 0 0 0
SMALL
GASTEIGER

@<TRIPOS>ATOM
      1 C           3.1036    0.3033   22.6621 C.3     1  UNL1        0.1412
      2 N           2.5277    0.5275   24.0289 N.3     1  UNL1       -0.2630
      3 C           1.0885    0.9487   24.0676 C.3     1  UNL1        0.0742
      4 C           0.2332    1.2473   25.2632 C.3     1  UNL1        0.0347
      5 C           0.6059    1.1985   26.7153 C.3     1  UNL1        0.0735
      6 N           1.9259    0.8391   27.3305 N.3     1  UNL1       -0.2727
      7 C           3.1992    0.4397   26.6456 C.3     1  UNL1        0.0896
      8 C           3.4669    0.3010   25.1762 C.3     1  UNL1        0.0902
      9 C           1.9797    0.8852   28.8288 C.3     1  UNL1        0.0575
     10 C           2.0050   -0.1423   29.9214 C.3     1  UNL1        0.0160
     11 C           2.0557    0.9503   30.9478 C.3     1  UNL1        0.0028
     12 C           2.0304    1.9779   29.8553 C.3     1  UNL1        0.0160
     13 C           6.3032   -2.8011   22.0503 C.ar    1  UNL1        0.1057
     14 C           6.5562   -1.3758   21.6573 C.ar    1  UNL1        0.0181
     15 C           5.4897   -0.3409   21.8613 C.ar    1  UNL1       -0.0012
     16 C           4.1701   -0.7315   22.4582 C.ar    1  UNL1       -0.0004
     17 C           3.9171   -2.1569   22.8511 C.ar    1  UNL1       -0.0012
     18 C           4.9837   -3.1916   22.6471 C.ar    1  UNL1        0.0181
     19 C           8.4364   -4.8708   21.6424 C.3     1  UNL1        0.1816
     20 S           7.3699   -3.8360   21.8463 S.O2    1  UNL1        0.0104
     21 O           6.7475   -4.6876   22.9128 O.2     1  UNL1       -0.1686
     22 O           7.9921   -2.9843   20.7798 O.2     1  UNL1       -0.1686
     23 C           2.6129    1.1139   21.4994 C.ar    1  UNL1        0.1798
     24 N           2.5617    2.6114   21.4274 N.ar    1  UNL1       -0.1110
     25 N           2.0044    2.9923   20.0880 N.ar    1  UNL1       -0.0229
     26 N           1.7110    1.7304   19.3321 N.ar    1  UNL1       -0.0428
     27 N           2.0871    0.5695   20.2043 N.ar    1  UNL1       -0.2108
     28 C           1.9597   -0.8812   19.8447 C.3     1  UNL1        0.1570
     29 C           3.1428   -1.6256   19.3003 C.ar    1  UNL1        0.0022
     30 C           3.2369   -3.1127   19.4719 C.ar    1  UNL1       -0.0023
     31 C           4.4199   -3.8572   18.9275 C.ar    1  UNL1       -0.0003
     32 C           5.5087   -3.1143   18.2114 C.ar    1  UNL1       -0.0000
     33 C           5.4146   -1.6272   18.0398 C.ar    1  UNL1       -0.0003
     34 C           4.2315   -0.8828   18.5842 C.ar    1  UNL1       -0.0023
@<TRIPOS>BOND
     1    19    20    1
     2    20    21    2
     3    20    22    2
     4    20    13    1
     5    13    14   ar
     6    14    15   ar
     7    15    16   ar
     8    16     1    1
     9     1    23    1
    10    23    24   ar
    11    24    25   ar
    12    25    26   ar
    13    26    27   ar
    14    27    28    1
    15    28    29    1
    16    29    30   ar
    17    30    31   ar
    18    31    32   ar
    19    32    33   ar
    20    33    34   ar
    21     1     2    1
    22     2     3    1
    23     3     4    1
    24     4     5    1
    25     5     6    1
    26     6     9    1
    27     9    10    1
    28    10    11    1
    29    11    12    1
    30     6     7    1
    31     7     8    1
    32    16    17   ar
    33    17    18   ar
    34    18    13   ar
    35    27    23   ar
    36    34    29   ar
    37     8     2    1
    38    12     9    1
@<TRIPOS>MOLECULE
*****
 34 38 0 0 0
SMALL
GASTEIGER

@<TRIPOS>ATOM
      1 C          -6.8299  -19.3567   20.9222 C.3     1  UNL1        0.1412
      2 N          -7.4559  -18.8841   22.2008 N.3     1  UNL1       -0.2630
      3 C          -8.5092  -19.7814   22.7802 C.3     1  UNL1        0.0742
      4 C          -9.3126  -19.5929   24.0329 C.3     1  UNL1        0.0347
      5 C          -9.2611  -18.4607   25.0154 C.3     1  UNL1        0.0735
      6 N          -8.3935  -17.2374   24.9881 N.3     1  UNL1       -0.2727
      7 C          -7.3632  -16.8440   23.9714 C.3     1  UNL1        0.0896
      8 C          -6.9459  -17.5770   22.7310 C.3     1  UNL1        0.0902
      9 C          -8.5811  -16.2809   26.1282 C.3     1  UNL1        0.0575
     10 C          -8.4246  -16.3623   27.6178 C.3     1  UNL1        0.0160
     11 C          -8.8465  -14.9282   27.7406 C.3     1  UNL1        0.0028
     12 C          -9.0030  -14.8466   26.2511 C.3     1  UNL1        0.0160
     13 C          -2.4591  -18.6167   20.1490 C.ar    1  UNL1        0.1057
     14 C          -3.4695  -18.3269   19.0790 C.ar    1  UNL1        0.0181
     15 C          -4.9265  -18.5736   19.3367 C.ar    1  UNL1       -0.0012
     16 C          -5.3730  -19.1100   20.6644 C.ar    1  UNL1       -0.0004
     17 C          -4.3624  -19.3997   21.7345 C.ar    1  UNL1       -0.0012
     18 C          -2.9055  -19.1531   21.4767 C.ar    1  UNL1        0.0181
     19 C           0.4549  -18.1233   19.6335 C.3     1  UNL1        0.1816
     20 S          -1.0021  -18.3700   19.8912 S.O2    1  UNL1        0.0104
     21 O          -0.7120  -18.5585   21.3508 O.2     1  UNL1       -0.1686
     22 O          -1.2922  -18.1815   18.4317 O.2     1  UNL1       -0.1686
     23 C          -7.6609  -20.0759   19.9014 C.ar    1  UNL1        0.1798
     24 N          -7.4059  -21.4554   19.3703 N.ar    1  UNL1       -0.1110
     25 N          -8.4802  -21.7741   18.3731 N.ar    1  UNL1       -0.0229
     26 N          -9.3992  -20.5916   18.2880 N.ar    1  UNL1       -0.0428
     27 N          -8.8928  -19.5421   19.2325 N.ar    1  UNL1       -0.2108
     28 C          -9.5099  -18.1952   19.4670 C.3     1  UNL1        0.1570
     29 C         -10.4312  -17.9848   20.6319 C.ar    1  UNL1        0.0022
     30 C         -11.4568  -19.0244   20.9743 C.ar    1  UNL1       -0.0023
     31 C         -12.3780  -18.8141   22.1392 C.ar    1  UNL1       -0.0003
     32 C         -12.2736  -17.5640   22.9618 C.ar    1  UNL1       -0.0000
     33 C         -11.2479  -16.5244   22.6194 C.ar    1  UNL1       -0.0003
     34 C         -10.3267  -16.7348   21.4544 C.ar    1  UNL1       -0.0023
@<TRIPOS>BOND
     1    19    20    1
     2    20    21    2
     3    20    22    2
     4    20    13    1
     5    13    14   ar
     6    14    15   ar
     7    15    16   ar
     8    16     1    1
     9     1    23    1
    10    23    24   ar
    11    24    25   ar
    12    25    26   ar
    13    26    27   ar
    14    27    28    1
    15    28    29    1
    16    29    30   ar
    17    30    31   ar
    18    31    32   ar
    19    32    33   ar
    20    33    34   ar
    21     1     2    1
    22     2     3    1
    23     3     4    1
    24     4     5    1
    25     5     6    1
    26     6     9    1
    27     9    10    1
    28    10    11    1
    29    11    12    1
    30     6     7    1
    31     7     8    1
    32    16    17   ar
    33    17    18   ar
    34    18    13   ar
    35    27    23   ar
    36    34    29   ar
    37     8     2    1
    38    12     9    1
@<TRIPOS>MOLECULE
*****
 34 38 0 0 0
SMALL
GASTEIGER

@<TRIPOS>ATOM
      1 C           6.6812   -1.5476   28.8809 C.3     1  UNL1        0.1412
      2 N           5.2555   -1.1785   29.1660 N.3     1  UNL1       -0.2630
      3 C           4.8520   -1.2082   30.6104 C.3     1  UNL1        0.0742
      4 C           3.5151   -0.8953   31.2146 C.3     1  UNL1        0.0347
      5 C           2.2518   -0.4754   30.5236 C.3     1  UNL1        0.0735
      6 N           2.0131   -0.2647   29.0577 N.3     1  UNL1       -0.2727
      7 C           2.9790   -0.4219   27.9209 C.3     1  UNL1        0.0896
      8 C           4.4220   -0.8286   27.9691 C.3     1  UNL1        0.0902
      9 C           0.6252    0.1592   28.6786 C.3     1  UNL1        0.0575
     10 C          -0.7569   -0.2062   29.1331 C.3     1  UNL1        0.0160
     11 C          -1.3378    0.7587   28.1425 C.3     1  UNL1        0.0028
     12 C           0.0441    1.1242   27.6880 C.3     1  UNL1        0.0160
     13 C           7.6112   -5.1955   26.4157 C.ar    1  UNL1        0.1057
     14 C           8.3964   -3.9336   26.2135 C.ar    1  UNL1        0.0181
     15 C           8.0864   -2.7175   27.0352 C.ar    1  UNL1       -0.0012
     16 C           6.9912   -2.7635   28.0592 C.ar    1  UNL1       -0.0004
     17 C           6.2060   -4.0256   28.2613 C.ar    1  UNL1       -0.0012
     18 C           6.5160   -5.2415   27.4396 C.ar    1  UNL1        0.0181
     19 C           8.2313   -7.6275   24.7722 C.3     1  UNL1        0.1816
     20 S           7.9213   -6.4115   25.5939 S.O2    1  UNL1        0.0104
     21 O           8.0243   -7.2312   26.8459 O.2     1  UNL1       -0.1686
     22 O           7.8183   -5.5917   24.3420 O.2     1  UNL1       -0.1686
     23 C           7.7968   -0.7006   29.4176 C.ar    1  UNL1        0.1798
     24 N           8.4167    0.4799   28.7305 N.ar    1  UNL1       -0.1110
     25 N           9.4914    1.0246   29.6239 N.ar    1  UNL1       -0.0229
     26 N           9.5357    0.1808   30.8633 N.ar    1  UNL1       -0.0428
     27 N           8.4884   -0.8855   30.7358 N.ar    1  UNL1       -0.2108
     28 C           8.1858   -1.9497   31.7486 C.3     1  UNL1        0.1570
     29 C           8.2195   -3.3955   31.3503 C.ar    1  UNL1        0.0022
     30 C           7.0946   -4.3075   31.7412 C.ar    1  UNL1       -0.0023
     31 C           7.1282   -5.7532   31.3429 C.ar    1  UNL1       -0.0003
     32 C           8.2867   -6.2869   30.5536 C.ar    1  UNL1       -0.0000
     33 C           9.4116   -5.3749   30.1626 C.ar    1  UNL1       -0.0003
     34 C           9.3780   -3.9291   30.5610 C.ar    1  UNL1       -0.0023
@<TRIPOS>BOND
     1    19    20    1
     2    20    21    2
     3    20    22    2
     4    20    13    1
     5    13    14   ar
     6    14    15   ar
     7    15    16   ar
     8    16     1    1
     9     1    23    1
    10    23    24   ar
    11    24    25   ar
    12    25    26   ar
    13    26    27   ar
    14    27    28    1
    15    28    29    1
    16    29    30   ar
    17    30    31   ar
    18    31    32   ar
    19    32    33   ar
    20    33    34   ar
    21     1     2    1
    22     2     3    1
    23     3     4    1
    24     4     5    1
    25     5     6    1
    26     6     9    1
    27     9    10    1
    28    10    11    1
    29    11    12    1
    30     6     7    1
    31     7     8    1
    32    16    17   ar
    33    17    18   ar
    34    18    13   ar
    35    27    23   ar
    36    34    29   ar
    37     8     2    1
    38    12     9    1
@<TRIPOS>MOLECULE
*****
 34 38 0 0 0
SMALL
GASTEIGER

@<TRIPOS>ATOM
      1 C           4.1145    0.2767   22.5389 C.3     1  UNL1        0.1412
      2 N           3.0733    0.7275   23.5200 N.3     1  UNL1       -0.2630
      3 C           3.3561    0.4135   24.9593 C.3     1  UNL1        0.0742
      4 C           2.5224    0.7273   26.1663 C.3     1  UNL1        0.0347
      5 C           1.2002    1.4324   26.2320 C.3     1  UNL1        0.0735
      6 N           0.3849    1.9980   25.1071 N.3     1  UNL1       -0.2727
      7 C           0.6906    1.9981   23.6385 C.3     1  UNL1        0.0896
      8 C           1.8871    1.4327   22.9323 C.3     1  UNL1        0.0902
      9 C          -0.9068    2.6496   25.5030 C.3     1  UNL1        0.0575
     10 C          -1.6426    2.8475   26.7951 C.3     1  UNL1        0.0160
     11 C          -2.7336    3.5711   26.0630 C.3     1  UNL1        0.0028
     12 C          -1.9979    3.3732   24.7709 C.3     1  UNL1        0.0160
     13 C           6.4828   -3.4665   23.3322 C.ar    1  UNL1        0.1057
     14 C           5.0023   -3.5495   23.1062 C.ar    1  UNL1        0.0181
     15 C           4.2128   -2.3018   22.8418 C.ar    1  UNL1       -0.0012
     16 C           4.9039   -0.9711   22.8033 C.ar    1  UNL1       -0.0004
     17 C           6.3845   -0.8881   23.0294 C.ar    1  UNL1       -0.0012
     18 C           7.1739   -2.1358   23.2938 C.ar    1  UNL1        0.0181
     19 C           8.0616   -5.9620   23.8611 C.3     1  UNL1        0.1816
     20 S           7.2722   -4.7143   23.5967 S.O2    1  UNL1        0.0104
     21 O           7.5210   -4.8686   22.1255 O.2     1  UNL1       -0.1686
     22 O           7.0234   -4.5600   25.0678 O.2     1  UNL1       -0.1686
     23 C           4.3663    1.0736   21.2933 C.ar    1  UNL1        0.1798
     24 N           5.0979    2.3808   21.2158 N.ar    1  UNL1       -0.1110
     25 N           5.1144    2.8184   19.7811 N.ar    1  UNL1       -0.0229
     26 N           4.3930    1.7816   18.9720 N.ar    1  UNL1       -0.0428
     27 N           3.9306    0.7033   19.9065 N.ar    1  UNL1       -0.2108
     28 C           3.1668   -0.5290   19.5219 C.3     1  UNL1        0.1570
     29 C           3.8736   -1.8481   19.4195 C.ar    1  UNL1        0.0022
     30 C           5.3727   -1.8967   19.4059 C.ar    1  UNL1       -0.0023
     31 C           6.0795   -3.2157   19.3035 C.ar    1  UNL1       -0.0003
     32 C           5.2871   -4.4863   19.2148 C.ar    1  UNL1       -0.0000
     33 C           3.7880   -4.4377   19.2284 C.ar    1  UNL1       -0.0003
     34 C           3.0812   -3.1186   19.3308 C.ar    1  UNL1       -0.0023
@<TRIPOS>BOND
     1    19    20    1
     2    20    21    2
     3    20    22    2
     4    20    13    1
     5    13    14   ar
     6    14    15   ar
     7    15    16   ar
     8    16     1    1
     9     1    23    1
    10    23    24   ar
    11    24    25   ar
    12    25    26   ar
    13    26    27   ar
    14    27    28    1
    15    28    29    1
    16    29    30   ar
    17    30    31   ar
    18    31    32   ar
    19    32    33   ar
    20    33    34   ar
    21     1     2    1
    22     2     3    1
    23     3     4    1
    24     4     5    1
    25     5     6    1
    26     6     9    1
    27     9    10    1
    28    10    11    1
    29    11    12    1
    30     6     7    1
    31     7     8    1
    32    16    17   ar
    33    17    18   ar
    34    18    13   ar
    35    27    23   ar
    36    34    29   ar
    37     8     2    1
    38    12     9    1
@<TRIPOS>MOLECULE
*****
 34 38 0 0 0
SMALL
GASTEIGER

@<TRIPOS>ATOM
      1 C           4.1133    1.1518   22.4090 C.3     1  UNL1        0.1412
      2 N           3.0381    1.3386   23.4381 N.3     1  UNL1       -0.2630
      3 C           1.8484    2.1395   22.9983 C.3     1  UNL1        0.0742
      4 C           0.6214    2.4994   23.7827 C.3     1  UNL1        0.0347
      5 C           0.2812    2.1474   25.2004 C.3     1  UNL1        0.0735
      6 N           1.0838    1.3485   26.1842 N.3     1  UNL1       -0.2727
      7 C           2.4249    0.7043   25.9930 C.3     1  UNL1        0.0896
      8 C           3.2946    0.7000   24.7708 C.3     1  UNL1        0.0902
      9 C           0.4633    1.1702   27.5381 C.3     1  UNL1        0.0575
     10 C           0.9693    1.2054   28.9498 C.3     1  UNL1        0.0160
     11 C          -0.4143    0.9180   29.4529 C.3     1  UNL1        0.0028
     12 C          -0.9204    0.8828   28.0412 C.3     1  UNL1        0.0160
     13 C           4.4889   -2.7694   20.2336 C.ar    1  UNL1        0.1057
     14 C           5.7208   -2.0216   20.6498 C.ar    1  UNL1        0.0181
     15 C           5.5956   -0.7145   21.3750 C.ar    1  UNL1       -0.0012
     16 C           4.2385   -0.1552   21.6839 C.ar    1  UNL1       -0.0004
     17 C           3.0066   -0.9031   21.2676 C.ar    1  UNL1       -0.0012
     18 C           3.1318   -2.2101   20.5425 C.ar    1  UNL1        0.0181
     19 C           4.7394   -5.3836   18.7833 C.3     1  UNL1        0.1816
     20 S           4.6142   -4.0765   19.5085 S.O2    1  UNL1        0.0104
     21 O           3.2641   -3.8630   18.8906 O.2     1  UNL1       -0.1686
     22 O           5.9642   -4.2900   20.1264 O.2     1  UNL1       -0.1686
     23 C           5.0632    2.2722   22.1051 C.ar    1  UNL1        0.1798
     24 N           6.1761    2.7493   22.9906 N.ar    1  UNL1       -0.1110
     25 N           6.8678    3.8841   22.2951 N.ar    1  UNL1       -0.0229
     26 N           6.1824    4.1084   20.9798 N.ar    1  UNL1       -0.0428
     27 N           5.0671    3.1123   20.8624 N.ar    1  UNL1       -0.2108
     28 C           4.1217    2.9794   19.7055 C.3     1  UNL1        0.1570
     29 C           4.1851    1.7702   18.8201 C.ar    1  UNL1        0.0022
     30 C           2.9231    1.0602   18.4288 C.ar    1  UNL1       -0.0023
     31 C           2.9865   -0.1490   17.5435 C.ar    1  UNL1       -0.0003
     32 C           4.3120   -0.6482   17.0495 C.ar    1  UNL1       -0.0000
     33 C           5.5740    0.0618   17.4408 C.ar    1  UNL1       -0.0003
     34 C           5.5106    1.2711   18.3262 C.ar    1  UNL1       -0.0023
@<TRIPOS>BOND
     1    19    20    1
     2    20    21    2
     3    20    22    2
     4    20    13    1
     5    13    14   ar
     6    14    15   ar
     7    15    16   ar
     8    16     1    1
     9     1    23    1
    10    23    24   ar
    11    24    25   ar
    12    25    26   ar
    13    26    27   ar
    14    27    28    1
    15    28    29    1
    16    29    30   ar
    17    30    31   ar
    18    31    32   ar
    19    32    33   ar
    20    33    34   ar
    21     1     2    1
    22     2     3    1
    23     3     4    1
    24     4     5    1
    25     5     6    1
    26     6     9    1
    27     9    10    1
    28    10    11    1
    29    11    12    1
    30     6     7    1
    31     7     8    1
    32    16    17   ar
    33    17    18   ar
    34    18    13   ar
    35    27    23   ar
    36    34    29   ar
    37     8     2    1
    38    12     9    1
@<TRIPOS>MOLECULE
*****
 34 38 0 0 0
SMALL
GASTEIGER

@<TRIPOS>ATOM
      1 C           3.4070    1.0407   30.4465 C.3     1  UNL1        0.1412
      2 N           2.1783    1.1377   29.5916 N.3     1  UNL1       -0.2630
      3 C           1.2996   -0.0779   29.5748 C.3     1  UNL1        0.0742
      4 C           0.0163   -0.2940   28.8287 C.3     1  UNL1        0.0347
      5 C          -0.7051    0.6521   27.9153 C.3     1  UNL1        0.0735
      6 N          -0.3216    2.0479   27.5223 N.3     1  UNL1       -0.2727
      7 C           0.8782    2.8424   27.9456 C.3     1  UNL1        0.0896
      8 C           1.9908    2.4373   28.8666 C.3     1  UNL1        0.0902
      9 C          -1.2621    2.7409   26.5815 C.3     1  UNL1        0.0575
     10 C          -1.4092    2.8131   25.0904 C.3     1  UNL1        0.0160
     11 C          -2.5924    3.7209   25.2510 C.3     1  UNL1        0.0028
     12 C          -2.4454    3.6488   26.7421 C.3     1  UNL1        0.0160
     13 C           3.4327    2.8569   34.5636 C.ar    1  UNL1        0.1057
     14 C           2.1864    2.2091   34.0375 C.ar    1  UNL1        0.0181
     15 C           2.1777    1.6036   32.6650 C.ar    1  UNL1       -0.0012
     16 C           3.4155    1.6461   31.8189 C.ar    1  UNL1       -0.0004
     17 C           4.6620    2.2939   32.3451 C.ar    1  UNL1       -0.0012
     18 C           4.6705    2.8993   33.7174 C.ar    1  UNL1        0.0181
     19 C           3.4499    4.0677   37.3084 C.3     1  UNL1        0.1816
     20 S           3.4412    3.4623   35.9361 S.O2    1  UNL1        0.0104
     21 O           4.7241    4.1706   35.6155 O.2     1  UNL1       -0.1686
     22 O           2.1585    2.7540   36.2565 O.2     1  UNL1       -0.1686
     23 C           4.6272    0.3383   29.9290 C.ar    1  UNL1        0.1798
     24 N           5.4086    0.7145   28.7051 N.ar    1  UNL1       -0.1110
     25 N           6.5445   -0.2549   28.5642 N.ar    1  UNL1       -0.0229
     26 N           6.4651   -1.2303   29.7010 N.ar    1  UNL1       -0.0428
     27 N           5.2802   -0.8637   30.5445 N.ar    1  UNL1       -0.2108
     28 C           4.8277   -1.5742   31.7856 C.3     1  UNL1        0.1570
     29 C           5.2835   -1.0958   33.1322 C.ar    1  UNL1        0.0022
     30 C           6.7127   -0.6905   33.3399 C.ar    1  UNL1       -0.0023
     31 C           7.1686   -0.2121   34.6864 C.ar    1  UNL1       -0.0003
     32 C           6.1952   -0.1389   35.8254 C.ar    1  UNL1       -0.0000
     33 C           4.7660   -0.5441   35.6177 C.ar    1  UNL1       -0.0003
     34 C           4.3101   -1.0226   34.2711 C.ar    1  UNL1       -0.0023
@<TRIPOS>BOND
     1    19    20    1
     2    20    21    2
     3    20    22    2
     4    20    13    1
     5    13    14   ar
     6    14    15   ar
     7    15    16   ar
     8    16     1    1
     9     1    23    1
    10    23    24   ar
    11    24    25   ar
    12    25    26   ar
    13    26    27   ar
    14    27    28    1
    15    28    29    1
    16    29    30   ar
    17    30    31   ar
    18    31    32   ar
    19    32    33   ar
    20    33    34   ar
    21     1     2    1
    22     2     3    1
    23     3     4    1
    24     4     5    1
    25     5     6    1
    26     6     9    1
    27     9    10    1
    28    10    11    1
    29    11    12    1
    30     6     7    1
    31     7     8    1
    32    16    17   ar
    33    17    18   ar
    34    18    13   ar
    35    27    23   ar
    36    34    29   ar
    37     8     2    1
    38    12     9    1
@<TRIPOS>MOLECULE
*****
 34 38 0 0 0
SMALL
GASTEIGER

@<TRIPOS>ATOM
      1 C           1.4138    1.2978   22.1137 C.3     1  UNL1        0.1412
      2 N           1.5210    1.6330   23.5719 N.3     1  UNL1       -0.2630
      3 C           2.6204    2.5840   23.9419 C.3     1  UNL1        0.0742
      4 C           2.9850    3.1097   25.2988 C.3     1  UNL1        0.0347
      5 C           2.3403    2.8143   26.6204 C.3     1  UNL1        0.0735
      6 N           1.1716    1.9202   26.9119 N.3     1  UNL1       -0.2727
      7 C           0.3592    1.1007   25.9536 C.3     1  UNL1        0.0896
      8 C           0.5147    0.9729   24.4671 C.3     1  UNL1        0.0902
      9 C           0.7612    1.8342   28.3520 C.3     1  UNL1        0.0575
     10 C          -0.1034    0.9081   29.1551 C.3     1  UNL1        0.0160
     11 C           0.1808    1.7126   30.3888 C.3     1  UNL1        0.0028
     12 C           1.0454    2.6388   29.5858 C.3     1  UNL1        0.0160
     13 C           3.5871   -2.2795   20.4616 C.ar    1  UNL1        0.1057
     14 C           2.4103   -1.7110   19.7255 C.ar    1  UNL1        0.0181
     15 C           1.6858   -0.5185   20.2761 C.ar    1  UNL1       -0.0012
     16 C           2.1382    0.1054   21.5630 C.ar    1  UNL1       -0.0004
     17 C           3.3150   -0.4631   22.2992 C.ar    1  UNL1       -0.0012
     18 C           4.0394   -1.6555   21.7485 C.ar    1  UNL1        0.0181
     19 C           5.0359   -4.6644   19.3602 C.3     1  UNL1        0.1816
     20 S           4.3115   -3.4719   19.9108 S.O2    1  UNL1        0.0104
     21 O           4.2867   -4.1131   21.2667 O.2     1  UNL1       -0.1686
     22 O           4.3362   -2.8307   18.5551 O.2     1  UNL1       -0.1686
     23 C           0.5822    2.1552   21.2064 C.ar    1  UNL1        0.1798
     24 N          -0.9099    2.0984   21.0626 N.ar    1  UNL1       -0.1110
     25 N          -1.3176    3.1280   20.0509 N.ar    1  UNL1       -0.0229
     26 N          -0.0775    3.8211   19.5693 N.ar    1  UNL1       -0.0428
     27 N           1.0966    3.2199   20.2834 N.ar    1  UNL1       -0.2108
     28 C           2.5329    3.6141   20.1058 C.3     1  UNL1        0.1570
     29 C           3.5348    2.6037   19.6312 C.ar    1  UNL1        0.0022
     30 C           3.3079    1.8707   18.3423 C.ar    1  UNL1       -0.0023
     31 C           4.3097    0.8603   17.8677 C.ar    1  UNL1       -0.0003
     32 C           5.5386    0.5829   18.6820 C.ar    1  UNL1       -0.0000
     33 C           5.7655    1.3159   19.9708 C.ar    1  UNL1       -0.0003
     34 C           4.7636    2.3263   20.4455 C.ar    1  UNL1       -0.0023
@<TRIPOS>BOND
     1    19    20    1
     2    20    21    2
     3    20    22    2
     4    20    13    1
     5    13    14   ar
     6    14    15   ar
     7    15    16   ar
     8    16     1    1
     9     1    23    1
    10    23    24   ar
    11    24    25   ar
    12    25    26   ar
    13    26    27   ar
    14    27    28    1
    15    28    29    1
    16    29    30   ar
    17    30    31   ar
    18    31    32   ar
    19    32    33   ar
    20    33    34   ar
    21     1     2    1
    22     2     3    1
    23     3     4    1
    24     4     5    1
    25     5     6    1
    26     6     9    1
    27     9    10    1
    28    10    11    1
    29    11    12    1
    30     6     7    1
    31     7     8    1
    32    16    17   ar
    33    17    18   ar
    34    18    13   ar
    35    27    23   ar
    36    34    29   ar
    37     8     2    1
    38    12     9    1
