@<TRIPOS>MOLECULE
*****
 37 40 0 0 0
SMALL
GASTEIGER

@<TRIPOS>ATOM
      1 C           6.9011   -4.5062   29.6548 C.ar    1  UNL1        0.0067
      2 C           6.4173   -3.5203   28.6332 C.ar    1  UNL1        0.0156
      3 C           6.5823   -3.8130   27.1713 C.ar    1  UNL1        0.0673
      4 C           7.2311   -5.0918   26.7311 C.ar    1  UNL1        0.0295
      5 C           7.7149   -6.0777   27.7527 C.ar    1  UNL1        0.0315
      6 C           7.5499   -5.7849   29.2146 C.ar    1  UNL1        0.1362
      7 F           8.0337   -6.7710   30.2362 F       1  UNL1       -0.2045
      8 C           7.2565   -5.1063   25.2314 C.ar    1  UNL1        0.0875
      9 C           6.6234   -3.8365   24.7447 C.ar    1  UNL1        0.0939
     10 N           6.2067   -3.0372   25.9436 N.ar    1  UNL1       -0.2745
     11 C           6.4393   -3.4363   23.3108 C.ar    1  UNL1        0.0982
     12 C           5.1281   -3.6834   22.6256 C.ar    1  UNL1        0.0220
     13 C           4.9441   -3.2832   21.1917 C.ar    1  UNL1        0.0231
     14 C           6.0713   -2.6359   20.4431 C.ar    1  UNL1        0.1410
     15 C           7.3825   -2.3888   21.1284 C.ar    1  UNL1        0.1187
     16 N           7.5665   -2.7890   22.5622 N.ar    1  UNL1       -0.2409
     17 S           5.8873   -2.2356   19.0092 S.O2    1  UNL1        0.0619
     18 O           4.5683   -2.9496   18.9792 O.2     1  UNL1       -0.1529
     19 O           7.2061   -1.5218   19.0392 O.2     1  UNL1       -0.1529
     20 N           5.7032   -1.8354   17.5754 N.3     1  UNL1       -0.1723
     21 H           5.0625   -2.5121   17.1607 H       1  UNL1        0.1491
     22 C           5.1720   -0.4736   17.2391 C.3     1  UNL1        0.1701
     23 C           6.0869    0.5678   16.6658 C.3     1  UNL1        0.0278
     24 C           3.7260   -0.1530   17.4760 C.3     1  UNL1        0.4118
     25 F           2.2799    0.1675   17.7130 F       1  UNL1       -0.1685
     26 F           3.3391   -1.0671   16.3514 F       1  UNL1       -0.1685
     27 F           4.1129    0.7611   18.6006 F       1  UNL1       -0.1685
     28 C           5.5328   -1.6973   25.9193 C.ar    1  UNL1        0.2369
     29 N           6.2863   -0.4710   26.3417 N.ar    1  UNL1       -0.2095
     30 C           5.6124    0.8688   26.3173 C.ar    1  UNL1        0.1037
     31 C           4.1850    0.9824   25.8706 C.ar    1  UNL1        0.0415
     32 C           3.4315   -0.2439   25.4481 C.ar    1  UNL1        0.1037
     33 N           4.1054   -1.5838   25.4725 N.ar    1  UNL1       -0.2095
     34 C           7.8022   -3.4604   31.8557 C.3     1  UNL1        0.0051
     35 C           6.7361   -4.2134   31.1167 C.3     1  UNL1        0.0287
     36 C           7.8167   -6.1988   24.3696 C.1     1  UNL1        0.1020
     37 N           8.3769   -7.2913   23.5078 N.1     1  UNL1       -0.1908
@<TRIPOS>BOND
     1    34    35    1
     2    35     1    1
     3     1     2   ar
     4     2     3   ar
     5     3     4   ar
     6     4     5   ar
     7     5     6   ar
     8     6     7    1
     9     4     8   ar
    10     8    36    1
    11    36    37    3
    12     8     9   ar
    13     9    11    1
    14    11    12   ar
    15    12    13   ar
    16    13    14   ar
    17    14    17    1
    18    17    18    2
    19    17    19    2
    20    17    20    1
    21    20    22    1
    22    22    23    1
    23    22    24    1
    24    24    25    1
    25    24    26    1
    26    24    27    1
    27    14    15   ar
    28    15    16   ar
    29     9    10   ar
    30    10    28    1
    31    28    29   ar
    32    29    30   ar
    33    30    31   ar
    34    31    32   ar
    35    32    33   ar
    36     6     1   ar
    37    16    11   ar
    38    33    28   ar
    39    10     3   ar
    40    20    21    1
@<TRIPOS>MOLECULE
*****
 37 40 0 0 0
SMALL
GASTEIGER

@<TRIPOS>ATOM
      1 C           2.0852   -0.5616   20.5600 C.ar    1  UNL1        0.0067
      2 C           1.8442    0.1032   21.8828 C.ar    1  UNL1        0.0156
      3 C           2.6404   -0.3088   23.0854 C.ar    1  UNL1        0.0673
      4 C           3.6776   -1.3857   22.9651 C.ar    1  UNL1        0.0295
      5 C           3.9186   -2.0505   21.6423 C.ar    1  UNL1        0.0315
      6 C           3.1224   -1.6384   20.4397 C.ar    1  UNL1        0.1362
      7 F           3.3634   -2.3033   19.1168 F       1  UNL1       -0.2045
      8 C           4.3030   -1.5796   24.3147 C.ar    1  UNL1        0.0875
      9 C           3.6523   -0.6226   25.2690 C.ar    1  UNL1        0.0939
     10 N           2.6247    0.1628   24.5093 N.ar    1  UNL1       -0.2745
     11 C           3.9729   -0.4767   26.7271 C.ar    1  UNL1        0.0982
     12 C           2.9528   -0.8524   27.7606 C.ar    1  UNL1        0.0220
     13 C           3.2734   -0.7065   29.2186 C.ar    1  UNL1        0.0231
     14 C           4.6142   -0.1849   29.6431 C.ar    1  UNL1        0.1410
     15 C           5.6343    0.1908   28.6097 C.ar    1  UNL1        0.1187
     16 N           5.3137    0.0449   27.1517 N.ar    1  UNL1       -0.2409
     17 S           4.9348   -0.0389   31.1013 S.O2    1  UNL1        0.0619
     18 O           3.4893   -0.2528   31.4405 O.2     1  UNL1       -0.1529
     19 O           6.3802    0.1749   30.7620 O.2     1  UNL1       -0.1529
     20 N           5.2554    0.1070   32.5593 N.3     1  UNL1       -0.1723
     21 H           4.6284    0.8217   32.9286 H       1  UNL1        0.1491
     22 C           5.1477   -1.0776   33.4731 C.3     1  UNL1        0.1701
     23 C           4.6011   -0.9081   34.8596 C.3     1  UNL1        0.0278
     24 C           5.5867   -2.4318   33.0004 C.3     1  UNL1        0.4118
     25 F           6.0256   -3.7861   32.5278 F       1  UNL1       -0.1685
     26 F           4.1606   -2.8971   33.0092 F       1  UNL1       -0.1685
     27 F           7.0126   -1.9666   32.9917 F       1  UNL1       -0.1685
     28 C           1.7373    1.2321   25.0742 C.ar    1  UNL1        0.2369
     29 N           2.3382    2.4885   25.6313 N.ar    1  UNL1       -0.2095
     30 C           1.4508    3.5578   26.1962 C.ar    1  UNL1        0.1037
     31 C          -0.0374    3.3706   26.2040 C.ar    1  UNL1        0.0415
     32 C          -0.6383    2.1142   25.6469 C.ar    1  UNL1        0.1037
     33 N           0.2491    1.0449   25.0820 N.ar    1  UNL1       -0.2095
     34 C           1.9511    0.6025   18.2412 C.3     1  UNL1        0.0051
     35 C           1.2889   -0.1495   19.3574 C.3     1  UNL1        0.0287
     36 C           5.3886   -2.5587   24.6508 C.1     1  UNL1        0.1020
     37 N           6.4741   -3.5379   24.9870 N.1     1  UNL1       -0.1908
@<TRIPOS>BOND
     1    34    35    1
     2    35     1    1
     3     1     2   ar
     4     2     3   ar
     5     3     4   ar
     6     4     5   ar
     7     5     6   ar
     8     6     7    1
     9     4     8   ar
    10     8    36    1
    11    36    37    3
    12     8     9   ar
    13     9    11    1
    14    11    12   ar
    15    12    13   ar
    16    13    14   ar
    17    14    17    1
    18    17    18    2
    19    17    19    2
    20    17    20    1
    21    20    22    1
    22    22    23    1
    23    22    24    1
    24    24    25    1
    25    24    26    1
    26    24    27    1
    27    14    15   ar
    28    15    16   ar
    29     9    10   ar
    30    10    28    1
    31    28    29   ar
    32    29    30   ar
    33    30    31   ar
    34    31    32   ar
    35    32    33   ar
    36     6     1   ar
    37    16    11   ar
    38    33    28   ar
    39    10     3   ar
    40    20    21    1
@<TRIPOS>MOLECULE
*****
 37 40 0 0 0
SMALL
GASTEIGER

@<TRIPOS>ATOM
      1 C           6.6103   -3.5737   30.4702 C.ar    1  UNL1        0.0067
      2 C           6.8345   -4.1596   29.1077 C.ar    1  UNL1        0.0156
      3 C           6.4465   -3.3831   27.8843 C.ar    1  UNL1        0.0673
      4 C           5.8344   -2.0208   28.0235 C.ar    1  UNL1        0.0295
      5 C           5.6102   -1.4350   29.3860 C.ar    1  UNL1        0.0315
      6 C           5.9982   -2.2114   30.6094 C.ar    1  UNL1        0.1362
      7 F           5.7740   -1.6256   31.9719 F       1  UNL1       -0.2045
      8 C           5.5554   -1.4952   26.6466 C.ar    1  UNL1        0.0875
      9 C           5.9950   -2.5326   25.6564 C.ar    1  UNL1        0.0939
     10 N           6.5458   -3.6995   26.4214 N.ar    1  UNL1       -0.2745
     11 C           5.9005   -2.4225   24.1634 C.ar    1  UNL1        0.0982
     12 C           6.8699   -1.5590   23.4122 C.ar    1  UNL1        0.0220
     13 C           6.7753   -1.4489   21.9192 C.ar    1  UNL1        0.0231
     14 C           5.7113   -2.2024   21.1776 C.ar    1  UNL1        0.1410
     15 C           4.7419   -3.0660   21.9288 C.ar    1  UNL1        0.1187
     16 N           4.8365   -3.1761   23.4217 N.ar    1  UNL1       -0.2409
     17 S           5.6167   -2.0924   19.6845 S.O2    1  UNL1        0.0619
     18 O           6.9553   -1.4161   19.6496 O.2     1  UNL1       -0.1529
     19 O           4.2783   -2.7685   19.7195 O.2     1  UNL1       -0.1529
     20 N           5.5221   -1.9823   18.1916 N.3     1  UNL1       -0.1723
     21 H           4.8181   -2.6562   17.8907 H       1  UNL1        0.1491
     22 C           5.1651   -0.6707   17.5574 C.3     1  UNL1        0.1701
     23 C           6.2293    0.1614   16.9054 C.3     1  UNL1        0.0278
     24 C           3.7440   -0.1912   17.5751 C.3     1  UNL1        0.4118
     25 F           2.3227    0.2882   17.5928 F       1  UNL1       -0.1685
     26 F           3.4318   -1.0734   16.4027 F       1  UNL1       -0.1685
     27 F           4.0562    0.6909   18.7474 F       1  UNL1       -0.1685
     28 C           7.0988   -4.9611   25.8277 C.ar    1  UNL1        0.2369
     29 N           7.9499   -4.8992   24.5940 N.ar    1  UNL1       -0.2095
     30 C           8.5029   -6.1608   24.0003 C.ar    1  UNL1        0.1037
     31 C           8.2048   -7.4843   24.6402 C.ar    1  UNL1        0.0415
     32 C           7.3537   -7.5461   25.8738 C.ar    1  UNL1        0.1037
     33 N           6.8007   -6.2846   26.4676 N.ar    1  UNL1       -0.2095
     34 C           7.1437   -5.8413   31.6206 C.3     1  UNL1        0.0051
     35 C           6.9982   -4.3502   31.6935 C.3     1  UNL1        0.0287
     36 C           4.9440   -0.1655   26.3176 C.1     1  UNL1        0.1020
     37 N           4.3325    1.1642   25.9887 N.1     1  UNL1       -0.1908
@<TRIPOS>BOND
     1    34    35    1
     2    35     1    1
     3     1     2   ar
     4     2     3   ar
     5     3     4   ar
     6     4     5   ar
     7     5     6   ar
     8     6     7    1
     9     4     8   ar
    10     8    36    1
    11    36    37    3
    12     8     9   ar
    13     9    11    1
    14    11    12   ar
    15    12    13   ar
    16    13    14   ar
    17    14    17    1
    18    17    18    2
    19    17    19    2
    20    17    20    1
    21    20    22    1
    22    22    23    1
    23    22    24    1
    24    24    25    1
    25    24    26    1
    26    24    27    1
    27    14    15   ar
    28    15    16   ar
    29     9    10   ar
    30    10    28    1
    31    28    29   ar
    32    29    30   ar
    33    30    31   ar
    34    31    32   ar
    35    32    33   ar
    36     6     1   ar
    37    16    11   ar
    38    33    28   ar
    39    10     3   ar
    40    20    21    1
@<TRIPOS>MOLECULE
*****
 37 40 0 0 0
SMALL
GASTEIGER

@<TRIPOS>ATOM
      1 C           6.5266   -3.7530   31.0863 C.ar    1  UNL1        0.0067
      2 C           6.1779   -2.7315   30.0447 C.ar    1  UNL1        0.0156
      3 C           6.3469   -3.0558   28.5900 C.ar    1  UNL1        0.0673
      4 C           6.8646   -4.4016   28.1768 C.ar    1  UNL1        0.0295
      5 C           7.2134   -5.4231   29.2184 C.ar    1  UNL1        0.0315
      6 C           7.0444   -5.0988   30.6731 C.ar    1  UNL1        0.1362
      7 F           7.3931   -6.1204   31.7147 F       1  UNL1       -0.2045
      8 C           6.9259   -4.4346   26.6784 C.ar    1  UNL1        0.0875
      9 C           6.4460   -3.1092   26.1656 C.ar    1  UNL1        0.0939
     10 N           6.0882   -2.2570   27.3469 N.ar    1  UNL1       -0.2745
     11 C           6.3422   -2.7067   24.7242 C.ar    1  UNL1        0.0982
     12 C           5.2566   -3.2792   23.8620 C.ar    1  UNL1        0.0220
     13 C           5.1529   -2.8767   22.4207 C.ar    1  UNL1        0.0231
     14 C           6.1348   -1.9016   21.8418 C.ar    1  UNL1        0.1410
     15 C           7.2204   -1.3291   22.7041 C.ar    1  UNL1        0.1187
     16 N           7.3241   -1.7316   24.1453 N.ar    1  UNL1       -0.2409
     17 S           6.0310   -1.4991   20.4005 S.O2    1  UNL1        0.0619
     18 O           5.1619   -0.3392   20.7870 O.2     1  UNL1       -0.1529
     19 O           6.9001   -2.6590   20.0141 O.2     1  UNL1       -0.1529
     20 N           5.9273   -1.0966   18.9593 N.3     1  UNL1       -0.1723
     21 H           6.7349   -1.4978   18.4827 H       1  UNL1        0.1491
     22 C           4.7179   -1.4795   18.1588 C.3     1  UNL1        0.1701
     23 C           4.2873   -0.6321   16.9985 C.3     1  UNL1        0.0278
     24 C           3.9390   -2.7099   18.5187 C.3     1  UNL1        0.4118
     25 F           3.1600   -3.9402   18.8787 F       1  UNL1       -0.1685
     26 F           2.8990   -1.8571   19.1831 F       1  UNL1       -0.1685
     27 F           4.9789   -3.5626   17.8544 F       1  UNL1       -0.1685
     28 C           5.5637   -0.8527   27.2946 C.ar    1  UNL1        0.2369
     29 N           4.0855   -0.6020   27.3399 N.ar    1  UNL1       -0.2095
     30 C           3.5610    0.8023   27.2875 C.ar    1  UNL1        0.1037
     31 C           4.5147    1.9559   27.1898 C.ar    1  UNL1        0.0415
     32 C           5.9929    1.7052   27.1445 C.ar    1  UNL1        0.1037
     33 N           6.5174    0.3009   27.1969 N.ar    1  UNL1       -0.2095
     34 C           5.1279   -2.7101   33.0113 C.3     1  UNL1        0.0051
     35 C           6.3577   -3.4287   32.5410 C.3     1  UNL1        0.0287
     36 C           7.3862   -5.5902   25.8401 C.1     1  UNL1        0.1020
     37 N           7.8465   -6.7458   25.0018 N.1     1  UNL1       -0.1908
@<TRIPOS>BOND
     1    34    35    1
     2    35     1    1
     3     1     2   ar
     4     2     3   ar
     5     3     4   ar
     6     4     5   ar
     7     5     6   ar
     8     6     7    1
     9     4     8   ar
    10     8    36    1
    11    36    37    3
    12     8     9   ar
    13     9    11    1
    14    11    12   ar
    15    12    13   ar
    16    13    14   ar
    17    14    17    1
    18    17    18    2
    19    17    19    2
    20    17    20    1
    21    20    22    1
    22    22    23    1
    23    22    24    1
    24    24    25    1
    25    24    26    1
    26    24    27    1
    27    14    15   ar
    28    15    16   ar
    29     9    10   ar
    30    10    28    1
    31    28    29   ar
    32    29    30   ar
    33    30    31   ar
    34    31    32   ar
    35    32    33   ar
    36     6     1   ar
    37    16    11   ar
    38    33    28   ar
    39    10     3   ar
    40    20    21    1
@<TRIPOS>MOLECULE
*****
 37 40 0 0 0
SMALL
GASTEIGER

@<TRIPOS>ATOM
      1 C           2.4876   -0.5274   21.1708 C.ar    1  UNL1        0.0067
      2 C           2.0733    0.1502   22.4432 C.ar    1  UNL1        0.0156
      3 C           2.7386   -0.2132   23.7375 C.ar    1  UNL1        0.0673
      4 C           3.8183   -1.2543   23.7594 C.ar    1  UNL1        0.0295
      5 C           4.2326   -1.9319   22.4869 C.ar    1  UNL1        0.0315
      6 C           3.5673   -1.5684   21.1926 C.ar    1  UNL1        0.1362
      7 F           3.9816   -2.2461   19.9201 F       1  UNL1       -0.2045
      8 C           4.2897   -1.4034   25.1755 C.ar    1  UNL1        0.0875
      9 C           3.5014   -0.4545   26.0289 C.ar    1  UNL1        0.0939
     10 N           2.5428    0.2811   25.1402 N.ar    1  UNL1       -0.2745
     11 C           3.6464   -0.2732   27.5109 C.ar    1  UNL1        0.0982
     12 C           2.5632   -0.7471   28.4340 C.ar    1  UNL1        0.0220
     13 C           2.7082   -0.5658   29.9159 C.ar    1  UNL1        0.0231
     14 C           3.9363    0.0896   30.4746 C.ar    1  UNL1        0.1410
     15 C           5.0194    0.5636   29.5516 C.ar    1  UNL1        0.1187
     16 N           4.8745    0.3822   28.0697 N.ar    1  UNL1       -0.2409
     17 S           4.0813    0.2710   31.9566 S.O2    1  UNL1        0.0619
     18 O           5.5742    0.2327   31.8153 O.2     1  UNL1       -0.1529
     19 O           2.5885    0.3093   32.0979 O.2     1  UNL1       -0.1529
     20 N           4.2261    0.4524   33.4385 N.3     1  UNL1       -0.1723
     21 H           3.3134    0.7414   33.7904 H       1  UNL1        0.1491
     22 C           4.6767   -0.6944   34.2940 C.3     1  UNL1        0.1701
     23 C           4.3177   -2.1002   33.9136 C.3     1  UNL1        0.0278
     24 C           5.4864   -0.4354   35.5298 C.3     1  UNL1        0.4118
     25 F           6.2960   -0.1764   36.7658 F       1  UNL1       -0.1685
     26 F           4.2495   -0.5686   36.3680 F       1  UNL1       -0.1685
     27 F           6.7232   -0.3023   34.6917 F       1  UNL1       -0.1685
     28 C           1.5607    1.3272   25.5773 C.ar    1  UNL1        0.2369
     29 N           0.0888    1.0896   25.4128 N.ar    1  UNL1       -0.2095
     30 C          -0.8933    2.1357   25.8498 C.ar    1  UNL1        0.1037
     31 C          -0.4034    3.4195   26.4515 C.ar    1  UNL1        0.0415
     32 C           1.0685    3.6571   26.6161 C.ar    1  UNL1        0.1037
     33 N           2.0506    2.6110   26.1790 N.ar    1  UNL1       -0.2095
     34 C           0.4851    0.5157   19.8854 C.3     1  UNL1        0.0051
     35 C           1.8223   -0.1639   19.8764 C.3     1  UNL1        0.0287
     36 C           5.3613   -2.3375   25.6542 C.1     1  UNL1        0.1020
     37 N           6.4330   -3.2716   26.1329 N.1     1  UNL1       -0.1908
@<TRIPOS>BOND
     1    34    35    1
     2    35     1    1
     3     1     2   ar
     4     2     3   ar
     5     3     4   ar
     6     4     5   ar
     7     5     6   ar
     8     6     7    1
     9     4     8   ar
    10     8    36    1
    11    36    37    3
    12     8     9   ar
    13     9    11    1
    14    11    12   ar
    15    12    13   ar
    16    13    14   ar
    17    14    17    1
    18    17    18    2
    19    17    19    2
    20    17    20    1
    21    20    22    1
    22    22    23    1
    23    22    24    1
    24    24    25    1
    25    24    26    1
    26    24    27    1
    27    14    15   ar
    28    15    16   ar
    29     9    10   ar
    30    10    28    1
    31    28    29   ar
    32    29    30   ar
    33    30    31   ar
    34    31    32   ar
    35    32    33   ar
    36     6     1   ar
    37    16    11   ar
    38    33    28   ar
    39    10     3   ar
    40    20    21    1
@<TRIPOS>MOLECULE
*****
 37 40 0 0 0
SMALL
GASTEIGER

@<TRIPOS>ATOM
      1 C          -5.5479    4.8062   24.7498 C.ar    1  UNL1        0.0067
      2 C          -5.0356    4.5316   23.3670 C.ar    1  UNL1        0.0156
      3 C          -3.6465    3.9996   23.1737 C.ar    1  UNL1        0.0673
      4 C          -2.7697    3.7422   24.3632 C.ar    1  UNL1        0.0295
      5 C          -3.2820    4.0168   25.7460 C.ar    1  UNL1        0.0315
      6 C          -4.6711    4.5488   25.9392 C.ar    1  UNL1        0.1362
      7 F          -5.1834    4.8234   27.3221 F       1  UNL1       -0.2045
      8 C          -1.4547    3.2198   23.8653 C.ar    1  UNL1        0.0875
      9 C          -1.5188    3.1543   22.3681 C.ar    1  UNL1        0.0939
     10 N          -2.8734    3.6363   21.9406 N.ar    1  UNL1       -0.2745
     11 C          -0.4210    2.6886   21.4581 C.ar    1  UNL1        0.0982
     12 C           0.7775    3.5592   21.2221 C.ar    1  UNL1        0.0220
     13 C           1.8752    3.0935   20.3122 C.ar    1  UNL1        0.0231
     14 C           1.7745    1.7572   19.6383 C.ar    1  UNL1        0.1410
     15 C           0.5760    0.8866   19.8743 C.ar    1  UNL1        0.1187
     16 N          -0.5217    1.3524   20.7842 N.ar    1  UNL1       -0.2409
     17 S           2.8723    1.2915   18.7283 S.O2    1  UNL1        0.0619
     18 O           3.8556    2.1375   19.4817 O.2     1  UNL1       -0.1529
     19 O           1.8890    0.4456   17.9750 O.2     1  UNL1       -0.1529
     20 N           3.9701    0.8258   17.8184 N.3     1  UNL1       -0.1723
     21 H           4.5827    1.6263   17.6623 H       1  UNL1        0.1491
     22 C           4.8489   -0.3186   18.2280 C.3     1  UNL1        0.1701
     23 C           6.1993   -0.4902   17.5979 C.3     1  UNL1        0.0278
     24 C           4.3774   -1.2916   19.2676 C.3     1  UNL1        0.4118
     25 F           3.9058   -2.2646   20.3073 F       1  UNL1       -0.1685
     26 F           3.6406   -2.0621   18.2124 F       1  UNL1       -0.1685
     27 F           5.1142   -0.5211   20.3228 F       1  UNL1       -0.1685
     28 C          -3.3681    3.7372   20.5282 C.ar    1  UNL1        0.2369
     29 N          -4.7705    3.3232   20.1933 N.ar    1  UNL1       -0.2095
     30 C          -5.2652    3.4241   18.7809 C.ar    1  UNL1        0.1037
     31 C          -4.3576    3.9389   17.7033 C.ar    1  UNL1        0.0415
     32 C          -2.9553    4.3529   18.0382 C.ar    1  UNL1        0.1037
     33 N          -2.4605    4.2520   19.4506 N.ar    1  UNL1       -0.2095
     34 C          -8.0216    4.9732   23.9733 C.3     1  UNL1        0.0051
     35 C          -6.9371    5.3382   24.9431 C.3     1  UNL1        0.0287
     36 C          -0.2816    2.8311   24.7154 C.1     1  UNL1        0.1020
     37 N           0.8915    2.4424   25.5656 N.1     1  UNL1       -0.1908
@<TRIPOS>BOND
     1    34    35    1
     2    35     1    1
     3     1     2   ar
     4     2     3   ar
     5     3     4   ar
     6     4     5   ar
     7     5     6   ar
     8     6     7    1
     9     4     8   ar
    10     8    36    1
    11    36    37    3
    12     8     9   ar
    13     9    11    1
    14    11    12   ar
    15    12    13   ar
    16    13    14   ar
    17    14    17    1
    18    17    18    2
    19    17    19    2
    20    17    20    1
    21    20    22    1
    22    22    23    1
    23    22    24    1
    24    24    25    1
    25    24    26    1
    26    24    27    1
    27    14    15   ar
    28    15    16   ar
    29     9    10   ar
    30    10    28    1
    31    28    29   ar
    32    29    30   ar
    33    30    31   ar
    34    31    32   ar
    35    32    33   ar
    36     6     1   ar
    37    16    11   ar
    38    33    28   ar
    39    10     3   ar
    40    20    21    1
@<TRIPOS>MOLECULE
*****
 37 40 0 0 0
SMALL
GASTEIGER

@<TRIPOS>ATOM
      1 C           4.3076   -2.7422   20.1530 C.ar    1  UNL1        0.0067
      2 C           5.0819   -3.0105   21.4093 C.ar    1  UNL1        0.0156
      3 C           4.7255   -2.2932   22.6776 C.ar    1  UNL1        0.0673
      4 C           3.5948   -1.3077   22.6895 C.ar    1  UNL1        0.0295
      5 C           2.8205   -1.0394   21.4332 C.ar    1  UNL1        0.0315
      6 C           3.1769   -1.7567   20.1649 C.ar    1  UNL1        0.1362
      7 F           2.4025   -1.4884   18.9085 F       1  UNL1       -0.2045
      8 C           3.4749   -0.7567   24.0795 C.ar    1  UNL1        0.0875
      9 C           4.5315   -1.4016   24.9266 C.ar    1  UNL1        0.0939
     10 N           5.3044   -2.3513   24.0602 N.ar    1  UNL1       -0.2745
     11 C           4.7727   -1.1424   26.3842 C.ar    1  UNL1        0.0982
     12 C           3.6407   -1.2495   27.3625 C.ar    1  UNL1        0.0220
     13 C           3.8820   -0.9903   28.8200 C.ar    1  UNL1        0.0231
     14 C           5.2554   -0.6239   29.2993 C.ar    1  UNL1        0.1410
     15 C           6.3874   -0.5168   28.3211 C.ar    1  UNL1        0.1187
     16 N           6.1461   -0.7760   26.8636 N.ar    1  UNL1       -0.2409
     17 S           5.4966   -0.3647   30.7570 S.O2    1  UNL1        0.0619
     18 O           4.0223   -0.4581   31.0176 O.2     1  UNL1       -0.1529
     19 O           6.9708   -0.2713   30.4963 O.2     1  UNL1       -0.1529
     20 N           5.7379   -0.1054   32.2146 N.3     1  UNL1       -0.1723
     21 H           5.1671    0.7008   32.4687 H       1  UNL1        0.1491
     22 C           5.4491   -1.1761   33.2246 C.3     1  UNL1        0.1701
     23 C           4.8119   -0.8190   34.5347 C.3     1  UNL1        0.0278
     24 C           5.7974   -2.6039   32.9246 C.3     1  UNL1        0.4118
     25 F           6.1458   -4.0317   32.6245 F       1  UNL1       -0.1685
     26 F           7.2559   -2.2547   32.9563 F       1  UNL1       -0.1685
     27 F           4.3390   -2.9530   32.8929 F       1  UNL1       -0.1685
     28 C           6.4544   -3.2085   24.4993 C.ar    1  UNL1        0.2369
     29 N           6.2578   -4.2321   25.5780 N.ar    1  UNL1       -0.2095
     30 C           7.4076   -5.0893   26.0171 C.ar    1  UNL1        0.1037
     31 C           8.7542   -4.9230   25.3774 C.ar    1  UNL1        0.0415
     32 C           8.9508   -3.8994   24.2987 C.ar    1  UNL1        0.1037
     33 N           7.8009   -3.0421   23.8596 N.ar    1  UNL1       -0.2095
     34 C           4.5348   -4.9518   18.8053 C.3     1  UNL1        0.0051
     35 C           4.6640   -3.4595   18.8847 C.3     1  UNL1        0.0287
     36 C           2.4740    0.2607   24.5412 C.1     1  UNL1        0.1020
     37 N           1.4732    1.2782   25.0030 N.1     1  UNL1       -0.1908
@<TRIPOS>BOND
     1    34    35    1
     2    35     1    1
     3     1     2   ar
     4     2     3   ar
     5     3     4   ar
     6     4     5   ar
     7     5     6   ar
     8     6     7    1
     9     4     8   ar
    10     8    36    1
    11    36    37    3
    12     8     9   ar
    13     9    11    1
    14    11    12   ar
    15    12    13   ar
    16    13    14   ar
    17    14    17    1
    18    17    18    2
    19    17    19    2
    20    17    20    1
    21    20    22    1
    22    22    23    1
    23    22    24    1
    24    24    25    1
    25    24    26    1
    26    24    27    1
    27    14    15   ar
    28    15    16   ar
    29     9    10   ar
    30    10    28    1
    31    28    29   ar
    32    29    30   ar
    33    30    31   ar
    34    31    32   ar
    35    32    33   ar
    36     6     1   ar
    37    16    11   ar
    38    33    28   ar
    39    10     3   ar
    40    20    21    1
@<TRIPOS>MOLECULE
*****
 37 40 0 0 0
SMALL
GASTEIGER

@<TRIPOS>ATOM
      1 C           2.5293   -0.4840   21.0617 C.ar    1  UNL1        0.0067
      2 C           3.0822   -0.5388   22.4550 C.ar    1  UNL1        0.0156
      3 C           2.3642    0.1548   23.5746 C.ar    1  UNL1        0.0673
      4 C           1.0934    0.9031   23.3009 C.ar    1  UNL1        0.0295
      5 C           0.5405    0.9579   21.9076 C.ar    1  UNL1        0.0315
      6 C           1.2584    0.2643   20.7880 C.ar    1  UNL1        0.1362
      7 F           0.7055    0.3191   19.3947 F       1  UNL1       -0.2045
      8 C           0.6101    1.4851   24.5961 C.ar    1  UNL1        0.0875
      9 C           1.5823    1.0965   25.6704 C.ar    1  UNL1        0.0939
     10 N           2.6664    0.2743   25.0390 N.ar    1  UNL1       -0.2745
     11 C           1.4870    1.4653   27.1212 C.ar    1  UNL1        0.0982
     12 C           2.0961    2.7455   27.6112 C.ar    1  UNL1        0.0220
     13 C           2.0008    3.1143   29.0620 C.ar    1  UNL1        0.0231
     14 C           1.2963    2.2029   30.0228 C.ar    1  UNL1        0.1410
     15 C           0.6872    0.9227   29.5328 C.ar    1  UNL1        0.1187
     16 N           0.7825    0.5539   28.0820 N.ar    1  UNL1       -0.2409
     17 S           1.2010    2.5717   31.4737 S.O2    1  UNL1        0.0619
     18 O           2.3331    3.5408   31.3017 O.2     1  UNL1       -0.1529
     19 O           0.0690    1.6028   31.6456 O.2     1  UNL1       -0.1529
     20 N           1.1057    2.9405   32.9245 N.3     1  UNL1       -0.1723
     21 H           2.0262    2.7748   33.3315 H       1  UNL1        0.1491
     22 C           0.7010    4.3296   33.3202 C.3     1  UNL1        0.1701
     23 C          -0.4946    4.9729   32.6825 C.3     1  UNL1        0.0278
     24 C           1.4919    5.0755   34.3537 C.3     1  UNL1        0.4118
     25 F           2.2828    5.8214   35.3873 F       1  UNL1       -0.1685
     26 F           1.5230    3.8482   35.2156 F       1  UNL1       -0.1685
     27 F           1.4607    6.3028   33.4918 F       1  UNL1       -0.1685
     28 C           3.8456   -0.3235   25.7476 C.ar    1  UNL1        0.2369
     29 N           5.2371    0.0840   25.3633 N.ar    1  UNL1       -0.2095
     30 C           6.4164   -0.5137   26.0718 C.ar    1  UNL1        0.1037
     31 C           6.2041   -1.5189   27.1647 C.ar    1  UNL1        0.0415
     32 C           4.8126   -1.9264   27.5490 C.ar    1  UNL1        0.1037
     33 N           3.6334   -1.3287   26.8405 N.ar    1  UNL1       -0.2095
     34 C           3.6309   -2.6213   20.0776 C.3     1  UNL1        0.0051
     35 C           3.2472   -1.1776   19.9421 C.3     1  UNL1        0.0287
     36 C          -0.6280    2.3108   24.7842 C.1     1  UNL1        0.1020
     37 N          -1.8661    3.1365   24.9721 N.1     1  UNL1       -0.1908
@<TRIPOS>BOND
     1    34    35    1
     2    35     1    1
     3     1     2   ar
     4     2     3   ar
     5     3     4   ar
     6     4     5   ar
     7     5     6   ar
     8     6     7    1
     9     4     8   ar
    10     8    36    1
    11    36    37    3
    12     8     9   ar
    13     9    11    1
    14    11    12   ar
    15    12    13   ar
    16    13    14   ar
    17    14    17    1
    18    17    18    2
    19    17    19    2
    20    17    20    1
    21    20    22    1
    22    22    23    1
    23    22    24    1
    24    24    25    1
    25    24    26    1
    26    24    27    1
    27    14    15   ar
    28    15    16   ar
    29     9    10   ar
    30    10    28    1
    31    28    29   ar
    32    29    30   ar
    33    30    31   ar
    34    31    32   ar
    35    32    33   ar
    36     6     1   ar
    37    16    11   ar
    38    33    28   ar
    39    10     3   ar
    40    20    21    1
@<TRIPOS>MOLECULE
*****
 37 40 0 0 0
SMALL
GASTEIGER

@<TRIPOS>ATOM
      1 C           2.7397   -0.6008   21.4394 C.ar    1  UNL1        0.0067
      2 C           2.0946    0.1915   22.5376 C.ar    1  UNL1        0.0156
      3 C           2.5339   -0.0011   23.9589 C.ar    1  UNL1        0.0673
      4 C           3.6182   -0.9859   24.2819 C.ar    1  UNL1        0.0295
      5 C           4.2632   -1.7782   23.1837 C.ar    1  UNL1        0.0315
      6 C           3.8240   -1.5857   21.7624 C.ar    1  UNL1        0.1362
      7 F           4.4691   -2.3780   20.6642 F       1  UNL1       -0.2045
      8 C           3.8402   -0.9609   25.7652 C.ar    1  UNL1        0.0875
      9 C           2.8931    0.0394   26.3589 C.ar    1  UNL1        0.0939
     10 N           2.0857    0.6326   25.2425 N.ar    1  UNL1       -0.2745
     11 C           2.7743    0.3857   27.8136 C.ar    1  UNL1        0.0982
     12 C           3.2821    1.7052   28.3143 C.ar    1  UNL1        0.0220
     13 C           3.1632    2.0514   29.7689 C.ar    1  UNL1        0.0231
     14 C           2.5366    1.0781   30.7228 C.ar    1  UNL1        0.1410
     15 C           2.0288   -0.2415   30.2221 C.ar    1  UNL1        0.1187
     16 N           2.1476   -0.5877   28.7674 N.ar    1  UNL1       -0.2409
     17 S           2.4178    1.4243   32.1775 S.O2    1  UNL1        0.0619
     18 O           3.8896    1.1933   32.3527 O.2     1  UNL1       -0.1529
     19 O           0.9461    1.6553   32.0023 O.2     1  UNL1       -0.1529
     20 N           2.2989    1.7706   33.6321 N.3     1  UNL1       -0.1723
     21 H           3.0604    1.2909   34.1121 H       1  UNL1        0.1491
     22 C           2.3477    3.2050   34.0681 C.3     1  UNL1        0.1701
     23 C           2.8245    4.2622   33.1168 C.3     1  UNL1        0.0278
     24 C           1.9197    3.5822   35.4553 C.3     1  UNL1        0.4118
     25 F           1.4916    3.9596   36.8426 F       1  UNL1       -0.1685
     26 F           1.2368    4.8027   34.9126 F       1  UNL1       -0.1685
     27 F           2.6025    2.3619   35.9978 F       1  UNL1       -0.1685
     28 C           1.0178    1.6763   25.3848 C.ar    1  UNL1        0.2369
     29 N           1.1651    2.9992   24.6932 N.ar    1  UNL1       -0.2095
     30 C           0.0972    4.0428   24.8354 C.ar    1  UNL1        0.1037
     31 C          -1.1181    3.7636   25.6692 C.ar    1  UNL1        0.0415
     32 C          -1.2653    2.4407   26.3608 C.ar    1  UNL1        0.1037
     33 N          -0.1975    1.3970   26.2186 N.ar    1  UNL1       -0.2095
     34 C           0.9240    0.1092   19.7220 C.3     1  UNL1        0.0051
     35 C           2.3004   -0.4083   20.0181 C.3     1  UNL1        0.0287
     36 C           4.8347   -1.7906   26.5219 C.1     1  UNL1        0.1020
     37 N           5.8292   -2.6203   27.2786 N.1     1  UNL1       -0.1908
@<TRIPOS>BOND
     1    34    35    1
     2    35     1    1
     3     1     2   ar
     4     2     3   ar
     5     3     4   ar
     6     4     5   ar
     7     5     6   ar
     8     6     7    1
     9     4     8   ar
    10     8    36    1
    11    36    37    3
    12     8     9   ar
    13     9    11    1
    14    11    12   ar
    15    12    13   ar
    16    13    14   ar
    17    14    17    1
    18    17    18    2
    19    17    19    2
    20    17    20    1
    21    20    22    1
    22    22    23    1
    23    22    24    1
    24    24    25    1
    25    24    26    1
    26    24    27    1
    27    14    15   ar
    28    15    16   ar
    29     9    10   ar
    30    10    28    1
    31    28    29   ar
    32    29    30   ar
    33    30    31   ar
    34    31    32   ar
    35    32    33   ar
    36     6     1   ar
    37    16    11   ar
    38    33    28   ar
    39    10     3   ar
    40    20    21    1
