@<TRIPOS>MOLECULE
*****
 40 44 0 0 0
SMALL
GASTEIGER

@<TRIPOS>ATOM
      1 C          -0.8441    3.0705   24.1570 C.ar    1  UNL1        0.0951
      2 C           0.1460    2.1198   23.5523 C.ar    1  UNL1        0.1454
      3 F           0.5377    2.2610   22.1112 F       1  UNL1       -0.2040
      4 C           0.7444    1.0277   24.3886 C.ar    1  UNL1        0.0312
      5 C           0.3528    0.8865   25.8296 C.ar    1  UNL1        0.0204
      6 C          -0.6373    1.8373   26.4344 C.ar    1  UNL1        0.0924
      7 C          -1.2357    2.9293   25.5981 C.ar    1  UNL1        0.1598
      8 F          -2.2258    3.8800   26.2029 F       1  UNL1       -0.2026
      9 C          -1.4425    4.1626   23.3207 C.2     1  UNL1        0.2036
     10 O          -0.7498    5.4885   23.2114 O.2     1  UNL1       -0.2863
     11 C          -6.0437    5.0789   24.6267 C.2     1  UNL1        0.0322
     12 C          -7.0375    4.6787   23.5769 C.2     1  UNL1        0.2321
     13 N          -6.5652    4.0673   22.2912 N.2     1  UNL1       -0.0311
     14 C          -5.0990    3.8562   22.0552 C.2     1  UNL1        0.3721
     15 N          -4.3416    3.2809   20.8952 N.2     1  UNL1       -0.0307
     16 C          -2.8797    3.3257   21.2281 C.2     1  UNL1        0.2390
     17 C          -2.7336    3.9286   22.5938 C.2     1  UNL1        0.0896
     18 C          -4.1051    4.2565   23.1050 C.2     1  UNL1        0.0774
     19 C          -4.5775    4.8678   24.3907 C.3     1  UNL1        0.0647
     20 C          -7.4607    6.9130   28.4839 C.ar    1  UNL1        0.3201
     21 N          -6.0793    6.3359   28.3909 N.ar    1  UNL1       -0.1927
     22 C          -5.6070    5.7245   27.1051 C.ar    1  UNL1        0.1050
     23 C          -6.5160    5.6903   25.9125 C.ar    1  UNL1        0.0386
     24 C          -7.8974    6.2675   26.0055 C.ar    1  UNL1        0.1050
     25 N          -8.3698    6.8788   27.2912 N.ar    1  UNL1       -0.1927
     26 C          -7.4617    6.9701   31.0813 C.3     1  UNL1        0.2559
     27 O          -7.9331    7.5244   29.7696 O.3     1  UNL1       -0.4426
     28 N          -1.0290    1.6960   27.8754 N.pl3   1  UNL1       -0.2127
     29 H          -1.9665    1.8272   28.1459 H       1  UNL1        0.1738
     30 S           0.0078    1.3549   28.9044 S.O2    1  UNL1        0.0780
     31 O          -0.8029    0.1659   29.3272 O.2     1  UNL1       -0.1498
     32 O           0.8187    2.5439   28.4815 O.2     1  UNL1       -0.1498
     33 C           1.0446    1.0139   29.9333 C.ar    1  UNL1        0.1797
     34 C           1.1225    1.7996   31.2087 C.ar    1  UNL1        0.1611
     35 F           0.1634    2.9263   31.4551 F       1  UNL1       -0.2027
     36 C           2.1593    1.4585   32.2376 C.ar    1  UNL1        0.0312
     37 C           3.1183    0.3318   31.9912 C.ar    1  UNL1        0.0047
     38 C           3.0405   -0.4539   30.7158 C.ar    1  UNL1        0.0312
     39 C           2.0037   -0.1129   29.6869 C.ar    1  UNL1        0.1611
     40 F           1.9259   -0.8986   28.4115 F       1  UNL1       -0.2027
@<TRIPOS>BOND
     1    26    27    1
     2    27    20    1
     3    20    21   ar
     4    21    22   ar
     5    22    23   ar
     6    23    11    1
     7    11    12    2
     8    12    13    1
     9    13    14    2
    10    14    15    1
    11    15    16    2
    12    16    17    1
    13    17     9    1
    14     9    10    2
    15     9     1    1
    16     1     2   ar
    17     2     3    1
    18     2     4   ar
    19     4     5   ar
    20     5     6   ar
    21     6    28    1
    22    28    30    1
    23    30    31    2
    24    30    32    2
    25    30    33    1
    26    33    34   ar
    27    34    35    1
    28    34    36   ar
    29    36    37   ar
    30    37    38   ar
    31    38    39   ar
    32    39    40    1
    33     6     7   ar
    34     7     8    1
    35    17    18    2
    36    18    19    1
    37    23    24   ar
    38    24    25   ar
    39    25    20   ar
    40    19    11    1
    41    18    14    1
    42     7     1   ar
    43    39    33   ar
    44    28    29    1
@<TRIPOS>MOLECULE
*****
 40 44 0 0 0
SMALL
GASTEIGER

@<TRIPOS>ATOM
      1 C           6.5519   -2.5975   25.8852 C.ar    1  UNL1        0.0951
      2 C           5.3370   -1.8295   26.3144 C.ar    1  UNL1        0.1454
      3 F           5.2381   -1.3047   27.7161 F       1  UNL1       -0.2040
      4 C           4.2211   -1.5864   25.3420 C.ar    1  UNL1        0.0312
      5 C           4.3200   -2.1112   23.9403 C.ar    1  UNL1        0.0204
      6 C           5.5349   -2.8792   23.5111 C.ar    1  UNL1        0.0924
      7 C           6.6508   -3.1223   24.4835 C.ar    1  UNL1        0.1598
      8 F           7.8657   -3.8903   24.0541 F       1  UNL1       -0.2026
      9 C           7.6678   -2.8406   26.8576 C.2     1  UNL1        0.2036
     10 O           8.7585   -1.8233   27.0171 O.2     1  UNL1       -0.2863
     11 C           6.4728   -3.6552   31.5078 C.2     1  UNL1        0.0322
     12 C           6.6539   -5.0880   31.9130 C.2     1  UNL1        0.2321
     13 N           7.1563   -6.0912   30.9174 N.2     1  UNL1       -0.0311
     14 C           7.4777   -5.6616   29.5167 C.2     1  UNL1        0.3721
     15 N           7.9860   -6.4193   28.3261 N.2     1  UNL1       -0.0307
     16 C           8.1191   -5.4548   27.1851 C.2     1  UNL1        0.2390
     17 C           7.6930   -4.1010   27.6705 C.2     1  UNL1        0.0896
     18 C           7.2966   -4.2288   29.1115 C.2     1  UNL1        0.0774
     19 C           6.7942   -3.2256   30.1070 C.3     1  UNL1        0.0647
     20 C           4.9655   -0.6455   34.4944 C.ar    1  UNL1        0.3201
     21 N           6.3596   -0.5311   33.9528 N.ar    1  UNL1       -0.1927
     22 C           6.8620   -1.5344   32.9572 C.ar    1  UNL1        0.1050
     23 C           5.9704   -2.6520   32.5034 C.ar    1  UNL1        0.0386
     24 C           4.5763   -2.7663   33.0451 C.ar    1  UNL1        0.1050
     25 N           4.0738   -1.7632   34.0406 N.ar    1  UNL1       -0.1927
     26 C           4.9131    0.2863   36.9190 C.3     1  UNL1        0.2559
     27 O           4.4630    0.3577   35.4900 O.3     1  UNL1       -0.4426
     28 N           5.6339   -3.4040   22.1094 N.pl3   1  UNL1       -0.2127
     29 H           6.0843   -4.2621   21.9356 H       1  UNL1        0.1738
     30 S           5.0465   -2.6215   20.9724 S.O2    1  UNL1        0.0780
     31 O           4.0444   -3.7129   20.7389 O.2     1  UNL1       -0.1498
     32 O           6.0487   -1.5301   21.2058 O.2     1  UNL1       -0.1498
     33 C           4.4592   -1.8390   19.8354 C.ar    1  UNL1        0.1797
     34 C           5.1054   -1.8822   18.4824 C.ar    1  UNL1        0.1611
     35 F           6.3388   -2.7080   18.2664 F       1  UNL1       -0.2027
     36 C           4.5181   -1.0996   17.3454 C.ar    1  UNL1        0.0312
     37 C           3.2846   -0.2739   17.5614 C.ar    1  UNL1        0.0047
     38 C           2.6385   -0.2306   18.9144 C.ar    1  UNL1        0.0312
     39 C           3.2258   -1.0132   20.0514 C.ar    1  UNL1        0.1611
     40 F           2.5795   -0.9699   21.4043 F       1  UNL1       -0.2027
@<TRIPOS>BOND
     1    26    27    1
     2    27    20    1
     3    20    21   ar
     4    21    22   ar
     5    22    23   ar
     6    23    11    1
     7    11    12    2
     8    12    13    1
     9    13    14    2
    10    14    15    1
    11    15    16    2
    12    16    17    1
    13    17     9    1
    14     9    10    2
    15     9     1    1
    16     1     2   ar
    17     2     3    1
    18     2     4   ar
    19     4     5   ar
    20     5     6   ar
    21     6    28    1
    22    28    30    1
    23    30    31    2
    24    30    32    2
    25    30    33    1
    26    33    34   ar
    27    34    35    1
    28    34    36   ar
    29    36    37   ar
    30    37    38   ar
    31    38    39   ar
    32    39    40    1
    33     6     7   ar
    34     7     8    1
    35    17    18    2
    36    18    19    1
    37    23    24   ar
    38    24    25   ar
    39    25    20   ar
    40    19    11    1
    41    18    14    1
    42     7     1   ar
    43    39    33   ar
    44    28    29    1
@<TRIPOS>MOLECULE
*****
 40 44 0 0 0
SMALL
GASTEIGER

@<TRIPOS>ATOM
      1 C           4.7775   -2.7684   19.9285 C.ar    1  UNL1        0.0951
      2 C           6.1325   -2.7127   19.2875 C.ar    1  UNL1        0.1454
      3 F           7.2424   -3.5799   19.8033 F       1  UNL1       -0.2040
      4 C           6.3775   -1.7897   18.1307 C.ar    1  UNL1        0.0312
      5 C           5.2676   -0.9225   17.6149 C.ar    1  UNL1        0.0204
      6 C           3.9126   -0.9783   18.2559 C.ar    1  UNL1        0.0924
      7 C           3.6676   -1.9012   19.4127 C.ar    1  UNL1        0.1598
      8 F           2.3126   -1.9569   20.0536 F       1  UNL1       -0.2026
      9 C           4.5324   -3.6914   21.0853 C.2     1  UNL1        0.2036
     10 O           3.9112   -5.0367   20.8527 O.2     1  UNL1       -0.2863
     11 C           2.7856   -0.1335   23.9148 C.2     1  UNL1        0.0322
     12 C           3.4636   -0.0666   25.2511 C.2     1  UNL1        0.2321
     13 N           4.5554   -1.0384   25.5877 N.2     1  UNL1       -0.0311
     14 C           4.9693   -2.0773   24.5879 C.2     1  UNL1        0.3721
     15 N           6.0057   -3.1607   24.6368 N.2     1  UNL1       -0.0307
     16 C           5.9681   -3.8972   23.3306 C.2     1  UNL1        0.2390
     17 C           4.9086   -3.2690   22.4745 C.2     1  UNL1        0.0896
     18 C           4.2913   -2.1442   23.2516 C.2     1  UNL1        0.0774
     19 C           3.1995   -1.1724   22.9150 C.3     1  UNL1        0.0647
     20 C          -0.4900    2.7821   22.9050 C.ar    1  UNL1        0.3201
     21 N          -0.1912    1.6398   21.9798 N.ar    1  UNL1       -0.1927
     22 C           0.9007    0.6679   22.3164 C.ar    1  UNL1        0.1050
     23 C           1.6937    0.8383   23.5782 C.ar    1  UNL1        0.0386
     24 C           1.3949    1.9806   24.5034 C.ar    1  UNL1        0.1050
     25 N           0.3031    2.9525   24.1668 N.ar    1  UNL1       -0.1927
     26 C          -2.3869    3.5732   21.3158 C.3     1  UNL1        0.2559
     27 O          -1.5819    3.7540   22.5684 O.3     1  UNL1       -0.4426
     28 N           2.8027   -0.1111   17.7402 N.pl3   1  UNL1       -0.2127
     29 H           2.3138   -0.3697   16.9257 H       1  UNL1        0.1738
     30 S           2.4376    1.1502   18.4654 S.O2    1  UNL1        0.0780
     31 O           3.7023    1.7949   17.9810 O.2     1  UNL1       -0.1498
     32 O           1.1728    0.5055   18.9499 O.2     1  UNL1       -0.1498
     33 C           2.0725    2.4114   19.1907 C.ar    1  UNL1        0.1797
     34 C           2.8445    2.8271   20.4077 C.ar    1  UNL1        0.1611
     35 F           3.9817    1.9816   20.8994 F       1  UNL1       -0.2027
     36 C           2.4794    4.0883   21.1329 C.ar    1  UNL1        0.0312
     37 C           1.3422    4.9339   20.6412 C.ar    1  UNL1        0.0047
     38 C           0.5701    4.5182   19.4242 C.ar    1  UNL1        0.0312
     39 C           0.9353    3.2570   18.6989 C.ar    1  UNL1        0.1611
     40 F           0.1632    2.8414   17.4820 F       1  UNL1       -0.2027
@<TRIPOS>BOND
     1    26    27    1
     2    27    20    1
     3    20    21   ar
     4    21    22   ar
     5    22    23   ar
     6    23    11    1
     7    11    12    2
     8    12    13    1
     9    13    14    2
    10    14    15    1
    11    15    16    2
    12    16    17    1
    13    17     9    1
    14     9    10    2
    15     9     1    1
    16     1     2   ar
    17     2     3    1
    18     2     4   ar
    19     4     5   ar
    20     5     6   ar
    21     6    28    1
    22    28    30    1
    23    30    31    2
    24    30    32    2
    25    30    33    1
    26    33    34   ar
    27    34    35    1
    28    34    36   ar
    29    36    37   ar
    30    37    38   ar
    31    38    39   ar
    32    39    40    1
    33     6     7   ar
    34     7     8    1
    35    17    18    2
    36    18    19    1
    37    23    24   ar
    38    24    25   ar
    39    25    20   ar
    40    19    11    1
    41    18    14    1
    42     7     1   ar
    43    39    33   ar
    44    28    29    1
@<TRIPOS>MOLECULE
*****
 40 44 0 0 0
SMALL
GASTEIGER

@<TRIPOS>ATOM
      1 C           4.8931   -3.1006   22.6507 C.ar    1  UNL1        0.0951
      2 C           4.0945   -1.9791   23.2462 C.ar    1  UNL1        0.1454
      3 F           2.7890   -1.5768   22.6268 F       1  UNL1       -0.2040
      4 C           4.6015   -1.2600   24.4610 C.ar    1  UNL1        0.0312
      5 C           5.9071   -1.6623   25.0804 C.ar    1  UNL1        0.0204
      6 C           6.7056   -2.7837   24.4849 C.ar    1  UNL1        0.0924
      7 C           6.1987   -3.5029   23.2701 C.ar    1  UNL1        0.1598
      8 F           6.9973   -4.6243   22.6748 F       1  UNL1       -0.2026
      9 C           4.3861   -3.8198   21.4359 C.2     1  UNL1        0.2036
     10 O           3.5398   -5.0485   21.5906 O.2     1  UNL1       -0.2863
     11 C           2.4718   -0.1800   18.8276 C.2     1  UNL1        0.0322
     12 C           3.1260   -0.0172   17.4877 C.2     1  UNL1        0.2321
     13 N           4.2458   -0.9299   17.0840 N.2     1  UNL1       -0.0311
     14 C           4.7114   -2.0054   18.0202 C.2     1  UNL1        0.3721
     15 N           5.7841   -3.0468   17.8985 N.2     1  UNL1       -0.0307
     16 C           5.7928   -3.8532   19.1632 C.2     1  UNL1        0.2390
     17 C           4.7255   -3.3102   20.0666 C.2     1  UNL1        0.0896
     18 C           4.0571   -2.1682   19.3601 C.2     1  UNL1        0.0774
     19 C           2.9374   -1.2555   19.7638 C.3     1  UNL1        0.0647
     20 C          -0.8877    2.5581   20.0389 C.ar    1  UNL1        0.3201
     21 N          -0.0686    2.8691   18.8214 N.ar    1  UNL1       -0.1927
     22 C           1.0513    1.9564   18.4177 C.ar    1  UNL1        0.1050
     23 C           1.3519    0.7327   19.2314 C.ar    1  UNL1        0.0386
     24 C           0.5328    0.4217   20.4489 C.ar    1  UNL1        0.1050
     25 N          -0.5870    1.3343   20.8526 N.ar    1  UNL1       -0.1927
     26 C          -2.3851    3.6003   21.8886 C.3     1  UNL1        0.2559
     27 O          -2.0075    3.4707   20.4427 O.3     1  UNL1       -0.4426
     28 N           8.0112   -3.1860   25.1043 N.pl3   1  UNL1       -0.2127
     29 H           8.7896   -2.5862   25.0453 H       1  UNL1        0.1738
     30 S           8.1307   -4.5024   25.8136 S.O2    1  UNL1        0.0780
     31 O           6.8215   -4.2510   26.5009 O.2     1  UNL1       -0.1498
     32 O           9.4401   -4.7538   25.1263 O.2     1  UNL1       -0.1498
     33 C           8.2503   -5.8187   26.5229 C.ar    1  UNL1        0.1797
     34 C           8.0161   -7.0976   25.7749 C.ar    1  UNL1        0.1611
     35 F           7.6623   -7.0602   24.3177 F       1  UNL1       -0.2027
     36 C           8.1357   -8.4139   26.4841 C.ar    1  UNL1        0.0312
     37 C           8.4895   -8.4513   27.9413 C.ar    1  UNL1        0.0047
     38 C           8.7238   -7.1724   28.6893 C.ar    1  UNL1        0.0312
     39 C           8.6042   -5.8561   27.9800 C.ar    1  UNL1        0.1611
     40 F           8.8384   -4.5772   28.7281 F       1  UNL1       -0.2027
@<TRIPOS>BOND
     1    26    27    1
     2    27    20    1
     3    20    21   ar
     4    21    22   ar
     5    22    23   ar
     6    23    11    1
     7    11    12    2
     8    12    13    1
     9    13    14    2
    10    14    15    1
    11    15    16    2
    12    16    17    1
    13    17     9    1
    14     9    10    2
    15     9     1    1
    16     1     2   ar
    17     2     3    1
    18     2     4   ar
    19     4     5   ar
    20     5     6   ar
    21     6    28    1
    22    28    30    1
    23    30    31    2
    24    30    32    2
    25    30    33    1
    26    33    34   ar
    27    34    35    1
    28    34    36   ar
    29    36    37   ar
    30    37    38   ar
    31    38    39   ar
    32    39    40    1
    33     6     7   ar
    34     7     8    1
    35    17    18    2
    36    18    19    1
    37    23    24   ar
    38    24    25   ar
    39    25    20   ar
    40    19    11    1
    41    18    14    1
    42     7     1   ar
    43    39    33   ar
    44    28    29    1
@<TRIPOS>MOLECULE
*****
 40 44 0 0 0
SMALL
GASTEIGER

@<TRIPOS>ATOM
      1 C           0.5739    2.5508   24.9433 C.ar    1  UNL1        0.0951
      2 C          -0.7614    3.1023   25.3467 C.ar    1  UNL1        0.1454
      3 F          -1.4482    4.1144   24.4783 F       1  UNL1       -0.2040
      4 C          -1.4100    2.6418   26.6184 C.ar    1  UNL1        0.0312
      5 C          -0.7233    1.6297   27.4867 C.ar    1  UNL1        0.0204
      6 C           0.6120    1.0782   27.0834 C.ar    1  UNL1        0.0924
      7 C           1.2606    1.5387   25.8117 C.ar    1  UNL1        0.1598
      8 F           2.5959    0.9871   25.4084 F       1  UNL1       -0.2026
      9 C           1.2225    3.0113   23.6716 C.2     1  UNL1        0.2036
     10 O           2.2880    4.0663   23.7126 O.2     1  UNL1       -0.2863
     11 C           2.7422   -1.0003   21.3665 C.2     1  UNL1        0.0322
     12 C           2.0432   -1.2197   20.0576 C.2     1  UNL1        0.2321
     13 N           0.9989   -0.2484   19.5930 N.2     1  UNL1       -0.0311
     14 C           0.6536    0.9424   20.4373 C.2     1  UNL1        0.3721
     15 N          -0.3255    2.0618   20.2412 N.2     1  UNL1       -0.0307
     16 C          -0.2315    2.9731   21.4290 C.2     1  UNL1        0.2390
     17 C           0.8056    2.4169   22.3591 C.2     1  UNL1        0.0896
     18 C           1.3526    1.1619   21.7462 C.2     1  UNL1        0.0774
     19 C           2.3969    0.1905   22.2108 C.3     1  UNL1        0.0647
     20 C           5.8752   -3.9143   22.7605 C.ar    1  UNL1        0.3201
     21 N           5.3767   -3.9683   21.3468 N.ar    1  UNL1       -0.1927
     22 C           4.3324   -2.9970   20.8822 C.ar    1  UNL1        0.1050
     23 C           3.7865   -1.9716   21.8312 C.ar    1  UNL1        0.0386
     24 C           4.2850   -1.9176   23.2449 C.ar    1  UNL1        0.1050
     25 N           5.3293   -2.8889   23.7096 N.ar    1  UNL1       -0.1927
     26 C           7.4634   -4.7917   24.6200 C.3     1  UNL1        0.2559
     27 O           6.9195   -4.8856   23.2252 O.3     1  UNL1       -0.4426
     28 N           1.2987    0.0661   27.9518 N.pl3   1  UNL1       -0.2127
     29 H           1.4996   -0.8305   27.5983 H       1  UNL1        0.1738
     30 S           1.6794    0.4202   29.3588 S.O2    1  UNL1        0.0780
     31 O           2.8227    1.2425   28.8427 O.2     1  UNL1       -0.1498
     32 O           0.5361   -0.4022   29.8751 O.2     1  UNL1       -0.1498
     33 C           2.0600    0.7742   30.7659 C.ar    1  UNL1        0.1797
     34 C           3.1441    0.0086   31.4648 C.ar    1  UNL1        0.1611
     35 F           3.8476   -1.1111   30.7567 F       1  UNL1       -0.2027
     36 C           3.5247    0.3626   32.8719 C.ar    1  UNL1        0.0312
     37 C           2.8212    1.4822   33.5800 C.ar    1  UNL1        0.0047
     38 C           1.7371    2.2479   32.8811 C.ar    1  UNL1        0.0312
     39 C           1.3565    1.8939   31.4740 C.ar    1  UNL1        0.1611
     40 F           0.2725    2.6596   30.7752 F       1  UNL1       -0.2027
@<TRIPOS>BOND
     1    26    27    1
     2    27    20    1
     3    20    21   ar
     4    21    22   ar
     5    22    23   ar
     6    23    11    1
     7    11    12    2
     8    12    13    1
     9    13    14    2
    10    14    15    1
    11    15    16    2
    12    16    17    1
    13    17     9    1
    14     9    10    2
    15     9     1    1
    16     1     2   ar
    17     2     3    1
    18     2     4   ar
    19     4     5   ar
    20     5     6   ar
    21     6    28    1
    22    28    30    1
    23    30    31    2
    24    30    32    2
    25    30    33    1
    26    33    34   ar
    27    34    35    1
    28    34    36   ar
    29    36    37   ar
    30    37    38   ar
    31    38    39   ar
    32    39    40    1
    33     6     7   ar
    34     7     8    1
    35    17    18    2
    36    18    19    1
    37    23    24   ar
    38    24    25   ar
    39    25    20   ar
    40    19    11    1
    41    18    14    1
    42     7     1   ar
    43    39    33   ar
    44    28    29    1
@<TRIPOS>MOLECULE
*****
 40 44 0 0 0
SMALL
GASTEIGER

@<TRIPOS>ATOM
      1 C          -0.2595    2.8593   22.9548 C.ar    1  UNL1        0.0951
      2 C          -0.0971    2.0397   24.2005 C.ar    1  UNL1        0.1454
      3 F          -0.9654    2.3086   25.3937 F       1  UNL1       -0.2040
      4 C           0.9336    0.9512   24.2530 C.ar    1  UNL1        0.0312
      5 C           1.8019    0.6823   23.0598 C.ar    1  UNL1        0.0204
      6 C           1.6395    1.5019   21.8141 C.ar    1  UNL1        0.0924
      7 C           0.6088    2.5905   21.7616 C.ar    1  UNL1        0.1598
      8 F           0.4464    3.4100   20.5159 F       1  UNL1       -0.2026
      9 C          -1.2902    3.9478   22.9023 C.2     1  UNL1        0.2036
     10 O          -1.0683    5.2276   23.6525 O.2     1  UNL1       -0.2863
     11 C          -5.9479    4.8444   24.0061 C.2     1  UNL1        0.0322
     12 C          -6.8878    4.4986   22.8895 C.2     1  UNL1        0.2321
     13 N          -6.3525    3.9401   21.6045 N.2     1  UNL1       -0.0311
     14 C          -4.8772    3.7274   21.4360 C.2     1  UNL1        0.3721
     15 N          -4.0637    3.1970   20.2928 N.2     1  UNL1       -0.0307
     16 C          -2.6210    3.2150   20.7029 C.2     1  UNL1        0.2390
     17 C          -2.5429    3.7565   22.0996 C.2     1  UNL1        0.0896
     18 C          -3.9373    4.0732   22.5527 C.2     1  UNL1        0.0774
     19 C          -4.4726    4.6317   23.8377 C.3     1  UNL1        0.0647
     20 C          -7.5538    6.5201   27.8615 C.ar    1  UNL1        0.3201
     21 N          -8.3876    6.5732   26.6157 N.ar    1  UNL1       -0.1927
     22 C          -7.8522    6.0146   25.3306 C.ar    1  UNL1        0.1050
     23 C          -6.4832    5.4030   25.2913 C.ar    1  UNL1        0.0386
     24 C          -5.6494    5.3499   26.5371 C.ar    1  UNL1        0.1050
     25 N          -6.1847    5.9084   27.8222 N.ar    1  UNL1       -0.1927
     26 C          -7.1578    7.3556   30.2894 C.3     1  UNL1        0.2559
     27 O          -8.0890    7.0786   29.1466 O.3     1  UNL1       -0.4426
     28 N           2.5078    1.2331   20.6209 N.pl3   1  UNL1       -0.2127
     29 H           2.7013    1.9551   19.9801 H       1  UNL1        0.1738
     30 S           3.0814   -0.1359   20.4040 S.O2    1  UNL1        0.0780
     31 O           1.7385   -0.6269   19.9512 O.2     1  UNL1       -0.1498
     32 O           4.4245    0.3552   20.8569 O.2     1  UNL1       -0.1498
     33 C           3.6551   -1.5048   20.1872 C.ar    1  UNL1        0.1797
     34 C           4.0014   -1.9619   18.8012 C.ar    1  UNL1        0.1611
     35 F           3.7739   -1.0502   17.6320 F       1  UNL1       -0.2027
     36 C           4.5750   -3.3308   18.5843 C.ar    1  UNL1        0.0312
     37 C           4.8025   -4.2426   19.7535 C.ar    1  UNL1        0.0047
     38 C           4.4562   -3.7854   21.1395 C.ar    1  UNL1        0.0312
     39 C           3.8826   -2.4165   21.3564 C.ar    1  UNL1        0.1611
     40 F           3.5363   -1.9594   22.7424 F       1  UNL1       -0.2027
@<TRIPOS>BOND
     1    26    27    1
     2    27    20    1
     3    20    21   ar
     4    21    22   ar
     5    22    23   ar
     6    23    11    1
     7    11    12    2
     8    12    13    1
     9    13    14    2
    10    14    15    1
    11    15    16    2
    12    16    17    1
    13    17     9    1
    14     9    10    2
    15     9     1    1
    16     1     2   ar
    17     2     3    1
    18     2     4   ar
    19     4     5   ar
    20     5     6   ar
    21     6    28    1
    22    28    30    1
    23    30    31    2
    24    30    32    2
    25    30    33    1
    26    33    34   ar
    27    34    35    1
    28    34    36   ar
    29    36    37   ar
    30    37    38   ar
    31    38    39   ar
    32    39    40    1
    33     6     7   ar
    34     7     8    1
    35    17    18    2
    36    18    19    1
    37    23    24   ar
    38    24    25   ar
    39    25    20   ar
    40    19    11    1
    41    18    14    1
    42     7     1   ar
    43    39    33   ar
    44    28    29    1
@<TRIPOS>MOLECULE
*****
 40 44 0 0 0
SMALL
GASTEIGER

@<TRIPOS>ATOM
      1 C           7.5529   -5.5934   25.7781 C.ar    1  UNL1        0.0951
      2 C           7.9197   -7.0351   25.5858 C.ar    1  UNL1        0.1454
      3 F           7.7085   -8.0177   26.6993 F       1  UNL1       -0.2040
      4 C           8.4978   -7.4941   24.2800 C.ar    1  UNL1        0.0312
      5 C           8.7091   -6.5115   23.1665 C.ar    1  UNL1        0.0204
      6 C           8.3423   -5.0698   23.3589 C.ar    1  UNL1        0.0924
      7 C           7.7642   -4.6108   24.6647 C.ar    1  UNL1        0.1598
      8 F           7.3974   -3.1691   24.8569 F       1  UNL1       -0.2026
      9 C           6.9748   -5.1344   27.0839 C.2     1  UNL1        0.2036
     10 O           5.7323   -5.7797   27.6222 O.2     1  UNL1       -0.2863
     11 C           5.1593   -1.0291   28.9724 C.2     1  UNL1        0.0322
     12 C           6.1969   -0.2003   29.6697 C.2     1  UNL1        0.2321
     13 N           7.6197   -0.6719   29.7261 N.2     1  UNL1       -0.0311
     14 C           8.0048   -1.9722   29.0851 C.2     1  UNL1        0.3721
     15 N           9.3183   -2.6891   28.9797 N.2     1  UNL1       -0.0307
     16 C           9.0923   -3.9609   28.2172 C.2     1  UNL1        0.2390
     17 C           7.6392   -4.0300   27.8514 C.2     1  UNL1        0.0896
     18 C           6.9671   -2.8010   28.3878 C.2     1  UNL1        0.0774
     19 C           5.5443   -2.3294   28.3315 C.3     1  UNL1        0.0647
     20 C           0.8907    0.3856   28.8031 C.ar    1  UNL1        0.3201
     21 N           1.4425   -0.1827   30.0769 N.ar    1  UNL1       -0.1927
     22 C           2.8654   -0.6543   30.1333 C.ar    1  UNL1        0.1050
     23 C           3.7364   -0.5575   28.9160 C.ar    1  UNL1        0.0386
     24 C           3.1846    0.0108   27.6422 C.ar    1  UNL1        0.1050
     25 N           1.7618    0.4824   27.5858 N.ar    1  UNL1       -0.1927
     26 C          -1.6463   -0.0741   29.1224 C.3     1  UNL1        0.2559
     27 O          -0.5321    0.8572   28.7467 O.3     1  UNL1       -0.4426
     28 N           8.5535   -4.0872   22.2454 N.pl3   1  UNL1       -0.2127
     29 H           9.4436   -3.6927   22.0993 H       1  UNL1        0.1738
     30 S           7.4086   -3.7057   21.3546 S.O2    1  UNL1        0.0780
     31 O           7.4034   -5.0869   20.7697 O.2     1  UNL1       -0.1498
     32 O           7.4137   -2.3244   21.9395 O.2     1  UNL1       -0.1498
     33 C           6.2636   -3.3241   20.4638 C.ar    1  UNL1        0.1797
     34 C           4.8519   -3.5281   20.9280 C.ar    1  UNL1        0.1611
     35 F           4.5852   -4.1136   22.2829 F       1  UNL1       -0.2027
     36 C           3.7070   -3.1465   20.0372 C.ar    1  UNL1        0.0312
     37 C           3.9737   -2.5609   18.6822 C.ar    1  UNL1        0.0047
     38 C           5.3854   -2.3570   18.2180 C.ar    1  UNL1        0.0312
     39 C           6.5304   -2.7386   19.1088 C.ar    1  UNL1        0.1611
     40 F           7.9420   -2.5346   18.6445 F       1  UNL1       -0.2027
@<TRIPOS>BOND
     1    26    27    1
     2    27    20    1
     3    20    21   ar
     4    21    22   ar
     5    22    23   ar
     6    23    11    1
     7    11    12    2
     8    12    13    1
     9    13    14    2
    10    14    15    1
    11    15    16    2
    12    16    17    1
    13    17     9    1
    14     9    10    2
    15     9     1    1
    16     1     2   ar
    17     2     3    1
    18     2     4   ar
    19     4     5   ar
    20     5     6   ar
    21     6    28    1
    22    28    30    1
    23    30    31    2
    24    30    32    2
    25    30    33    1
    26    33    34   ar
    27    34    35    1
    28    34    36   ar
    29    36    37   ar
    30    37    38   ar
    31    38    39   ar
    32    39    40    1
    33     6     7   ar
    34     7     8    1
    35    17    18    2
    36    18    19    1
    37    23    24   ar
    38    24    25   ar
    39    25    20   ar
    40    19    11    1
    41    18    14    1
    42     7     1   ar
    43    39    33   ar
    44    28    29    1
@<TRIPOS>MOLECULE
*****
 40 44 0 0 0
SMALL
GASTEIGER

@<TRIPOS>ATOM
      1 C           7.9372   -4.9584   23.6746 C.ar    1  UNL1        0.0951
      2 C           8.5700   -6.1712   23.0592 C.ar    1  UNL1        0.1454
      3 F           9.1741   -6.0882   21.6888 F       1  UNL1       -0.2040
      4 C           8.5987   -7.4670   23.8143 C.ar    1  UNL1        0.0312
      5 C           7.9946   -7.5500   25.1847 C.ar    1  UNL1        0.0204
      6 C           7.3618   -6.3372   25.8001 C.ar    1  UNL1        0.0924
      7 C           7.3331   -5.0414   25.0450 C.ar    1  UNL1        0.1598
      8 F           6.7002   -3.8287   25.6605 F       1  UNL1       -0.2026
      9 C           7.9085   -3.6627   22.9195 C.2     1  UNL1        0.2036
     10 O           8.9348   -2.6063   23.2035 O.2     1  UNL1       -0.2863
     11 C           3.7002   -1.2234   23.1572 C.2     1  UNL1        0.0322
     12 C           2.9444   -1.2387   21.8617 C.2     1  UNL1        0.2321
     13 N           3.5090   -1.9579   20.6726 N.2     1  UNL1       -0.0311
     14 C           4.8292   -2.6618   20.7790 C.2     1  UNL1        0.3721
     15 N           5.6306   -3.4480   19.7841 N.2     1  UNL1       -0.0307
     16 C           6.8817   -3.9186   20.4649 C.2     1  UNL1        0.2390
     17 C           6.8534   -3.4233   21.8805 C.2     1  UNL1        0.0896
     18 C           5.5850   -2.6466   22.0746 C.2     1  UNL1        0.0774
     19 C           5.0205   -1.9274   23.2637 C.3     1  UNL1        0.0647
     20 C           2.0067    0.9342   26.7248 C.ar    1  UNL1        0.3201
     21 N           1.4609    1.2072   25.3545 N.ar    1  UNL1       -0.1927
     22 C           2.0254    0.4880   24.1654 C.ar    1  UNL1        0.1050
     23 C           3.1356   -0.5042   24.3464 C.ar    1  UNL1        0.0386
     24 C           3.6815   -0.7772   25.7167 C.ar    1  UNL1        0.1050
     25 N           3.1170   -0.0581   26.9058 N.ar    1  UNL1       -0.1927
     26 C           2.0946    1.5090   29.2569 C.3     1  UNL1        0.2559
     27 O           1.4422    1.6533   27.9139 O.3     1  UNL1       -0.4426
     28 N           6.7577   -6.4202   27.1705 N.pl3   1  UNL1       -0.2127
     29 H           6.0670   -7.0946   27.3641 H       1  UNL1        0.1738
     30 S           7.2059   -5.4757   28.2462 S.O2    1  UNL1        0.0780
     31 O           8.5807   -6.0734   28.1983 O.2     1  UNL1       -0.1498
     32 O           5.8309   -4.8778   28.2941 O.2     1  UNL1       -0.1498
     33 C           7.6540   -4.5311   29.3218 C.ar    1  UNL1        0.1797
     34 C           8.4115   -3.2879   28.9604 C.ar    1  UNL1        0.1611
     35 F           8.7210   -2.9894   27.5233 F       1  UNL1       -0.2027
     36 C           8.8596   -2.3433   30.0360 C.ar    1  UNL1        0.0312
     37 C           8.5502   -2.6419   31.4730 C.ar    1  UNL1        0.0047
     38 C           7.7926   -3.8850   31.8344 C.ar    1  UNL1        0.0312
     39 C           7.3445   -4.8296   30.7588 C.ar    1  UNL1        0.1611
     40 F           6.5870   -6.0727   31.1203 F       1  UNL1       -0.2027
@<TRIPOS>BOND
     1    26    27    1
     2    27    20    1
     3    20    21   ar
     4    21    22   ar
     5    22    23   ar
     6    23    11    1
     7    11    12    2
     8    12    13    1
     9    13    14    2
    10    14    15    1
    11    15    16    2
    12    16    17    1
    13    17     9    1
    14     9    10    2
    15     9     1    1
    16     1     2   ar
    17     2     3    1
    18     2     4   ar
    19     4     5   ar
    20     5     6   ar
    21     6    28    1
    22    28    30    1
    23    30    31    2
    24    30    32    2
    25    30    33    1
    26    33    34   ar
    27    34    35    1
    28    34    36   ar
    29    36    37   ar
    30    37    38   ar
    31    38    39   ar
    32    39    40    1
    33     6     7   ar
    34     7     8    1
    35    17    18    2
    36    18    19    1
    37    23    24   ar
    38    24    25   ar
    39    25    20   ar
    40    19    11    1
    41    18    14    1
    42     7     1   ar
    43    39    33   ar
    44    28    29    1
@<TRIPOS>MOLECULE
*****
 40 44 0 0 0
SMALL
GASTEIGER

@<TRIPOS>ATOM
      1 C           3.8216   -1.2588   19.4776 C.ar    1  UNL1        0.0951
      2 C           5.0254   -0.5426   18.9413 C.ar    1  UNL1        0.1454
      3 F           6.3061   -1.2911   18.7186 F       1  UNL1       -0.2040
      4 C           4.9487    0.9223   18.6278 C.ar    1  UNL1        0.0312
      5 C           3.6681    1.6709   18.8505 C.ar    1  UNL1        0.0204
      6 C           2.4642    0.9546   19.3868 C.ar    1  UNL1        0.0924
      7 C           2.5409   -0.5103   19.7003 C.ar    1  UNL1        0.1598
      8 F           1.3370   -1.2265   20.2366 F       1  UNL1       -0.2026
      9 C           3.8983   -2.7237   19.7912 C.2     1  UNL1        0.2036
     10 O           2.8599   -3.6616   19.2510 O.2     1  UNL1       -0.2863
     11 C           5.0464   -1.8295   24.4386 C.2     1  UNL1        0.0322
     12 C           6.2604   -2.5838   24.8938 C.2     1  UNL1        0.2321
     13 N           6.9778   -3.4948   23.9424 N.2     1  UNL1       -0.0311
     14 C           6.4813   -3.6515   22.5357 C.2     1  UNL1        0.3721
     15 N           6.9778   -4.4710   21.3815 N.2     1  UNL1       -0.0307
     16 C           6.0707   -4.2231   20.2129 C.2     1  UNL1        0.2390
     17 C           5.0135   -3.2505   20.6449 C.2     1  UNL1        0.0896
     18 C           5.2673   -2.8973   22.0804 C.2     1  UNL1        0.0774
     19 C           4.5498   -1.9863   23.0319 C.3     1  UNL1        0.0647
     20 C           2.8938    0.9035   27.2930 C.ar    1  UNL1        0.3201
     21 N           3.4531    1.4472   26.0117 N.ar    1  UNL1       -0.1927
     22 C           4.1706    0.5362   25.0602 C.ar    1  UNL1        0.1050
     23 C           4.3289   -0.9185   25.3900 C.ar    1  UNL1        0.0386
     24 C           3.7696   -1.4622   26.6713 C.ar    1  UNL1        0.1050
     25 N           3.0521   -0.5513   27.6228 N.ar    1  UNL1       -0.1927
     26 C           1.4815    1.2467   29.4463 C.3     1  UNL1        0.2559
     27 O           2.1763    1.8145   28.2444 O.3     1  UNL1       -0.4426
     28 N           1.1836    1.7032   19.6095 N.pl3   1  UNL1       -0.2127
     29 H           0.6794    2.0557   18.8409 H       1  UNL1        0.1738
     30 S           0.6711    1.9146   21.0034 S.O2    1  UNL1        0.0780
     31 O           1.8616    2.7736   21.3108 O.2     1  UNL1       -0.1498
     32 O          -0.5194    1.0554   20.6960 O.2     1  UNL1       -0.1498
     33 C           0.1586    2.1259   22.3972 C.ar    1  UNL1        0.1797
     34 C          -0.8390    3.2116   22.6729 C.ar    1  UNL1        0.1611
     35 F          -1.3241    4.0859   21.5548 F       1  UNL1       -0.2027
     36 C          -1.3515    3.4229   24.0667 C.ar    1  UNL1        0.0312
     37 C          -0.8663    2.5486   25.1848 C.ar    1  UNL1        0.0047
     38 C           0.1313    1.4629   24.9091 C.ar    1  UNL1        0.0312
     39 C           0.6438    1.2516   23.5153 C.ar    1  UNL1        0.1611
     40 F           1.6414    0.1659   23.2397 F       1  UNL1       -0.2027
@<TRIPOS>BOND
     1    26    27    1
     2    27    20    1
     3    20    21   ar
     4    21    22   ar
     5    22    23   ar
     6    23    11    1
     7    11    12    2
     8    12    13    1
     9    13    14    2
    10    14    15    1
    11    15    16    2
    12    16    17    1
    13    17     9    1
    14     9    10    2
    15     9     1    1
    16     1     2   ar
    17     2     3    1
    18     2     4   ar
    19     4     5   ar
    20     5     6   ar
    21     6    28    1
    22    28    30    1
    23    30    31    2
    24    30    32    2
    25    30    33    1
    26    33    34   ar
    27    34    35    1
    28    34    36   ar
    29    36    37   ar
    30    37    38   ar
    31    38    39   ar
    32    39    40    1
    33     6     7   ar
    34     7     8    1
    35    17    18    2
    36    18    19    1
    37    23    24   ar
    38    24    25   ar
    39    25    20   ar
    40    19    11    1
    41    18    14    1
    42     7     1   ar
    43    39    33   ar
    44    28    29    1
