@<TRIPOS>MOLECULE
*****
 36 38 0 0 0
SMALL
GASTEIGER

@<TRIPOS>ATOM
      1 C          -5.1440  -17.1999   23.3122 C.ar    1  UNL1        0.2093
      2 N          -3.9569  -16.3215   23.0488 N.ar    1  UNL1       -0.1604
      3 C          -2.8866  -16.7719   22.0994 C.ar    1  UNL1        0.3558
      4 O          -1.6995  -15.8935   21.8360 O.2     1  UNL1       -0.2442
      5 N          -3.0032  -18.1008   21.4134 N.ar    1  UNL1       -0.2325
      6 C          -4.1902  -18.9791   21.6767 C.ar    1  UNL1        0.3372
      7 O          -4.3069  -20.3080   20.9907 O.2     1  UNL1       -0.2461
      8 N          -5.2607  -18.5287   22.6262 N.ar    1  UNL1       -0.2498
      9 N          -6.2144  -16.7495   24.2616 N.pl3   1  UNL1       -0.2836
     10 H          -6.0061  -16.6268   25.2159 H       1  UNL1        0.1550
     11 C         -10.3777  -15.9591   22.7476 C.ar    1  UNL1        0.1657
     12 C         -10.1767  -16.6753   24.0501 C.ar    1  UNL1        0.0405
     13 C          -8.7889  -16.9388   24.5548 C.ar    1  UNL1        0.0179
     14 C          -7.6022  -16.4860   23.7569 C.ar    1  UNL1        0.0529
     15 C          -7.8032  -15.7697   22.4545 C.ar    1  UNL1        0.0474
     16 C          -9.1910  -15.5063   21.9498 C.ar    1  UNL1        0.1750
     17 F          -9.3920  -14.7899   20.6473 F       1  UNL1       -0.2009
     18 O         -11.7655  -15.6956   22.2430 O.3     1  UNL1       -0.4769
     19 C         -12.1843  -16.1313   19.7162 C.3     1  UNL1        0.0472
     20 C         -12.3399  -16.5463   21.1492 C.3     1  UNL1        0.1662
     21 C         -13.0701  -17.8120   21.4885 C.3     1  UNL1        0.0472
     22 C          -1.9328  -18.5512   20.4640 C.3     1  UNL1        0.1202
     23 C          -1.9003  -18.0176   19.0625 C.3     1  UNL1        0.0532
     24 C          -0.4204  -17.8023   19.1786 C.3     1  UNL1        0.0075
     25 C          -3.3803  -18.2328   18.9463 C.3     1  UNL1        0.0075
     26 C          -1.8679  -17.4840   17.6609 C.2     1  UNL1        0.0515
     27 O          -2.9226  -16.5220   17.2001 O.co2   1  UNL1       -0.5491
     28 O          -0.7809  -17.9124   16.7203 O.co2   1  UNL1       -0.5491
     29 C          -6.4477  -19.4071   22.8895 C.3     1  UNL1        0.1399
     30 C          -7.5941  -19.4286   21.9224 C.ar    1  UNL1        0.0007
     31 C          -8.9885  -19.6741   22.4176 C.ar    1  UNL1       -0.0015
     32 C         -10.1349  -19.6956   21.4505 C.ar    1  UNL1        0.0111
     33 C          -9.8869  -19.4717   19.9882 C.ar    1  UNL1        0.0577
     34 CL        -11.0333  -19.4932   19.0211 Cl      1  UNL1       -0.0822
     35 C          -8.4924  -19.2262   19.4930 C.ar    1  UNL1        0.0111
     36 C          -7.3460  -19.2047   20.4601 C.ar    1  UNL1       -0.0015
@<TRIPOS>UNITY_ATOM_ATTR
27 1
charge -1
@<TRIPOS>BOND
     1    19    20    1
     2    20    21    1
     3    20    18    1
     4    18    11    1
     5    11    12   ar
     6    12    13   ar
     7    13    14   ar
     8    14     9    1
     9     9     1    1
    10     1     2   ar
    11     2     3   ar
    12     3     4    2
    13     3     5   ar
    14     5    22    1
    15    22    23    1
    16    23    24    1
    17    23    25    1
    18    23    26    1
    19    26    27   ar
    20    26    28   ar
    21     5     6   ar
    22     6     7    2
    23     6     8   ar
    24     8    29    1
    25    29    30    1
    26    30    31   ar
    27    31    32   ar
    28    32    33   ar
    29    33    34    1
    30    33    35   ar
    31    35    36   ar
    32    14    15   ar
    33    15    16   ar
    34    16    17    1
    35    16    11   ar
    36     8     1   ar
    37    36    30   ar
    38     9    10    1
@<TRIPOS>MOLECULE
*****
 36 38 0 0 0
SMALL
GASTEIGER

@<TRIPOS>ATOM
      1 C           3.8276    1.1492   32.1424 C.ar    1  UNL1        0.2093
      2 N           2.3922    1.5770   32.2246 N.ar    1  UNL1       -0.1604
      3 C           1.4300    1.1862   31.1423 C.ar    1  UNL1        0.3558
      4 O          -0.0055    1.6139   31.2245 O.2     1  UNL1       -0.2442
      5 N           1.9031    0.3677   29.9777 N.ar    1  UNL1       -0.2325
      6 C           3.3384   -0.0600   29.8955 C.ar    1  UNL1        0.3372
      7 O           3.8116   -0.8785   28.7309 O.2     1  UNL1       -0.2461
      8 N           4.3007    0.3307   30.9778 N.ar    1  UNL1       -0.2498
      9 N           4.7898    1.5400   33.2247 N.pl3   1  UNL1       -0.2836
     10 H           5.7111    1.7994   32.9942 H       1  UNL1        0.1550
     11 C           3.4653    1.5265   37.5254 C.ar    1  UNL1        0.1657
     12 C           4.1594    0.3274   36.9506 C.ar    1  UNL1        0.0405
     13 C           4.6009    0.3319   35.5170 C.ar    1  UNL1        0.0179
     14 C           4.3483    1.5355   34.6582 C.ar    1  UNL1        0.0529
     15 C           3.6542    2.7346   35.2330 C.ar    1  UNL1        0.0474
     16 C           3.2128    2.7301   36.6666 C.ar    1  UNL1        0.1750
     17 F           2.5187    3.9293   37.2413 F       1  UNL1       -0.2009
     18 O           3.0238    1.5221   38.9589 O.3     1  UNL1       -0.4769
     19 C           1.2156   -0.2133   39.6434 C.3     1  UNL1        0.0472
     20 C           1.6011    1.1961   39.3045 C.3     1  UNL1        0.1662
     21 C           0.5637    2.2797   39.3112 C.3     1  UNL1        0.0472
     22 C           0.9408   -0.0230   28.8954 C.3     1  UNL1        0.1202
     23 C           0.3077    1.0323   28.0379 C.3     1  UNL1        0.0532
     24 C          -1.0503    0.4920   28.3756 C.3     1  UNL1        0.0075
     25 C           1.6656    1.5726   27.7002 C.3     1  UNL1        0.0075
     26 C          -0.3255    2.0877   27.1804 C.2     1  UNL1        0.0515
     27 O          -0.4992    3.4802   27.7105 O.co2   1  UNL1       -0.5491
     28 O          -0.7849    1.7507   25.7929 O.co2   1  UNL1       -0.5491
     29 C           5.7361   -0.0970   30.8956 C.3     1  UNL1        0.1399
     30 C           6.0969   -1.5451   31.0464 C.ar    1  UNL1        0.0007
     31 C           5.8405   -2.2506   32.3449 C.ar    1  UNL1       -0.0015
     32 C           6.2014   -3.6988   32.4957 C.ar    1  UNL1        0.0111
     33 C           6.8187   -4.4413   31.3480 C.ar    1  UNL1        0.0577
     34 CL          7.1796   -5.8894   31.4988 Cl      1  UNL1       -0.0822
     35 C           7.0752   -3.7358   30.0494 C.ar    1  UNL1        0.0111
     36 C           6.7143   -2.2876   29.8986 C.ar    1  UNL1       -0.0015
@<TRIPOS>UNITY_ATOM_ATTR
27 1
charge -1
@<TRIPOS>BOND
     1    19    20    1
     2    20    21    1
     3    20    18    1
     4    18    11    1
     5    11    12   ar
     6    12    13   ar
     7    13    14   ar
     8    14     9    1
     9     9     1    1
    10     1     2   ar
    11     2     3   ar
    12     3     4    2
    13     3     5   ar
    14     5    22    1
    15    22    23    1
    16    23    24    1
    17    23    25    1
    18    23    26    1
    19    26    27   ar
    20    26    28   ar
    21     5     6   ar
    22     6     7    2
    23     6     8   ar
    24     8    29    1
    25    29    30    1
    26    30    31   ar
    27    31    32   ar
    28    32    33   ar
    29    33    34    1
    30    33    35   ar
    31    35    36   ar
    32    14    15   ar
    33    15    16   ar
    34    16    17    1
    35    16    11   ar
    36     8     1   ar
    37    36    30   ar
    38     9    10    1
@<TRIPOS>MOLECULE
*****
 36 38 0 0 0
SMALL
GASTEIGER

@<TRIPOS>ATOM
      1 C         -15.2937   -4.0428   19.7551 C.ar    1  UNL1        0.2093
      2 N         -16.7062   -4.2150   19.2805 N.ar    1  UNL1       -0.1604
      3 C         -17.1179   -5.4845   18.5957 C.ar    1  UNL1        0.3558
      4 O         -18.5304   -5.6567   18.1211 O.2     1  UNL1       -0.2442
      5 N         -16.1170   -6.5818   18.3855 N.ar    1  UNL1       -0.2325
      6 C         -14.7045   -6.4096   18.8600 C.ar    1  UNL1        0.3372
      7 O         -13.7037   -7.5069   18.6498 O.2     1  UNL1       -0.2461
      8 N         -14.2928   -5.1401   19.5449 N.ar    1  UNL1       -0.2498
      9 N         -14.8821   -2.7733   20.4399 N.pl3   1  UNL1       -0.2836
     10 H         -14.4192   -2.8101   21.3080 H       1  UNL1        0.1550
     11 C         -15.7632    1.2032   18.5265 C.ar    1  UNL1        0.1657
     12 C         -16.6464    0.6864   19.6232 C.ar    1  UNL1        0.0405
     13 C         -16.3527   -0.6391   20.2610 C.ar    1  UNL1        0.0179
     14 C         -15.1758   -1.4478   19.8021 C.ar    1  UNL1        0.0529
     15 C         -14.2925   -0.9311   18.7054 C.ar    1  UNL1        0.0474
     16 C         -14.5862    0.3944   18.0676 C.ar    1  UNL1        0.1750
     17 F         -13.7029    0.9111   16.9709 F       1  UNL1       -0.2009
     18 O         -16.0568    2.5286   17.8887 O.3     1  UNL1       -0.4769
     19 C         -15.4494    4.4070   19.5777 C.3     1  UNL1        0.0472
     20 C         -15.2415    3.7336   18.2535 C.3     1  UNL1        0.1662
     21 C         -14.2181    4.2653   17.2943 C.3     1  UNL1        0.0472
     22 C         -16.5287   -7.8513   17.7006 C.3     1  UNL1        0.1202
     23 C         -17.6529   -8.6734   18.2577 C.3     1  UNL1        0.0532
     24 C         -16.9666   -8.7083   19.5911 C.3     1  UNL1        0.0075
     25 C         -18.3391   -8.6385   16.9243 C.3     1  UNL1        0.0075
     26 C         -18.7771   -9.4955   18.8148 C.2     1  UNL1        0.0515
     27 O         -19.3433  -10.6314   18.0152 O.co2   1  UNL1       -0.5491
     28 O         -19.3350   -9.1818   20.1713 O.co2   1  UNL1       -0.5491
     29 C         -12.8804   -4.9679   20.0194 C.3     1  UNL1        0.1399
     30 C         -11.7882   -4.6766   19.0335 C.ar    1  UNL1        0.0007
     31 C         -11.8044   -3.3958   18.2529 C.ar    1  UNL1       -0.0015
     32 C         -10.7122   -3.1045   17.2669 C.ar    1  UNL1        0.0111
     33 C          -9.6037   -4.0939   17.0615 C.ar    1  UNL1        0.0577
     34 CL         -8.5115   -3.8026   16.0755 Cl      1  UNL1       -0.0822
     35 C          -9.5874   -5.3746   17.8421 C.ar    1  UNL1        0.0111
     36 C         -10.6796   -5.6660   18.8281 C.ar    1  UNL1       -0.0015
@<TRIPOS>UNITY_ATOM_ATTR
27 1
charge -1
@<TRIPOS>BOND
     1    19    20    1
     2    20    21    1
     3    20    18    1
     4    18    11    1
     5    11    12   ar
     6    12    13   ar
     7    13    14   ar
     8    14     9    1
     9     9     1    1
    10     1     2   ar
    11     2     3   ar
    12     3     4    2
    13     3     5   ar
    14     5    22    1
    15    22    23    1
    16    23    24    1
    17    23    25    1
    18    23    26    1
    19    26    27   ar
    20    26    28   ar
    21     5     6   ar
    22     6     7    2
    23     6     8   ar
    24     8    29    1
    25    29    30    1
    26    30    31   ar
    27    31    32   ar
    28    32    33   ar
    29    33    34    1
    30    33    35   ar
    31    35    36   ar
    32    14    15   ar
    33    15    16   ar
    34    16    17    1
    35    16    11   ar
    36     8     1   ar
    37    36    30   ar
    38     9    10    1
@<TRIPOS>MOLECULE
*****
 36 38 0 0 0
SMALL
GASTEIGER

@<TRIPOS>ATOM
      1 C           2.9497    1.4477   18.5595 C.ar    1  UNL1        0.2093
      2 N           2.9547    2.9442   18.4572 N.ar    1  UNL1       -0.1604
      3 C           1.9091    3.7483   19.1714 C.ar    1  UNL1        0.3558
      4 O           1.9141    5.2448   19.0691 O.2     1  UNL1       -0.2442
      5 N           0.8585    3.0559   19.9879 N.ar    1  UNL1       -0.2325
      6 C           0.8534    1.5594   20.0903 C.ar    1  UNL1        0.3372
      7 O          -0.1972    0.8670   20.9068 O.2     1  UNL1       -0.2461
      8 N           1.8991    0.7553   19.3760 N.ar    1  UNL1       -0.2498
      9 N           3.9953    0.6436   17.8453 N.pl3   1  UNL1       -0.2836
     10 H           3.9002    0.4559   16.8835 H       1  UNL1        0.1550
     11 C           7.5671   -0.9105   20.0985 C.ar    1  UNL1        0.1657
     12 C           6.7244    0.1807   20.6892 C.ar    1  UNL1        0.0405
     13 C           5.5338    0.6988   19.9381 C.ar    1  UNL1        0.0179
     14 C           5.1859    0.1256   18.5964 C.ar    1  UNL1        0.0529
     15 C           6.0286   -0.9657   18.0057 C.ar    1  UNL1        0.0474
     16 C           7.2192   -1.4838   18.7568 C.ar    1  UNL1        0.1750
     17 F           8.0619   -2.5751   18.1660 F       1  UNL1       -0.2009
     18 O           8.7577   -1.4286   20.8496 O.3     1  UNL1       -0.4769
     19 C           8.1946   -3.9137   21.3567 C.3     1  UNL1        0.0472
     20 C           8.5944   -2.5489   21.8336 C.3     1  UNL1        0.1662
     21 C           8.8308   -2.3044   23.2945 C.3     1  UNL1        0.0472
     22 C          -0.1872    3.8600   20.7022 C.3     1  UNL1        0.1202
     23 C          -1.6404    3.6265   20.4128 C.3     1  UNL1        0.0532
     24 C          -1.3801    3.8218   18.9485 C.3     1  UNL1        0.0075
     25 C          -1.9006    3.4312   21.8771 C.3     1  UNL1        0.0075
     26 C          -3.0935    3.3929   20.1234 C.2     1  UNL1        0.0515
     27 O          -3.6658    3.7849   18.7934 O.co2   1  UNL1       -0.5491
     28 O          -3.9744    2.7674   21.1639 O.co2   1  UNL1       -0.5491
     29 C           1.8941   -0.7412   19.4784 C.3     1  UNL1        0.1399
     30 C           2.7583   -1.4263   20.4951 C.ar    1  UNL1        0.0007
     31 C           2.8348   -0.8940   21.8953 C.ar    1  UNL1       -0.0015
     32 C           3.6991   -1.5791   22.9120 C.ar    1  UNL1        0.0111
     33 C           4.4868   -2.7966   22.5285 C.ar    1  UNL1        0.0577
     34 CL          5.3510   -3.4818   23.5452 Cl      1  UNL1       -0.0822
     35 C           4.4103   -3.3290   21.1282 C.ar    1  UNL1        0.0111
     36 C           3.5460   -2.6438   20.1115 C.ar    1  UNL1       -0.0015
@<TRIPOS>UNITY_ATOM_ATTR
27 1
charge -1
@<TRIPOS>BOND
     1    19    20    1
     2    20    21    1
     3    20    18    1
     4    18    11    1
     5    11    12   ar
     6    12    13   ar
     7    13    14   ar
     8    14     9    1
     9     9     1    1
    10     1     2   ar
    11     2     3   ar
    12     3     4    2
    13     3     5   ar
    14     5    22    1
    15    22    23    1
    16    23    24    1
    17    23    25    1
    18    23    26    1
    19    26    27   ar
    20    26    28   ar
    21     5     6   ar
    22     6     7    2
    23     6     8   ar
    24     8    29    1
    25    29    30    1
    26    30    31   ar
    27    31    32   ar
    28    32    33   ar
    29    33    34    1
    30    33    35   ar
    31    35    36   ar
    32    14    15   ar
    33    15    16   ar
    34    16    17    1
    35    16    11   ar
    36     8     1   ar
    37    36    30   ar
    38     9    10    1
@<TRIPOS>MOLECULE
*****
 36 38 0 0 0
SMALL
GASTEIGER

@<TRIPOS>ATOM
      1 C           5.6049   -1.3678   24.5167 C.ar    1  UNL1        0.2093
      2 N           4.4685   -1.0761   23.5820 N.ar    1  UNL1       -0.1604
      3 C           4.3190   -1.8639   22.3143 C.ar    1  UNL1        0.3558
      4 O           3.1826   -1.5722   21.3796 O.2     1  UNL1       -0.2442
      5 N           5.3058   -2.9434   21.9813 N.ar    1  UNL1       -0.2325
      6 C           6.4421   -3.2351   22.9160 C.ar    1  UNL1        0.3372
      7 O           7.4290   -4.3146   22.5830 O.2     1  UNL1       -0.2461
      8 N           6.5917   -2.4473   24.1837 N.ar    1  UNL1       -0.2498
      9 N           5.7544   -0.5800   25.7844 N.pl3   1  UNL1       -0.2836
     10 H           6.6488   -0.3051   26.0905 H       1  UNL1        0.1550
     11 C           2.1147    0.5270   28.1880 C.ar    1  UNL1        0.1657
     12 C           2.7099   -0.8438   28.3165 C.ar    1  UNL1        0.0405
     13 C           3.9231   -1.2129   27.5152 C.ar    1  UNL1        0.0179
     14 C           4.5411   -0.2110   26.5856 C.ar    1  UNL1        0.0529
     15 C           3.9460    1.1598   26.4571 C.ar    1  UNL1        0.0474
     16 C           2.7328    1.5288   27.2584 C.ar    1  UNL1        0.1750
     17 F           2.1376    2.8997   27.1299 F       1  UNL1       -0.2009
     18 O           0.9015    0.8960   28.9892 O.3     1  UNL1       -0.4769
     19 C          -1.0073    1.7075   27.4248 C.3     1  UNL1        0.0472
     20 C          -0.4677    0.7094   28.4059 C.3     1  UNL1        0.1662
     21 C          -1.2975   -0.4752   28.8038 C.3     1  UNL1        0.0472
     22 C           5.1563   -3.7312   20.7136 C.3     1  UNL1        0.1202
     23 C           5.3455   -3.0589   19.3861 C.3     1  UNL1        0.0532
     24 C           6.6758   -2.5359   19.8405 C.3     1  UNL1        0.0075
     25 C           4.0151   -3.5820   18.9316 C.3     1  UNL1        0.0075
     26 C           5.5346   -2.3866   18.0586 C.2     1  UNL1        0.0515
     27 O           6.9001   -2.3158   17.4416 O.co2   1  UNL1       -0.5491
     28 O           4.3585   -1.7852   17.3481 O.co2   1  UNL1       -0.5491
     29 C           7.7280   -2.7390   25.1184 C.3     1  UNL1        0.1399
     30 C           7.4764   -3.4855   26.3949 C.ar    1  UNL1        0.0007
     31 C           6.8700   -4.8568   26.3548 C.ar    1  UNL1       -0.0015
     32 C           6.6184   -5.6032   27.6313 C.ar    1  UNL1        0.0111
     33 C           6.9733   -4.9784   28.9479 C.ar    1  UNL1        0.0577
     34 CL          6.7217   -5.7248   30.2245 Cl      1  UNL1       -0.0822
     35 C           7.5798   -3.6070   28.9880 C.ar    1  UNL1        0.0111
     36 C           7.8313   -2.8606   27.7115 C.ar    1  UNL1       -0.0015
@<TRIPOS>UNITY_ATOM_ATTR
27 1
charge -1
@<TRIPOS>BOND
     1    19    20    1
     2    20    21    1
     3    20    18    1
     4    18    11    1
     5    11    12   ar
     6    12    13   ar
     7    13    14   ar
     8    14     9    1
     9     9     1    1
    10     1     2   ar
    11     2     3   ar
    12     3     4    2
    13     3     5   ar
    14     5    22    1
    15    22    23    1
    16    23    24    1
    17    23    25    1
    18    23    26    1
    19    26    27   ar
    20    26    28   ar
    21     5     6   ar
    22     6     7    2
    23     6     8   ar
    24     8    29    1
    25    29    30    1
    26    30    31   ar
    27    31    32   ar
    28    32    33   ar
    29    33    34    1
    30    33    35   ar
    31    35    36   ar
    32    14    15   ar
    33    15    16   ar
    34    16    17    1
    35    16    11   ar
    36     8     1   ar
    37    36    30   ar
    38     9    10    1
@<TRIPOS>MOLECULE
*****
 36 38 0 0 0
SMALL
GASTEIGER

@<TRIPOS>ATOM
      1 C           7.4504   -3.5849   22.0389 C.ar    1  UNL1        0.2093
      2 N           6.8344   -4.5767   21.0971 N.ar    1  UNL1       -0.1604
      3 C           5.5642   -4.2367   20.3753 C.ar    1  UNL1        0.3558
      4 O           4.9482   -5.2285   19.4335 O.2     1  UNL1       -0.2442
      5 N           4.9100   -2.9050   20.5953 N.ar    1  UNL1       -0.2325
      6 C           5.5260   -1.9132   21.5370 C.ar    1  UNL1        0.3372
      7 O           4.8718   -0.5814   21.7570 O.2     1  UNL1       -0.2461
      8 N           6.7962   -2.2531   22.2589 N.ar    1  UNL1       -0.2498
      9 N           8.7206   -3.9249   22.7607 N.pl3   1  UNL1       -0.2836
     10 H           9.5891   -3.6612   22.3795 H       1  UNL1        0.1550
     11 C           8.5613   -6.1504   26.6686 C.ar    1  UNL1        0.1657
     12 C           9.2774   -4.8351   26.5832 C.ar    1  UNL1        0.0405
     13 C           9.3304   -4.0933   25.2805 C.ar    1  UNL1        0.0179
     14 C           8.6675   -4.6667   24.0633 C.ar    1  UNL1        0.0529
     15 C           7.9515   -5.9820   24.1488 C.ar    1  UNL1        0.0474
     16 C           7.8984   -6.7238   25.4514 C.ar    1  UNL1        0.1750
     17 F           7.1823   -8.0391   25.5368 F       1  UNL1       -0.2009
     18 O           8.5082   -6.8922   27.9713 O.3     1  UNL1       -0.4769
     19 C           9.1844   -6.0574   30.3368 C.3     1  UNL1        0.0472
     20 C           8.1698   -6.1619   29.2370 C.3     1  UNL1        0.1662
     21 C           6.8167   -5.5361   29.4029 C.3     1  UNL1        0.0472
     22 C           3.6398   -2.5650   19.8734 C.3     1  UNL1        0.1202
     23 C           3.6504   -1.5387   18.7795 C.3     1  UNL1        0.0532
     24 C           4.7538   -2.2851   18.0900 C.3     1  UNL1        0.0075
     25 C           2.5471   -0.7923   19.4690 C.3     1  UNL1        0.0075
     26 C           3.6611   -0.5124   17.6856 C.2     1  UNL1        0.0515
     27 O           3.3427    0.9198   17.9978 O.co2   1  UNL1       -0.5491
     28 O           3.9901   -0.9183   16.2796 O.co2   1  UNL1       -0.5491
     29 C           7.4122   -1.2614   23.2006 C.3     1  UNL1        0.1399
     30 C           7.1980   -1.3978   24.6790 C.ar    1  UNL1        0.0007
     31 C           6.0831   -2.2558   25.1993 C.ar    1  UNL1       -0.0015
     32 C           5.8690   -2.3923   26.6776 C.ar    1  UNL1        0.0111
     33 C           6.7698   -1.6707   27.6357 C.ar    1  UNL1        0.0577
     34 CL          6.5557   -1.8072   29.1140 Cl      1  UNL1       -0.0822
     35 C           7.8847   -0.8128   27.1154 C.ar    1  UNL1        0.0111
     36 C           8.0988   -0.6763   25.6370 C.ar    1  UNL1       -0.0015
@<TRIPOS>UNITY_ATOM_ATTR
27 1
charge -1
@<TRIPOS>BOND
     1    19    20    1
     2    20    21    1
     3    20    18    1
     4    18    11    1
     5    11    12   ar
     6    12    13   ar
     7    13    14   ar
     8    14     9    1
     9     9     1    1
    10     1     2   ar
    11     2     3   ar
    12     3     4    2
    13     3     5   ar
    14     5    22    1
    15    22    23    1
    16    23    24    1
    17    23    25    1
    18    23    26    1
    19    26    27   ar
    20    26    28   ar
    21     5     6   ar
    22     6     7    2
    23     6     8   ar
    24     8    29    1
    25    29    30    1
    26    30    31   ar
    27    31    32   ar
    28    32    33   ar
    29    33    34    1
    30    33    35   ar
    31    35    36   ar
    32    14    15   ar
    33    15    16   ar
    34    16    17    1
    35    16    11   ar
    36     8     1   ar
    37    36    30   ar
    38     9    10    1
@<TRIPOS>MOLECULE
*****
 36 38 0 0 0
SMALL
GASTEIGER

@<TRIPOS>ATOM
      1 C           5.3283   -1.6592   24.2605 C.ar    1  UNL1        0.2093
      2 N           4.0485   -1.1031   23.7099 N.ar    1  UNL1       -0.1604
      3 C           3.5679   -1.5285   22.3541 C.ar    1  UNL1        0.3558
      4 O           2.2881   -0.9724   21.8035 O.2     1  UNL1       -0.2442
      5 N           4.3670   -2.5099   21.5489 N.ar    1  UNL1       -0.2325
      6 C           5.6467   -3.0659   22.0995 C.ar    1  UNL1        0.3372
      7 O           6.4458   -4.0473   21.2942 O.2     1  UNL1       -0.2461
      8 N           6.1274   -2.6406   23.4553 N.ar    1  UNL1       -0.2498
      9 N           5.8089   -1.2339   25.6162 N.pl3   1  UNL1       -0.2836
     10 H           6.7523   -1.3625   25.8667 H       1  UNL1        0.1550
     11 C           2.9389    0.6303   28.5382 C.ar    1  UNL1        0.1657
     12 C           2.8839   -0.8445   28.2699 C.ar    1  UNL1        0.0405
     13 C           3.8405   -1.4659   27.2959 C.ar    1  UNL1        0.0179
     14 C           4.8523   -0.6125   26.5902 C.ar    1  UNL1        0.0529
     15 C           4.9074    0.8623   26.8585 C.ar    1  UNL1        0.0474
     16 C           3.9507    1.4836   27.8325 C.ar    1  UNL1        0.1750
     17 F           4.0058    2.9585   28.1008 F       1  UNL1       -0.2009
     18 O           1.9823    1.2516   29.5122 O.3     1  UNL1       -0.4769
     19 C          -0.5034    0.8657   28.8625 C.3     1  UNL1        0.0472
     20 C           0.6666    1.7888   29.0323 C.3     1  UNL1        0.1662
     21 C           0.5209    3.2492   28.7222 C.3     1  UNL1        0.0472
     22 C           3.8863   -2.9352   20.1931 C.3     1  UNL1        0.1202
     23 C           4.5956   -2.4557   18.9615 C.3     1  UNL1        0.0532
     24 C           4.7863   -3.8760   18.5183 C.3     1  UNL1        0.0075
     25 C           4.4049   -1.0354   19.4046 C.3     1  UNL1        0.0075
     26 C           5.3049   -1.9761   17.7298 C.2     1  UNL1        0.0515
     27 O           6.7341   -2.3627   17.4890 O.co2   1  UNL1       -0.5491
     28 O           4.5850   -1.1101   16.7390 O.co2   1  UNL1       -0.5491
     29 C           7.4071   -3.1966   24.0058 C.3     1  UNL1        0.1399
     30 C           7.4128   -4.5338   24.6854 C.ar    1  UNL1        0.0007
     31 C           8.0354   -5.7176   24.0063 C.ar    1  UNL1       -0.0015
     32 C           8.0411   -7.0548   24.6859 C.ar    1  UNL1        0.0111
     33 C           7.4243   -7.2082   26.0446 C.ar    1  UNL1        0.0577
     34 CL          7.4300   -8.5454   26.7242 Cl      1  UNL1       -0.0822
     35 C           6.8017   -6.0245   26.7236 C.ar    1  UNL1        0.0111
     36 C           6.7960   -4.6873   26.0440 C.ar    1  UNL1       -0.0015
@<TRIPOS>UNITY_ATOM_ATTR
27 1
charge -1
@<TRIPOS>BOND
     1    19    20    1
     2    20    21    1
     3    20    18    1
     4    18    11    1
     5    11    12   ar
     6    12    13   ar
     7    13    14   ar
     8    14     9    1
     9     9     1    1
    10     1     2   ar
    11     2     3   ar
    12     3     4    2
    13     3     5   ar
    14     5    22    1
    15    22    23    1
    16    23    24    1
    17    23    25    1
    18    23    26    1
    19    26    27   ar
    20    26    28   ar
    21     5     6   ar
    22     6     7    2
    23     6     8   ar
    24     8    29    1
    25    29    30    1
    26    30    31   ar
    27    31    32   ar
    28    32    33   ar
    29    33    34    1
    30    33    35   ar
    31    35    36   ar
    32    14    15   ar
    33    15    16   ar
    34    16    17    1
    35    16    11   ar
    36     8     1   ar
    37    36    30   ar
    38     9    10    1
@<TRIPOS>MOLECULE
*****
 36 38 0 0 0
SMALL
GASTEIGER

@<TRIPOS>ATOM
      1 C           4.4075    2.4905   33.7635 C.ar    1  UNL1        0.2093
      2 N           3.1564    3.1082   34.3142 N.ar    1  UNL1       -0.1604
      3 C           2.9140    3.1189   35.7944 C.ar    1  UNL1        0.3558
      4 O           1.6628    3.7366   36.3451 O.2     1  UNL1       -0.2442
      5 N           3.9227    2.5119   36.7240 N.ar    1  UNL1       -0.2325
      6 C           5.1737    1.8942   36.1734 C.ar    1  UNL1        0.3372
      7 O           6.1824    1.2872   37.1030 O.2     1  UNL1       -0.2461
      8 N           5.4162    1.8835   34.6931 N.ar    1  UNL1       -0.2498
      9 N           4.6500    2.4798   32.2833 N.pl3   1  UNL1       -0.2836
     10 H           5.4346    2.9424   31.9096 H       1  UNL1        0.1550
     11 C           1.7907    0.3335   29.5504 C.ar    1  UNL1        0.1657
     12 C           1.3153    1.4971   30.3690 C.ar    1  UNL1        0.0405
     13 C           2.2684    2.2125   31.2799 C.ar    1  UNL1        0.0179
     14 C           3.6969    1.7644   31.3723 C.ar    1  UNL1        0.0529
     15 C           4.1723    0.6008   30.5538 C.ar    1  UNL1        0.0474
     16 C           3.2192   -0.1146   29.6428 C.ar    1  UNL1        0.1750
     17 F           3.6947   -1.2782   28.8243 F       1  UNL1       -0.2009
     18 O           0.8377   -0.3819   28.6395 O.3     1  UNL1       -0.4769
     19 C          -0.6110    1.2508   27.2303 C.3     1  UNL1        0.0472
     20 C          -0.4955    0.2273   28.3208 C.3     1  UNL1        0.1662
     21 C          -1.7131   -0.1870   29.0927 C.3     1  UNL1        0.0472
     22 C           3.6802    2.5226   38.2043 C.3     1  UNL1        0.1202
     23 C           2.4405    1.8918   38.7657 C.3     1  UNL1        0.0532
     24 C           2.0706    3.1940   39.4118 C.3     1  UNL1        0.0075
     25 C           2.8104    0.5896   38.1196 C.3     1  UNL1        0.0075
     26 C           1.2008    1.2611   39.3272 C.2     1  UNL1        0.0515
     27 O           1.3117    0.1777   40.3588 O.co2   1  UNL1       -0.5491
     28 O          -0.1498    1.7137   38.8572 O.co2   1  UNL1       -0.5491
     29 C           6.6673    1.2658   34.1425 C.3     1  UNL1        0.1399
     30 C           6.6348   -0.1279   33.5889 C.ar    1  UNL1        0.0007
     31 C           5.3851   -0.9500   33.7000 C.ar    1  UNL1       -0.0015
     32 C           5.3526   -2.3438   33.1465 C.ar    1  UNL1        0.0111
     33 C           6.5698   -2.9154   32.4819 C.ar    1  UNL1        0.0577
     34 CL          6.5373   -4.3092   31.9284 Cl      1  UNL1       -0.0822
     35 C           7.8195   -2.0933   32.3709 C.ar    1  UNL1        0.0111
     36 C           7.8520   -0.6995   32.9244 C.ar    1  UNL1       -0.0015
@<TRIPOS>UNITY_ATOM_ATTR
27 1
charge -1
@<TRIPOS>BOND
     1    19    20    1
     2    20    21    1
     3    20    18    1
     4    18    11    1
     5    11    12   ar
     6    12    13   ar
     7    13    14   ar
     8    14     9    1
     9     9     1    1
    10     1     2   ar
    11     2     3   ar
    12     3     4    2
    13     3     5   ar
    14     5    22    1
    15    22    23    1
    16    23    24    1
    17    23    25    1
    18    23    26    1
    19    26    27   ar
    20    26    28   ar
    21     5     6   ar
    22     6     7    2
    23     6     8   ar
    24     8    29    1
    25    29    30    1
    26    30    31   ar
    27    31    32   ar
    28    32    33   ar
    29    33    34    1
    30    33    35   ar
    31    35    36   ar
    32    14    15   ar
    33    15    16   ar
    34    16    17    1
    35    16    11   ar
    36     8     1   ar
    37    36    30   ar
    38     9    10    1
@<TRIPOS>MOLECULE
*****
 36 38 0 0 0
SMALL
GASTEIGER

@<TRIPOS>ATOM
      1 C           4.5649   -0.0555   25.6558 C.ar    1  UNL1        0.2093
      2 N           4.1176   -0.6999   26.9344 N.ar    1  UNL1       -0.1604
      3 C           2.8310   -0.2754   27.5781 C.ar    1  UNL1        0.3558
      4 O           2.3838   -0.9198   28.8568 O.2     1  UNL1       -0.2442
      5 N           1.9916    0.7934   26.9433 N.ar    1  UNL1       -0.2325
      6 C           2.4388    1.4377   25.6647 C.ar    1  UNL1        0.3372
      7 O           1.5993    2.5066   25.0299 O.2     1  UNL1       -0.2461
      8 N           3.7254    1.0133   25.0209 N.ar    1  UNL1       -0.2498
      9 N           5.8515   -0.4799   25.0120 N.pl3   1  UNL1       -0.2836
     10 H           6.7060   -0.1046   25.3254 H       1  UNL1        0.1550
     11 C           5.8057   -3.4688   21.6483 C.ar    1  UNL1        0.1657
     12 C           4.6564   -3.4043   22.6100 C.ar    1  UNL1        0.0405
     13 C           4.6717   -2.4080   23.7312 C.ar    1  UNL1        0.0179
     14 C           5.8362   -1.4762   23.8908 C.ar    1  UNL1        0.0529
     15 C           6.9855   -1.5407   22.9291 C.ar    1  UNL1        0.0474
     16 C           6.9703   -2.5370   21.8079 C.ar    1  UNL1        0.1750
     17 F           8.1197   -2.6014   20.8462 F       1  UNL1       -0.2009
     18 O           5.7905   -4.4651   20.5271 O.3     1  UNL1       -0.4769
     19 C           3.7437   -4.8690   18.9788 C.3     1  UNL1        0.0472
     20 C           5.0359   -4.1637   19.2662 C.3     1  UNL1        0.1662
     21 C           5.5736   -3.1570   18.2928 C.3     1  UNL1        0.0472
     22 C           0.7049    1.2178   27.5871 C.3     1  UNL1        0.1202
     23 C           0.7081    1.7519   28.9888 C.3     1  UNL1        0.0532
     24 C           1.7554    2.7546   28.6043 C.3     1  UNL1        0.0075
     25 C          -0.3392    0.7493   29.3732 C.3     1  UNL1        0.0075
     26 C           0.7113    2.2861   30.3905 C.2     1  UNL1        0.0515
     27 O           1.6421    3.4008   30.7661 O.co2   1  UNL1       -0.5491
     28 O          -0.2163    1.7055   31.4164 O.co2   1  UNL1       -0.5491
     29 C           4.1726    1.6577   23.7424 C.3     1  UNL1        0.1399
     30 C           3.8749    1.0007   22.4272 C.ar    1  UNL1        0.0007
     31 C           4.8953    1.0261   21.3281 C.ar    1  UNL1       -0.0015
     32 C           4.5976    0.3691   20.0129 C.ar    1  UNL1        0.0111
     33 C           3.2795   -0.3134   19.7969 C.ar    1  UNL1        0.0577
     34 CL          2.9818   -0.9705   18.4817 Cl      1  UNL1       -0.0822
     35 C           2.2591   -0.3389   20.8960 C.ar    1  UNL1        0.0111
     36 C           2.5568    0.3181   22.2112 C.ar    1  UNL1       -0.0015
@<TRIPOS>UNITY_ATOM_ATTR
27 1
charge -1
@<TRIPOS>BOND
     1    19    20    1
     2    20    21    1
     3    20    18    1
     4    18    11    1
     5    11    12   ar
     6    12    13   ar
     7    13    14   ar
     8    14     9    1
     9     9     1    1
    10     1     2   ar
    11     2     3   ar
    12     3     4    2
    13     3     5   ar
    14     5    22    1
    15    22    23    1
    16    23    24    1
    17    23    25    1
    18    23    26    1
    19    26    27   ar
    20    26    28   ar
    21     5     6   ar
    22     6     7    2
    23     6     8   ar
    24     8    29    1
    25    29    30    1
    26    30    31   ar
    27    31    32   ar
    28    32    33   ar
    29    33    34    1
    30    33    35   ar
    31    35    36   ar
    32    14    15   ar
    33    15    16   ar
    34    16    17    1
    35    16    11   ar
    36     8     1   ar
    37    36    30   ar
    38     9    10    1
