@<TRIPOS>MOLECULE
*****
 26 29 0 0 0
SMALL
GASTEIGER

@<TRIPOS>ATOM
      1 O           3.9266   -1.0773   16.4608 O.2     1  UNL1       -0.2749
      2 C           3.7924   -0.9733   17.9511 C.2     1  UNL1        0.2252
      3 N           4.6965   -1.7713   18.8431 N.am    1  UNL1       -0.2784
      4 C           4.8571   -1.9248   20.3265 C.3     1  UNL1        0.1044
      5 C           5.9751   -2.8999   20.1046 C.3     1  UNL1        0.1187
      6 C           5.8145   -2.7464   18.6211 C.3     1  UNL1        0.1044
      7 C           2.7539   -0.0711   18.5495 C.3     1  UNL1        0.0771
      8 C           2.7889    1.4020   18.2693 C.3     1  UNL1        0.0147
      9 C           1.7505    2.3040   18.8677 C.3     1  UNL1        0.0671
     10 C           0.6772    1.7329   19.7462 C.3     1  UNL1        0.2640
     11 F          -0.5296    1.6653   20.6345 F       1  UNL1       -0.2043
     12 F           0.2931    3.1826   19.7745 F       1  UNL1       -0.2043
     13 C           0.6422    0.2598   20.0263 C.3     1  UNL1        0.0671
     14 C           1.6806   -0.6423   19.4280 C.3     1  UNL1        0.0147
     15 C           6.8793   -3.6980   20.9966 C.ar    1  UNL1        0.2395
     16 N           6.4899   -4.3512   22.2895 N.ar    1  UNL1       -0.1907
     17 C           7.7016   -5.0399   22.8442 C.ar    1  UNL1        0.2033
     18 N           8.8397   -4.8123   21.8941 N.ar    1  UNL1       -0.0560
     19 O           8.3315   -3.9830   20.7522 O.2     1  UNL1       -0.3369
     20 C           7.7641   -5.8193   24.1243 C.ar    1  UNL1        0.0399
     21 C           8.4991   -7.1259   24.1716 C.ar    1  UNL1        0.0032
     22 C           8.5616   -7.9054   25.4517 C.ar    1  UNL1        0.0010
     23 C           7.8890   -7.3781   26.6844 C.ar    1  UNL1        0.0114
     24 C           7.1540   -6.0715   26.6371 C.ar    1  UNL1        0.0578
     25 CL          6.4814   -5.5442   27.8698 Cl      1  UNL1       -0.0822
     26 C           7.0915   -5.2921   25.3570 C.ar    1  UNL1        0.0145
@<TRIPOS>BOND
     1     1     2    2
     2     2     7    1
     3     7     8    1
     4     8     9    1
     5     9    10    1
     6    10    11    1
     7    10    12    1
     8    10    13    1
     9    13    14    1
    10     2     3   am
    11     3     4    1
    12     4     5    1
    13     5    15    1
    14    15    16   ar
    15    16    17   ar
    16    17    20    1
    17    20    21   ar
    18    21    22   ar
    19    22    23   ar
    20    23    24   ar
    21    24    25    1
    22    24    26   ar
    23    17    18   ar
    24    18    19   ar
    25     5     6    1
    26    14     7    1
    27     6     3    1
    28    19    15   ar
    29    26    20   ar
@<TRIPOS>MOLECULE
*****
 26 29 0 0 0
SMALL
GASTEIGER

@<TRIPOS>ATOM
      1 O           5.6694   -1.0817   17.2161 O.2     1  UNL1       -0.2749
      2 C           4.9889   -1.4011   18.5141 C.2     1  UNL1        0.2252
      3 N           5.6387   -2.3350   19.4916 N.am    1  UNL1       -0.2784
      4 C           5.2773   -2.8748   20.8437 C.3     1  UNL1        0.1044
      5 C           6.5576   -3.6558   20.8741 C.3     1  UNL1        0.1187
      6 C           6.9190   -3.1159   19.5221 C.3     1  UNL1        0.1044
      7 C           3.6586   -0.7864   18.8347 C.3     1  UNL1        0.0771
      8 C           2.7354   -1.4608   19.8056 C.3     1  UNL1        0.0147
      9 C           1.4052   -0.8461   20.1261 C.3     1  UNL1        0.0671
     10 C           0.9982    0.4428   19.4757 C.3     1  UNL1        0.2640
     11 F           0.1708    1.6421   19.1195 F       1  UNL1       -0.2043
     12 F          -0.2124    0.1850   20.3229 F       1  UNL1       -0.2043
     13 C           1.9215    1.1171   18.5047 C.3     1  UNL1        0.0671
     14 C           3.2517    0.5025   18.1842 C.3     1  UNL1        0.0147
     15 C           7.2074   -4.5897   21.8516 C.ar    1  UNL1        0.2395
     16 N           6.9466   -4.6422   23.3278 N.ar    1  UNL1       -0.1907
     17 C           7.8101   -5.7201   23.9130 C.ar    1  UNL1        0.2033
     18 N           8.6046   -6.3337   22.7985 N.ar    1  UNL1       -0.0560
     19 O           8.2321   -5.6351   21.5245 O.2     1  UNL1       -0.3369
     20 C           7.8689   -6.1150   25.3590 C.ar    1  UNL1        0.0399
     21 C           7.7401   -5.0703   26.4275 C.ar    1  UNL1        0.0032
     22 C           7.7989   -5.4651   27.8734 C.ar    1  UNL1        0.0010
     23 C           7.9863   -6.9048   28.2507 C.ar    1  UNL1        0.0114
     24 C           8.1150   -7.9495   27.1822 C.ar    1  UNL1        0.0578
     25 CL          8.3024   -9.3891   27.5594 Cl      1  UNL1       -0.0822
     26 C           8.0563   -7.5546   25.7362 C.ar    1  UNL1        0.0145
@<TRIPOS>BOND
     1     1     2    2
     2     2     7    1
     3     7     8    1
     4     8     9    1
     5     9    10    1
     6    10    11    1
     7    10    12    1
     8    10    13    1
     9    13    14    1
    10     2     3   am
    11     3     4    1
    12     4     5    1
    13     5    15    1
    14    15    16   ar
    15    16    17   ar
    16    17    20    1
    17    20    21   ar
    18    21    22   ar
    19    22    23   ar
    20    23    24   ar
    21    24    25    1
    22    24    26   ar
    23    17    18   ar
    24    18    19   ar
    25     5     6    1
    26    14     7    1
    27     6     3    1
    28    19    15   ar
    29    26    20   ar
@<TRIPOS>MOLECULE
*****
 26 29 0 0 0
SMALL
GASTEIGER

@<TRIPOS>ATOM
      1 O           5.4127    0.9864   19.9744 O.2     1  UNL1       -0.2749
      2 C           4.1503    0.2079   19.7499 C.2     1  UNL1        0.2252
      3 N           2.8253    0.9109   19.7517 N.am    1  UNL1       -0.2784
      4 C           1.3986    0.4853   19.5689 C.3     1  UNL1        0.1044
      5 C           0.9513    1.9051   19.7542 C.3     1  UNL1        0.1187
      6 C           2.3780    2.3306   19.9370 C.3     1  UNL1        0.1044
      7 C           4.2130   -1.2737   19.5235 C.3     1  UNL1        0.0771
      8 C           5.0250   -1.8254   18.3894 C.3     1  UNL1        0.0147
      9 C           5.0877   -3.3069   18.1632 C.3     1  UNL1        0.0671
     10 C           4.3384   -4.2366   19.0710 C.3     1  UNL1        0.2640
     11 F           3.8070   -5.5118   19.6554 F       1  UNL1       -0.2043
     12 F           4.9658   -5.2312   18.1398 F       1  UNL1       -0.2043
     13 C           3.5264   -3.6849   20.2051 C.3     1  UNL1        0.0671
     14 C           3.4637   -2.2034   20.4314 C.3     1  UNL1        0.0147
     15 C          -0.3737    2.6081   19.7560 C.ar    1  UNL1        0.2395
     16 N          -1.4143    2.5253   20.8332 N.ar    1  UNL1       -0.1907
     17 C          -2.5745    3.3835   20.4238 C.ar    1  UNL1        0.2033
     18 N          -2.2510    3.9966   19.0937 N.ar    1  UNL1       -0.0560
     19 O          -0.8908    3.5174   18.6810 O.2     1  UNL1       -0.3369
     20 C          -3.8367    3.5918   21.2071 C.ar    1  UNL1        0.0399
     21 C          -5.1106    3.9425   20.4972 C.ar    1  UNL1        0.0032
     22 C          -6.3727    4.1509   21.2805 C.ar    1  UNL1        0.0010
     23 C          -6.3609    4.0086   22.7737 C.ar    1  UNL1        0.0114
     24 C          -5.0870    3.6579   23.4836 C.ar    1  UNL1        0.0578
     25 CL         -5.0751    3.5156   24.9768 Cl      1  UNL1       -0.0822
     26 C          -3.8248    3.4495   22.7003 C.ar    1  UNL1        0.0145
@<TRIPOS>BOND
     1     1     2    2
     2     2     7    1
     3     7     8    1
     4     8     9    1
     5     9    10    1
     6    10    11    1
     7    10    12    1
     8    10    13    1
     9    13    14    1
    10     2     3   am
    11     3     4    1
    12     4     5    1
    13     5    15    1
    14    15    16   ar
    15    16    17   ar
    16    17    20    1
    17    20    21   ar
    18    21    22   ar
    19    22    23   ar
    20    23    24   ar
    21    24    25    1
    22    24    26   ar
    23    17    18   ar
    24    18    19   ar
    25     5     6    1
    26    14     7    1
    27     6     3    1
    28    19    15   ar
    29    26    20   ar
@<TRIPOS>MOLECULE
*****
 26 29 0 0 0
SMALL
GASTEIGER

@<TRIPOS>ATOM
      1 O          -9.3232   -3.7263   17.5662 O.2     1  UNL1       -0.2749
      2 C         -10.7971   -3.4586   17.6435 C.2     1  UNL1        0.2252
      3 N         -11.7568   -4.5952   17.8357 N.am    1  UNL1       -0.2784
      4 C         -13.2470   -4.7163   17.9563 C.3     1  UNL1        0.1044
      5 C         -13.1140   -6.2027   18.1075 C.3     1  UNL1        0.1187
      6 C         -11.6238   -6.0817   17.9869 C.3     1  UNL1        0.1044
      7 C         -11.3113   -2.0541   17.5287 C.3     1  UNL1        0.0771
      8 C         -10.7707   -1.1419   16.4677 C.3     1  UNL1        0.0147
      9 C         -11.2849    0.2625   16.3529 C.3     1  UNL1        0.0671
     10 C         -12.3397    0.7547   17.2990 C.3     1  UNL1        0.2640
     11 F         -13.3256    1.6747   17.9558 F       1  UNL1       -0.2043
     12 F         -12.1415    1.9864   16.4662 F       1  UNL1       -0.2043
     13 C         -12.8803   -0.1575   18.3600 C.3     1  UNL1        0.0671
     14 C         -12.3661   -1.5619   18.4748 C.3     1  UNL1        0.0147
     15 C         -14.0737   -7.3395   18.2997 C.ar    1  UNL1        0.2395
     16 N         -15.5612   -7.2213   18.4526 N.ar    1  UNL1       -0.1907
     17 C         -16.1211   -8.6028   18.6202 C.ar    1  UNL1        0.2033
     18 N         -14.9797   -9.5747   18.5709 N.ar    1  UNL1       -0.0560
     19 O         -13.7143   -8.7939   18.3728 O.2     1  UNL1       -0.3369
     20 C         -17.5684   -8.9511   18.8047 C.ar    1  UNL1        0.0399
     21 C         -18.2934   -9.7286   17.7465 C.ar    1  UNL1        0.0032
     22 C         -19.7407  -10.0770   17.9310 C.ar    1  UNL1        0.0010
     23 C         -20.4629   -9.6477   19.1736 C.ar    1  UNL1        0.0114
     24 C         -19.7380   -8.8702   20.2318 C.ar    1  UNL1        0.0578
     25 CL        -20.4602   -8.4410   21.4744 Cl      1  UNL1       -0.0822
     26 C         -18.2907   -8.5219   20.0473 C.ar    1  UNL1        0.0145
@<TRIPOS>BOND
     1     1     2    2
     2     2     7    1
     3     7     8    1
     4     8     9    1
     5     9    10    1
     6    10    11    1
     7    10    12    1
     8    10    13    1
     9    13    14    1
    10     2     3   am
    11     3     4    1
    12     4     5    1
    13     5    15    1
    14    15    16   ar
    15    16    17   ar
    16    17    20    1
    17    20    21   ar
    18    21    22   ar
    19    22    23   ar
    20    23    24   ar
    21    24    25    1
    22    24    26   ar
    23    17    18   ar
    24    18    19   ar
    25     5     6    1
    26    14     7    1
    27     6     3    1
    28    19    15   ar
    29    26    20   ar
@<TRIPOS>MOLECULE
*****
 26 29 0 0 0
SMALL
GASTEIGER

@<TRIPOS>ATOM
      1 O           6.5080    1.7104   37.9347 O.2     1  UNL1       -0.2749
      2 C           5.2929    1.3009   37.1564 C.2     1  UNL1        0.2252
      3 N           5.4467    0.5727   35.8541 N.am    1  UNL1       -0.2784
      4 C           4.5005    0.0207   34.8294 C.3     1  UNL1        0.1044
      5 C           5.6642   -0.4572   34.0123 C.3     1  UNL1        0.1187
      6 C           6.6104    0.0948   35.0371 C.3     1  UNL1        0.1044
      7 C           3.9240    1.6197   37.6804 C.3     1  UNL1        0.0771
      8 C           3.2710    2.9234   37.3284 C.3     1  UNL1        0.0147
      9 C           1.9021    3.2420   37.8524 C.3     1  UNL1        0.0671
     10 C           1.1863    2.2570   38.7284 C.3     1  UNL1        0.2640
     11 F           0.1143    1.6519   39.5854 F       1  UNL1       -0.2043
     12 F           0.1610    3.3506   38.6741 F       1  UNL1       -0.2043
     13 C           1.8393    0.9533   39.0803 C.3     1  UNL1        0.0671
     14 C           3.2081    0.6346   38.5563 C.3     1  UNL1        0.0147
     15 C           5.8180   -1.1854   32.7100 C.ar    1  UNL1        0.2395
     16 N           6.4910   -2.5118   32.5156 N.ar    1  UNL1       -0.1907
     17 C           6.4147   -2.8612   31.0589 C.ar    1  UNL1        0.2033
     18 N           5.6947   -1.7508   30.3530 N.ar    1  UNL1       -0.0560
     19 O           5.3259   -0.7151   31.3734 O.2     1  UNL1       -0.3369
     20 C           6.9624   -4.1031   30.4202 C.ar    1  UNL1        0.0399
     21 C           7.8971   -4.9910   31.1869 C.ar    1  UNL1        0.0032
     22 C           8.4448   -6.2328   30.5483 C.ar    1  UNL1        0.0010
     23 C           8.0578   -6.5867   29.1430 C.ar    1  UNL1        0.0114
     24 C           7.1231   -5.6988   28.3763 C.ar    1  UNL1        0.0578
     25 CL          6.7361   -6.0527   26.9709 Cl      1  UNL1       -0.0822
     26 C           6.5754   -4.4570   29.0149 C.ar    1  UNL1        0.0145
@<TRIPOS>BOND
     1     1     2    2
     2     2     7    1
     3     7     8    1
     4     8     9    1
     5     9    10    1
     6    10    11    1
     7    10    12    1
     8    10    13    1
     9    13    14    1
    10     2     3   am
    11     3     4    1
    12     4     5    1
    13     5    15    1
    14    15    16   ar
    15    16    17   ar
    16    17    20    1
    17    20    21   ar
    18    21    22   ar
    19    22    23   ar
    20    23    24   ar
    21    24    25    1
    22    24    26   ar
    23    17    18   ar
    24    18    19   ar
    25     5     6    1
    26    14     7    1
    27     6     3    1
    28    19    15   ar
    29    26    20   ar
@<TRIPOS>MOLECULE
*****
 26 29 0 0 0
SMALL
GASTEIGER

@<TRIPOS>ATOM
      1 O          -2.5978    6.9103   20.6071 O.2     1  UNL1       -0.2749
      2 C          -2.9009    5.4988   21.0146 C.2     1  UNL1        0.2252
      3 N          -1.9669    4.3901   20.6298 N.am    1  UNL1       -0.2784
      4 C          -1.9352    2.9063   20.8475 C.3     1  UNL1        0.1044
      5 C          -0.6459    2.8220   20.0855 C.3     1  UNL1        0.1187
      6 C          -0.6775    4.3057   19.8678 C.3     1  UNL1        0.1044
      7 C          -4.1381    5.1963   21.8070 C.3     1  UNL1        0.0771
      8 C          -4.1656    5.4576   23.2837 C.3     1  UNL1        0.0147
      9 C          -5.4028    5.1551   24.0760 C.3     1  UNL1        0.0671
     10 C          -6.6125    4.5911   23.3915 C.3     1  UNL1        0.2640
     11 F          -7.9990    4.0530   23.1964 F       1  UNL1       -0.2043
     12 F          -7.1215    4.6656   24.8005 F       1  UNL1       -0.2043
     13 C          -6.5850    4.3297   21.9147 C.3     1  UNL1        0.0671
     14 C          -5.3478    4.6323   21.1225 C.3     1  UNL1        0.0147
     15 C           0.2882    1.7131   19.7007 C.ar    1  UNL1        0.2395
     16 N           1.0147    0.8039   20.6470 N.ar    1  UNL1       -0.1907
     17 C           1.8353   -0.1522   19.8331 C.ar    1  UNL1        0.2033
     18 N           1.6159    0.1661   18.3838 N.ar    1  UNL1       -0.0560
     19 O           0.6598    1.3190   18.3020 O.2     1  UNL1       -0.3369
     20 C           2.7199   -1.2363   20.3736 C.ar    1  UNL1        0.0399
     21 C           3.1865   -1.1830   21.7981 C.ar    1  UNL1        0.0032
     22 C           4.0711   -2.2671   22.3386 C.ar    1  UNL1        0.0010
     23 C           4.4891   -3.4045   21.4546 C.ar    1  UNL1        0.0114
     24 C           4.0225   -3.4579   20.0301 C.ar    1  UNL1        0.0578
     25 CL          4.4404   -4.5953   19.1460 Cl      1  UNL1       -0.0822
     26 C           3.1378   -2.3738   19.4896 C.ar    1  UNL1        0.0145
@<TRIPOS>BOND
     1     1     2    2
     2     2     7    1
     3     7     8    1
     4     8     9    1
     5     9    10    1
     6    10    11    1
     7    10    12    1
     8    10    13    1
     9    13    14    1
    10     2     3   am
    11     3     4    1
    12     4     5    1
    13     5    15    1
    14    15    16   ar
    15    16    17   ar
    16    17    20    1
    17    20    21   ar
    18    21    22   ar
    19    22    23   ar
    20    23    24   ar
    21    24    25    1
    22    24    26   ar
    23    17    18   ar
    24    18    19   ar
    25     5     6    1
    26    14     7    1
    27     6     3    1
    28    19    15   ar
    29    26    20   ar
@<TRIPOS>MOLECULE
*****
 26 29 0 0 0
SMALL
GASTEIGER

@<TRIPOS>ATOM
      1 O          -3.5646  -21.1157   19.0374 O.2     1  UNL1       -0.2749
      2 C          -3.8334  -20.0154   20.0208 C.2     1  UNL1        0.2252
      3 N          -5.0941  -20.0275   20.8336 N.am    1  UNL1       -0.2784
      4 C          -5.6904  -19.1328   21.8795 C.3     1  UNL1        0.1044
      5 C          -6.8770  -20.0445   21.9829 C.3     1  UNL1        0.1187
      6 C          -6.2807  -20.9392   20.9370 C.3     1  UNL1        0.1044
      7 C          -2.8416  -18.9031   20.1916 C.3     1  UNL1        0.0771
      8 C          -3.0411  -17.8792   21.2694 C.3     1  UNL1        0.0147
      9 C          -2.0493  -16.7670   21.4401 C.3     1  UNL1        0.0671
     10 C          -0.8579  -16.6787   20.5330 C.3     1  UNL1        0.2640
     11 F           0.4181  -16.1739   19.9272 F       1  UNL1       -0.2043
     12 F          -0.6143  -15.4794   21.4004 F       1  UNL1       -0.2043
     13 C          -0.6584  -17.7026   19.4552 C.3     1  UNL1        0.0671
     14 C          -1.6502  -18.8149   19.2845 C.3     1  UNL1        0.0147
     15 C          -8.1377  -20.0566   22.7957 C.ar    1  UNL1        0.2395
     16 N          -9.3566  -19.2193   22.5446 N.ar    1  UNL1       -0.1907
     17 C         -10.3731  -19.5533   23.5959 C.ar    1  UNL1        0.2033
     18 N          -9.7823  -20.5971   24.4967 N.ar    1  UNL1       -0.0560
     19 O          -8.4008  -20.9082   24.0021 O.2     1  UNL1       -0.3369
     20 C         -11.7402  -18.9496   23.7240 C.ar    1  UNL1        0.0399
     21 C         -12.3679  -18.2586   22.5499 C.ar    1  UNL1        0.0032
     22 C         -13.7350  -17.6549   22.6779 C.ar    1  UNL1        0.0010
     23 C         -14.4745  -17.7421   23.9800 C.ar    1  UNL1        0.0114
     24 C         -13.8469  -18.4330   25.1541 C.ar    1  UNL1        0.0578
     25 CL        -14.5863  -18.5202   26.4563 Cl      1  UNL1       -0.0822
     26 C         -12.4797  -19.0368   25.0261 C.ar    1  UNL1        0.0145
@<TRIPOS>BOND
     1     1     2    2
     2     2     7    1
     3     7     8    1
     4     8     9    1
     5     9    10    1
     6    10    11    1
     7    10    12    1
     8    10    13    1
     9    13    14    1
    10     2     3   am
    11     3     4    1
    12     4     5    1
    13     5    15    1
    14    15    16   ar
    15    16    17   ar
    16    17    20    1
    17    20    21   ar
    18    21    22   ar
    19    22    23   ar
    20    23    24   ar
    21    24    25    1
    22    24    26   ar
    23    17    18   ar
    24    18    19   ar
    25     5     6    1
    26    14     7    1
    27     6     3    1
    28    19    15   ar
    29    26    20   ar
@<TRIPOS>MOLECULE
*****
 26 29 0 0 0
SMALL
GASTEIGER

@<TRIPOS>ATOM
      1 O           3.5564   -0.9233   16.3779 O.2     1  UNL1       -0.2749
      2 C           3.6744   -0.8451   17.8713 C.2     1  UNL1        0.2252
      3 N           2.7514    0.0437   18.6510 N.am    1  UNL1       -0.2784
      4 C           2.5718    0.3731   20.1033 C.3     1  UNL1        0.1044
      5 C           1.4459    1.3006   19.7537 C.3     1  UNL1        0.1187
      6 C           1.6255    0.9711   18.3014 C.3     1  UNL1        0.1044
      7 C           4.7155   -1.6557   18.5848 C.3     1  UNL1        0.0771
      8 C           4.4217   -3.0723   18.9808 C.3     1  UNL1        0.0147
      9 C           5.4628   -3.8828   19.6943 C.3     1  UNL1        0.0671
     10 C           6.7977   -3.2767   20.0119 C.3     1  UNL1        0.2640
     11 F           8.1996   -3.1471   20.5294 F       1  UNL1       -0.2043
     12 F           6.9908   -4.6483   20.5876 F       1  UNL1       -0.2043
     13 C           7.0914   -1.8601   19.6159 C.3     1  UNL1        0.0671
     14 C           6.0504   -1.0496   18.9024 C.3     1  UNL1        0.0147
     15 C           0.5228    2.1894   20.5334 C.ar    1  UNL1        0.2395
     16 N          -0.9691    2.0569   20.6145 N.ar    1  UNL1       -0.1907
     17 C          -1.4844    3.1523   21.5001 C.ar    1  UNL1        0.2033
     18 N          -0.3109    3.9619   21.9664 N.ar    1  UNL1       -0.0560
     19 O           0.9296    3.3668   21.3690 O.2     1  UNL1       -0.3369
     20 C          -2.9209    3.3955   21.8568 C.ar    1  UNL1        0.0399
     21 C          -3.9538    3.5068   20.7749 C.ar    1  UNL1        0.0032
     22 C          -5.3903    3.7500   21.1316 C.ar    1  UNL1        0.0010
     23 C          -5.7939    3.8819   22.5702 C.ar    1  UNL1        0.0114
     24 C          -4.7611    3.7706   23.6522 C.ar    1  UNL1        0.0578
     25 CL         -5.1647    3.9024   25.0908 Cl      1  UNL1       -0.0822
     26 C          -3.3245    3.5274   23.2955 C.ar    1  UNL1        0.0145
@<TRIPOS>BOND
     1     1     2    2
     2     2     7    1
     3     7     8    1
     4     8     9    1
     5     9    10    1
     6    10    11    1
     7    10    12    1
     8    10    13    1
     9    13    14    1
    10     2     3   am
    11     3     4    1
    12     4     5    1
    13     5    15    1
    14    15    16   ar
    15    16    17   ar
    16    17    20    1
    17    20    21   ar
    18    21    22   ar
    19    22    23   ar
    20    23    24   ar
    21    24    25    1
    22    24    26   ar
    23    17    18   ar
    24    18    19   ar
    25     5     6    1
    26    14     7    1
    27     6     3    1
    28    19    15   ar
    29    26    20   ar
@<TRIPOS>MOLECULE
*****
 26 29 0 0 0
SMALL
GASTEIGER

@<TRIPOS>ATOM
      1 O           6.5252    2.2648   33.2330 O.2     1  UNL1       -0.2749
      2 C           5.8532    1.0628   33.8277 C.2     1  UNL1        0.2252
      3 N           6.0608   -0.2914   33.2169 N.am    1  UNL1       -0.2784
      4 C           5.5742   -1.6775   33.5200 C.3     1  UNL1        0.1044
      5 C           6.3544   -2.2066   32.3532 C.3     1  UNL1        0.1187
      6 C           6.8411   -0.8204   32.0501 C.3     1  UNL1        0.1044
      7 C           4.9736    1.2150   35.0331 C.3     1  UNL1        0.0771
      8 C           5.3159    0.4999   36.3065 C.3     1  UNL1        0.0147
      9 C           4.4362    0.6522   37.5119 C.3     1  UNL1        0.0671
     10 C           3.2143    1.5195   37.4439 C.3     1  UNL1        0.2640
     11 F           1.9600    2.2234   37.8697 F       1  UNL1       -0.2043
     12 F           3.1210    1.0489   38.8651 F       1  UNL1       -0.2043
     13 C           2.8720    2.2346   36.1706 C.3     1  UNL1        0.0671
     14 C           3.7516    2.0823   34.9652 C.3     1  UNL1        0.0147
     15 C           6.5621   -3.5608   31.7424 C.ar    1  UNL1        0.2395
     16 N           6.8587   -3.8409   30.2989 N.ar    1  UNL1       -0.1907
     17 C           6.9895   -5.3258   30.1323 C.ar    1  UNL1        0.2033
     18 N           6.7737   -5.9635   31.4727 N.ar    1  UNL1       -0.0560
     19 O           6.5096   -4.8726   32.4678 O.2     1  UNL1       -0.3369
     20 C           7.2843   -6.0466   28.8502 C.ar    1  UNL1        0.0399
     21 C           6.6029   -5.6285   27.5811 C.ar    1  UNL1        0.0032
     22 C           6.8977   -6.3493   26.2990 C.ar    1  UNL1        0.0010
     23 C           7.8739   -7.4881   26.2862 C.ar    1  UNL1        0.0114
     24 C           8.5553   -7.9062   27.5554 C.ar    1  UNL1        0.0578
     25 CL          9.5314   -9.0450   27.5426 Cl      1  UNL1       -0.0822
     26 C           8.2605   -7.1854   28.8374 C.ar    1  UNL1        0.0145
@<TRIPOS>BOND
     1     1     2    2
     2     2     7    1
     3     7     8    1
     4     8     9    1
     5     9    10    1
     6    10    11    1
     7    10    12    1
     8    10    13    1
     9    13    14    1
    10     2     3   am
    11     3     4    1
    12     4     5    1
    13     5    15    1
    14    15    16   ar
    15    16    17   ar
    16    17    20    1
    17    20    21   ar
    18    21    22   ar
    19    22    23   ar
    20    23    24   ar
    21    24    25    1
    22    24    26   ar
    23    17    18   ar
    24    18    19   ar
    25     5     6    1
    26    14     7    1
    27     6     3    1
    28    19    15   ar
    29    26    20   ar
