@<TRIPOS>MOLECULE
*****
 39 43 0 0 0
SMALL
GASTEIGER

@<TRIPOS>ATOM
      1 C           4.2807   -1.5076   24.2303 C.3     1  UNL1        0.1522
      2 C           3.4331   -1.3501   23.0027 C.3     1  UNL1        0.0313
      3 C           4.0328   -2.1906   21.9145 C.3     1  UNL1        0.0264
      4 C           5.2509   -2.8675   22.4696 C.3     1  UNL1        0.0942
      5 N           5.4041   -2.4454   23.9008 N.am    1  UNL1       -0.2713
      6 C           6.4900   -2.8839   24.8380 C.2     1  UNL1        0.2509
      7 O           6.5137   -2.3754   26.2490 O.2     1  UNL1       -0.2727
      8 O           4.3057    0.6250   25.7141 O.2     1  UNL1       -0.2730
      9 C           4.0460   -0.8438   25.5548 C.2     1  UNL1        0.2442
     10 N           3.5515   -1.6487   26.7200 N.am    1  UNL1       -0.2826
     11 H           3.3811   -2.6126   26.6154 H       1  UNL1        0.1549
     12 C           3.3168   -0.9848   28.0445 C.ar    1  UNL1        0.0505
     13 C           4.4749   -0.6883   28.9505 C.ar    1  UNL1        0.0178
     14 C           4.2401   -0.0246   30.2750 C.ar    1  UNL1        0.0388
     15 C           2.8473    0.3427   30.6934 C.ar    1  UNL1        0.1454
     16 C           1.6892    0.0463   29.7874 C.ar    1  UNL1        0.0388
     17 C           1.9240   -0.6175   28.4629 C.ar    1  UNL1        0.0178
     18 O           2.6126    1.0066   32.0179 O.3     1  UNL1       -0.4535
     19 C           3.4235    0.6028   33.2134 C.ar    1  UNL1        0.1454
     20 C           3.7173    1.6021   34.2928 C.ar    1  UNL1        0.0398
     21 C           4.5284    1.1982   35.4883 C.ar    1  UNL1        0.0328
     22 C           5.0455   -0.2050   35.6044 C.ar    1  UNL1        0.1403
     23 F           5.8565   -0.6088   36.7999 F       1  UNL1       -0.2042
     24 C           4.7517   -1.2043   34.5251 C.ar    1  UNL1        0.0328
     25 C           3.9408   -0.8005   33.3296 C.ar    1  UNL1        0.0398
     26 C           3.5067   -2.3298   20.5167 C.3     1  UNL1        0.0281
     27 C           2.7737   -1.1896   19.8743 C.ar    1  UNL1       -0.0220
     28 C           1.3690   -0.8703   20.2927 C.ar    1  UNL1       -0.0020
     29 C           0.6361    0.2699   19.6502 C.ar    1  UNL1        0.0293
     30 C           1.3077    1.0907   18.5894 C.ar    1  UNL1        0.1401
     31 F           0.5747    2.2308   17.9469 F       1  UNL1       -0.2042
     32 C           2.7124    0.7713   18.1710 C.ar    1  UNL1        0.0293
     33 C           3.4453   -0.3688   18.8135 C.ar    1  UNL1       -0.0020
     34 C           7.5523   -3.8311   24.3643 C.3     1  UNL1        0.2138
     35 N           7.5313   -5.2641   24.8071 N.ar    1  UNL1       -0.2208
     36 C           7.0971   -5.7648   26.1528 C.ar    1  UNL1        0.1198
     37 C           7.2382   -7.2582   26.1594 C.ar    1  UNL1        0.1441
     38 N           7.7595   -7.6803   24.8178 N.ar    1  UNL1       -0.1271
     39 N           7.9407   -6.4480   23.9820 N.ar    1  UNL1       -0.0633
@<TRIPOS>BOND
     1     8     9    2
     2     9    10   am
     3    10    12    1
     4    12    13   ar
     5    13    14   ar
     6    14    15   ar
     7    15    18    1
     8    18    19    1
     9    19    20   ar
    10    20    21   ar
    11    21    22   ar
    12    22    23    1
    13    22    24   ar
    14    24    25   ar
    15    15    16   ar
    16    16    17   ar
    17     1     9    1
    18     1     2    1
    19     2     3    1
    20     3    26    1
    21    26    27    1
    22    27    28   ar
    23    28    29   ar
    24    29    30   ar
    25    30    31    1
    26    30    32   ar
    27    32    33   ar
    28     3     4    1
    29     4     5    1
    30     5     6   am
    31     6     7    2
    32     6    34    1
    33    34    35    1
    34    35    36   ar
    35    36    37   ar
    36    37    38   ar
    37    38    39   ar
    38    17    12   ar
    39     5     1    1
    40    39    35   ar
    41    25    19   ar
    42    33    27   ar
    43    10    11    1
@<TRIPOS>MOLECULE
*****
 39 43 0 0 0
SMALL
GASTEIGER

@<TRIPOS>ATOM
      1 C           2.2846    1.5458   32.4339 C.3     1  UNL1        0.1522
      2 C           2.3778    2.4674   33.6138 C.3     1  UNL1        0.0313
      3 C           3.3506    1.8743   34.5895 C.3     1  UNL1        0.0264
      4 C           3.8586    0.5861   34.0125 C.3     1  UNL1        0.0942
      5 N           3.1997    0.3832   32.6804 N.am    1  UNL1       -0.2713
      6 C           3.4177   -0.7784   31.7568 C.2     1  UNL1        0.2509
      7 O           2.6843   -0.8456   30.4500 O.2     1  UNL1       -0.2727
      8 O          -0.0678    1.7237   31.3454 O.2     1  UNL1       -0.2730
      9 C           1.4268    1.7510   31.2206 C.2     1  UNL1        0.2442
     10 N           2.0635    1.9835   29.8825 N.am    1  UNL1       -0.2826
     11 H           3.0444    2.0014   29.8006 H       1  UNL1        0.1549
     12 C           1.2057    2.1887   28.6692 C.ar    1  UNL1        0.0505
     13 C           0.5194    1.0184   28.0292 C.ar    1  UNL1        0.0178
     14 C          -0.3383    1.2236   26.8160 C.ar    1  UNL1        0.0388
     15 C          -0.5099    2.5991   26.2426 C.ar    1  UNL1        0.1454
     16 C           0.1763    3.7693   26.8826 C.ar    1  UNL1        0.0388
     17 C           1.0341    3.5641   28.0958 C.ar    1  UNL1        0.0178
     18 O          -1.3677    2.8043   25.0293 O.3     1  UNL1       -0.4535
     19 C          -2.7338    3.4075   25.1699 C.ar    1  UNL1        0.1454
     20 C          -3.5750    3.6513   23.9522 C.ar    1  UNL1        0.0398
     21 C          -4.9412    4.2545   24.0928 C.ar    1  UNL1        0.0328
     22 C          -5.4661    4.6139   25.4512 C.ar    1  UNL1        0.1403
     23 F          -6.8322    5.2172   25.5918 F       1  UNL1       -0.2042
     24 C          -4.6249    4.3701   26.6690 C.ar    1  UNL1        0.0328
     25 C          -3.2588    3.7669   26.5284 C.ar    1  UNL1        0.0398
     26 C           3.7460    2.4654   35.9101 C.3     1  UNL1        0.0281
     27 C           2.9122    2.2029   37.1291 C.ar    1  UNL1       -0.0220
     28 C           1.9092    3.2208   37.5851 C.ar    1  UNL1       -0.0020
     29 C           1.0754    2.9583   38.8040 C.ar    1  UNL1        0.0293
     30 C           1.2446    1.6780   39.5670 C.ar    1  UNL1        0.1401
     31 F           0.4108    1.4155   40.7860 F       1  UNL1       -0.2042
     32 C           2.2477    0.6601   39.1110 C.ar    1  UNL1        0.0293
     33 C           3.0815    0.9226   37.8921 C.ar    1  UNL1       -0.0020
     34 C           4.3692   -1.8730   32.1398 C.3     1  UNL1        0.2138
     35 N           5.6711   -2.0245   31.4104 N.ar    1  UNL1       -0.2208
     36 C           6.5214   -0.9071   30.8829 C.ar    1  UNL1        0.1198
     37 C           7.7271   -1.5121   30.2269 C.ar    1  UNL1        0.1441
     38 N           7.6219   -3.0034   30.3491 N.ar    1  UNL1       -0.1271
     39 N           6.3512   -3.3201   31.0805 N.ar    1  UNL1       -0.0633
@<TRIPOS>BOND
     1     8     9    2
     2     9    10   am
     3    10    12    1
     4    12    13   ar
     5    13    14   ar
     6    14    15   ar
     7    15    18    1
     8    18    19    1
     9    19    20   ar
    10    20    21   ar
    11    21    22   ar
    12    22    23    1
    13    22    24   ar
    14    24    25   ar
    15    15    16   ar
    16    16    17   ar
    17     1     9    1
    18     1     2    1
    19     2     3    1
    20     3    26    1
    21    26    27    1
    22    27    28   ar
    23    28    29   ar
    24    29    30   ar
    25    30    31    1
    26    30    32   ar
    27    32    33   ar
    28     3     4    1
    29     4     5    1
    30     5     6   am
    31     6     7    2
    32     6    34    1
    33    34    35    1
    34    35    36   ar
    35    36    37   ar
    36    37    38   ar
    37    38    39   ar
    38    17    12   ar
    39     5     1    1
    40    39    35   ar
    41    25    19   ar
    42    33    27   ar
    43    10    11    1
@<TRIPOS>MOLECULE
*****
 39 43 0 0 0
SMALL
GASTEIGER

@<TRIPOS>ATOM
      1 C           4.2910   -1.6774   24.2225 C.3     1  UNL1        0.1522
      2 C           3.5765   -1.3864   22.9361 C.3     1  UNL1        0.0313
      3 C           4.0909   -2.3361   21.8951 C.3     1  UNL1        0.0264
      4 C           5.1232   -3.2141   22.5383 C.3     1  UNL1        0.0942
      5 N           5.2468   -2.8069   23.9767 N.am    1  UNL1       -0.2713
      6 C           6.1651   -3.4213   24.9912 C.2     1  UNL1        0.2509
      7 O           6.1788   -2.9061   26.3999 O.2     1  UNL1       -0.2727
      8 O           4.4201    0.4935   25.6441 O.2     1  UNL1       -0.2730
      9 C           4.0855   -0.9640   25.5260 C.2     1  UNL1        0.2442
     10 N           3.5455   -1.7080   26.7112 N.am    1  UNL1       -0.2826
     11 H           3.3259   -2.6646   26.6336 H       1  UNL1        0.1549
     12 C           3.3401   -0.9946   28.0147 C.ar    1  UNL1        0.0505
     13 C           4.5207   -0.6353   28.8672 C.ar    1  UNL1        0.0178
     14 C           4.3152    0.0781   30.1706 C.ar    1  UNL1        0.0388
     15 C           2.9291    0.4321   30.6214 C.ar    1  UNL1        0.1454
     16 C           1.7484    0.0728   29.7689 C.ar    1  UNL1        0.0388
     17 C           1.9539   -0.6406   28.4655 C.ar    1  UNL1        0.0178
     18 O           2.7236    1.1455   31.9249 O.3     1  UNL1       -0.4535
     19 C           3.4828    0.7133   33.1442 C.ar    1  UNL1        0.1454
     20 C           3.9003   -0.7191   33.2992 C.ar    1  UNL1        0.0398
     21 C           4.6595   -1.1513   34.5186 C.ar    1  UNL1        0.0328
     22 C           5.0012   -0.1511   35.5829 C.ar    1  UNL1        0.1403
     23 F           5.7603   -0.5833   36.8023 F       1  UNL1       -0.2042
     24 C           4.5836    1.2813   35.4280 C.ar    1  UNL1        0.0328
     25 C           3.8245    1.7135   34.2087 C.ar    1  UNL1        0.0398
     26 C           3.6503   -2.3972   20.4626 C.3     1  UNL1        0.0281
     27 C           4.4348   -1.6782   19.4054 C.ar    1  UNL1       -0.0220
     28 C           3.8892   -0.4239   18.7896 C.ar    1  UNL1       -0.0020
     29 C           4.6736    0.2951   17.7324 C.ar    1  UNL1        0.0293
     30 C           6.0035   -0.2402   17.2909 C.ar    1  UNL1        0.1401
     31 F           6.7879    0.4787   16.2337 F       1  UNL1       -0.2042
     32 C           6.5490   -1.4946   17.9067 C.ar    1  UNL1        0.0293
     33 C           5.7646   -2.2136   18.9639 C.ar    1  UNL1       -0.0020
     34 C           7.0697   -4.5511   24.5971 C.3     1  UNL1        0.2138
     35 N           7.6553   -5.4453   25.6494 N.ar    1  UNL1       -0.2208
     36 C           6.8957   -6.4170   26.5032 C.ar    1  UNL1        0.1198
     37 C           7.8743   -7.0970   27.4143 C.ar    1  UNL1        0.1441
     38 N           9.2386   -6.5456   27.1235 N.ar    1  UNL1       -0.1271
     39 N           9.1033   -5.5248   26.0328 N.ar    1  UNL1       -0.0633
@<TRIPOS>BOND
     1     8     9    2
     2     9    10   am
     3    10    12    1
     4    12    13   ar
     5    13    14   ar
     6    14    15   ar
     7    15    18    1
     8    18    19    1
     9    19    20   ar
    10    20    21   ar
    11    21    22   ar
    12    22    23    1
    13    22    24   ar
    14    24    25   ar
    15    15    16   ar
    16    16    17   ar
    17     1     9    1
    18     1     2    1
    19     2     3    1
    20     3    26    1
    21    26    27    1
    22    27    28   ar
    23    28    29   ar
    24    29    30   ar
    25    30    31    1
    26    30    32   ar
    27    32    33   ar
    28     3     4    1
    29     4     5    1
    30     5     6   am
    31     6     7    2
    32     6    34    1
    33    34    35    1
    34    35    36   ar
    35    36    37   ar
    36    37    38   ar
    37    38    39   ar
    38    17    12   ar
    39     5     1    1
    40    39    35   ar
    41    25    19   ar
    42    33    27   ar
    43    10    11    1
@<TRIPOS>MOLECULE
*****
 39 43 0 0 0
SMALL
GASTEIGER

@<TRIPOS>ATOM
      1 C           1.4012    1.1693   23.4844 C.3     1  UNL1        0.1522
      2 C           1.7627    0.2398   22.3639 C.3     1  UNL1        0.0313
      3 C           0.9798    0.6489   21.1515 C.3     1  UNL1        0.0264
      4 C           0.1345    1.8312   21.5228 C.3     1  UNL1        0.0942
      5 N           0.3950    2.1528   22.9645 N.am    1  UNL1       -0.2713
      6 C          -0.2393    3.2630   23.7488 C.2     1  UNL1        0.2509
      7 O           0.1214    3.4638   25.1908 O.2     1  UNL1       -0.2727
      8 O           3.3825    1.4872   25.1347 O.2     1  UNL1       -0.2730
      9 C           1.9498    1.1233   24.8798 C.2     1  UNL1        0.2442
     10 N           1.0656    0.7136   26.0201 N.am    1  UNL1       -0.2826
     11 H           0.1253    0.4748   25.8527 H       1  UNL1        0.1549
     12 C           1.6142    0.6676   27.4155 C.ar    1  UNL1        0.0505
     13 C           2.5277   -0.4491   27.8258 C.ar    1  UNL1        0.0178
     14 C           3.0762   -0.4951   29.2211 C.ar    1  UNL1        0.0388
     15 C           2.7112    0.5757   30.2061 C.ar    1  UNL1        0.1454
     16 C           1.7977    1.6924   29.7958 C.ar    1  UNL1        0.0388
     17 C           1.2492    1.7384   28.4005 C.ar    1  UNL1        0.0178
     18 O           3.2597    0.5297   31.6015 O.3     1  UNL1       -0.4535
     19 C           4.4465   -0.3332   31.9128 C.ar    1  UNL1        0.1454
     20 C           4.2467   -1.7058   32.4838 C.ar    1  UNL1        0.0398
     21 C           5.4336   -2.5687   32.7951 C.ar    1  UNL1        0.0328
     22 C           6.8202   -2.0590   32.5353 C.ar    1  UNL1        0.1403
     23 F           8.0069   -2.9219   32.8466 F       1  UNL1       -0.2042
     24 C           7.0200   -0.6864   31.9643 C.ar    1  UNL1        0.0328
     25 C           5.8332    0.1765   31.6530 C.ar    1  UNL1        0.0398
     26 C           1.0328   -0.0089   19.8045 C.3     1  UNL1        0.0281
     27 C           2.3200   -0.5970   19.3072 C.ar    1  UNL1       -0.0220
     28 C           2.8479   -1.8647   19.9109 C.ar    1  UNL1       -0.0020
     29 C           4.1350   -2.4529   19.4136 C.ar    1  UNL1        0.0293
     30 C           4.8942   -1.7734   18.3127 C.ar    1  UNL1        0.1401
     31 F           6.1814   -2.3616   17.8155 F       1  UNL1       -0.2042
     32 C           4.3663   -0.5057   17.7091 C.ar    1  UNL1        0.0293
     33 C           3.0792    0.0824   18.2063 C.ar    1  UNL1       -0.0020
     34 C          -1.2346    4.1724   23.0910 C.3     1  UNL1        0.2138
     35 N          -2.6218    3.6814   22.8006 N.ar    1  UNL1       -0.2208
     36 C          -3.7642    3.6409   23.7718 C.ar    1  UNL1        0.1198
     37 C          -4.9587    3.0792   23.0593 C.ar    1  UNL1        0.1441
     38 N          -4.5545    2.7724   21.6478 N.ar    1  UNL1       -0.1271
     39 N          -3.1103    3.1446   21.4878 N.ar    1  UNL1       -0.0633
@<TRIPOS>BOND
     1     8     9    2
     2     9    10   am
     3    10    12    1
     4    12    13   ar
     5    13    14   ar
     6    14    15   ar
     7    15    18    1
     8    18    19    1
     9    19    20   ar
    10    20    21   ar
    11    21    22   ar
    12    22    23    1
    13    22    24   ar
    14    24    25   ar
    15    15    16   ar
    16    16    17   ar
    17     1     9    1
    18     1     2    1
    19     2     3    1
    20     3    26    1
    21    26    27    1
    22    27    28   ar
    23    28    29   ar
    24    29    30   ar
    25    30    31    1
    26    30    32   ar
    27    32    33   ar
    28     3     4    1
    29     4     5    1
    30     5     6   am
    31     6     7    2
    32     6    34    1
    33    34    35    1
    34    35    36   ar
    35    36    37   ar
    36    37    38   ar
    37    38    39   ar
    38    17    12   ar
    39     5     1    1
    40    39    35   ar
    41    25    19   ar
    42    33    27   ar
    43    10    11    1
@<TRIPOS>MOLECULE
*****
 39 43 0 0 0
SMALL
GASTEIGER

@<TRIPOS>ATOM
      1 C           4.2903   -1.6792   24.2594 C.3     1  UNL1        0.1522
      2 C           3.5917   -1.3834   22.9654 C.3     1  UNL1        0.0313
      3 C           4.1379   -2.3115   21.9211 C.3     1  UNL1        0.0264
      4 C           5.1741   -3.1808   22.5699 C.3     1  UNL1        0.0942
      5 N           5.2682   -2.7900   24.0150 N.am    1  UNL1       -0.2713
      6 C           6.1802   -3.4024   25.0364 C.2     1  UNL1        0.2509
      7 O           6.1632   -2.9049   26.4513 O.2     1  UNL1       -0.2727
      8 O           4.3316    0.4821   25.7007 O.2     1  UNL1       -0.2730
      9 C           4.0526   -0.9858   25.5682 C.2     1  UNL1        0.2442
     10 N           3.5360   -1.7602   26.7443 N.am    1  UNL1       -0.2826
     11 H           3.3529   -2.7236   26.6573 H       1  UNL1        0.1549
     12 C           3.2983   -1.0668   28.0530 C.ar    1  UNL1        0.0505
     13 C           4.4220   -0.9114   29.0344 C.ar    1  UNL1        0.0178
     14 C           4.1843   -0.2180   30.3431 C.ar    1  UNL1        0.0388
     15 C           2.8229    0.3200   30.6704 C.ar    1  UNL1        0.1454
     16 C           1.6992    0.1646   29.6890 C.ar    1  UNL1        0.0388
     17 C           1.9369   -0.5288   28.3803 C.ar    1  UNL1        0.0178
     18 O           2.5852    1.0134   31.9791 O.3     1  UNL1       -0.4535
     19 C           2.1060    2.4346   31.9987 C.ar    1  UNL1        0.1454
     20 C           0.6389    2.7302   32.0988 C.ar    1  UNL1        0.0398
     21 C           0.1597    4.1515   32.1184 C.ar    1  UNL1        0.0328
     22 C           1.1478    5.2772   32.0378 C.ar    1  UNL1        0.1403
     23 F           0.6686    6.6985   32.0574 F       1  UNL1       -0.2042
     24 C           2.6150    4.9817   31.9377 C.ar    1  UNL1        0.0328
     25 C           3.0941    3.5604   31.9181 C.ar    1  UNL1        0.0398
     26 C           3.7212   -2.3616   20.4810 C.3     1  UNL1        0.0281
     27 C           3.0407   -1.1801   19.8557 C.ar    1  UNL1       -0.0220
     28 C           1.5915   -0.9139   20.1367 C.ar    1  UNL1       -0.0020
     29 C           0.9110    0.2676   19.5113 C.ar    1  UNL1        0.0293
     30 C           1.6798    1.1829   18.6051 C.ar    1  UNL1        0.1401
     31 F           0.9993    2.3644   17.9798 F       1  UNL1       -0.2042
     32 C           3.1291    0.9167   18.3242 C.ar    1  UNL1        0.0293
     33 C           3.8095   -0.2648   18.9495 C.ar    1  UNL1       -0.0020
     34 C           7.1093   -4.5123   24.6428 C.3     1  UNL1        0.2138
     35 N           7.6516   -5.4424   25.6872 N.ar    1  UNL1       -0.2208
     36 C           8.9604   -5.2952   26.4050 C.ar    1  UNL1        0.1198
     37 C           9.0979   -6.4449   27.3586 C.ar    1  UNL1        0.1441
     38 N           7.8741   -7.3026   27.2301 N.ar    1  UNL1       -0.1271
     39 N           6.9802   -6.6831   26.1972 N.ar    1  UNL1       -0.0633
@<TRIPOS>BOND
     1     8     9    2
     2     9    10   am
     3    10    12    1
     4    12    13   ar
     5    13    14   ar
     6    14    15   ar
     7    15    18    1
     8    18    19    1
     9    19    20   ar
    10    20    21   ar
    11    21    22   ar
    12    22    23    1
    13    22    24   ar
    14    24    25   ar
    15    15    16   ar
    16    16    17   ar
    17     1     9    1
    18     1     2    1
    19     2     3    1
    20     3    26    1
    21    26    27    1
    22    27    28   ar
    23    28    29   ar
    24    29    30   ar
    25    30    31    1
    26    30    32   ar
    27    32    33   ar
    28     3     4    1
    29     4     5    1
    30     5     6   am
    31     6     7    2
    32     6    34    1
    33    34    35    1
    34    35    36   ar
    35    36    37   ar
    36    37    38   ar
    37    38    39   ar
    38    17    12   ar
    39     5     1    1
    40    39    35   ar
    41    25    19   ar
    42    33    27   ar
    43    10    11    1
@<TRIPOS>MOLECULE
*****
 39 43 0 0 0
SMALL
GASTEIGER

@<TRIPOS>ATOM
      1 C           4.3240   -1.6573   24.9815 C.3     1  UNL1        0.1522
      2 C           3.8247   -2.0855   23.6334 C.3     1  UNL1        0.0313
      3 C           4.7635   -3.1273   23.1009 C.3     1  UNL1        0.0264
      4 C           5.8430   -3.3429   24.1199 C.3     1  UNL1        0.0942
      5 N           5.5713   -2.4344   25.2822 N.am    1  UNL1       -0.2713
      6 C           6.4012   -2.3225   26.5266 C.2     1  UNL1        0.2509
      7 O           6.0032   -1.3644   27.6100 O.2     1  UNL1       -0.2727
      8 O           3.6052    0.7988   25.4298 O.2     1  UNL1       -0.2730
      9 C           3.6876   -0.6320   25.8725 C.2     1  UNL1        0.2442
     10 N           3.1337   -1.0375   27.2061 N.am    1  UNL1       -0.2826
     11 H           3.1877   -1.9766   27.4967 H       1  UNL1        0.1549
     12 C           2.4973   -0.0122   28.0971 C.ar    1  UNL1        0.0505
     13 C           1.0428   -0.1218   28.4470 C.ar    1  UNL1        0.0178
     14 C           0.4065    0.9035   29.3380 C.ar    1  UNL1        0.0388
     15 C           1.2246    2.0384   29.8790 C.ar    1  UNL1        0.1454
     16 C           2.6791    2.1479   29.5291 C.ar    1  UNL1        0.0388
     17 C           3.3154    1.1227   28.6382 C.ar    1  UNL1        0.0178
     18 O           0.5882    3.0637   30.7700 O.3     1  UNL1       -0.4535
     19 C           1.0572    3.2215   32.1860 C.ar    1  UNL1        0.1454
     20 C           1.8194    2.1142   32.8515 C.ar    1  UNL1        0.0398
     21 C           2.2884    2.2721   34.2676 C.ar    1  UNL1        0.0328
     22 C           1.9951    3.5372   35.0181 C.ar    1  UNL1        0.1403
     23 F           2.4640    3.6950   36.4341 F       1  UNL1       -0.2042
     24 C           1.2329    4.6445   34.3527 C.ar    1  UNL1        0.0328
     25 C           0.7639    4.4867   32.9367 C.ar    1  UNL1        0.0398
     26 C           4.6439   -3.8301   21.7811 C.3     1  UNL1        0.0281
     27 C           4.6005   -3.0356   20.5095 C.ar    1  UNL1       -0.0220
     28 C           5.7201   -3.1463   19.5175 C.ar    1  UNL1       -0.0020
     29 C           5.6767   -2.3518   18.2459 C.ar    1  UNL1        0.0293
     30 C           4.5137   -1.4466   17.9665 C.ar    1  UNL1        0.1401
     31 F           4.4703   -0.6521   16.6949 F       1  UNL1       -0.2042
     32 C           3.3941   -1.3359   18.9586 C.ar    1  UNL1        0.0293
     33 C           3.4375   -2.1304   20.2301 C.ar    1  UNL1       -0.0020
     34 C           7.6293   -3.1687   26.6878 C.3     1  UNL1        0.2138
     35 N           7.6604   -4.2566   27.7200 N.ar    1  UNL1       -0.2208
     36 C           6.5835   -4.5531   28.7212 C.ar    1  UNL1        0.1198
     37 C           7.0315   -5.7187   29.5523 C.ar    1  UNL1        0.1441
     38 N           8.3852   -6.1425   29.0647 N.ar    1  UNL1       -0.1271
     39 N           8.7739   -5.2389   27.9323 N.ar    1  UNL1       -0.0633
@<TRIPOS>BOND
     1     8     9    2
     2     9    10   am
     3    10    12    1
     4    12    13   ar
     5    13    14   ar
     6    14    15   ar
     7    15    18    1
     8    18    19    1
     9    19    20   ar
    10    20    21   ar
    11    21    22   ar
    12    22    23    1
    13    22    24   ar
    14    24    25   ar
    15    15    16   ar
    16    16    17   ar
    17     1     9    1
    18     1     2    1
    19     2     3    1
    20     3    26    1
    21    26    27    1
    22    27    28   ar
    23    28    29   ar
    24    29    30   ar
    25    30    31    1
    26    30    32   ar
    27    32    33   ar
    28     3     4    1
    29     4     5    1
    30     5     6   am
    31     6     7    2
    32     6    34    1
    33    34    35    1
    34    35    36   ar
    35    36    37   ar
    36    37    38   ar
    37    38    39   ar
    38    17    12   ar
    39     5     1    1
    40    39    35   ar
    41    25    19   ar
    42    33    27   ar
    43    10    11    1
@<TRIPOS>MOLECULE
*****
 39 43 0 0 0
SMALL
GASTEIGER

@<TRIPOS>ATOM
      1 C           6.0127   -1.1583   29.2297 C.3     1  UNL1        0.1522
      2 C           7.0667   -1.0164   30.2875 C.3     1  UNL1        0.0313
      3 C           6.3906   -0.6120   31.5641 C.3     1  UNL1        0.0264
      4 C           4.9188   -0.5041   31.2950 C.3     1  UNL1        0.0942
      5 N           4.6853   -0.8417   29.8523 N.am    1  UNL1       -0.2713
      6 C           3.3576   -0.8597   29.1547 C.2     1  UNL1        0.2509
      7 O           3.2792   -1.2188   27.7004 O.2     1  UNL1       -0.2727
      8 O           6.9933   -0.6263   26.8832 O.2     1  UNL1       -0.2730
      9 C           6.2454   -1.5484   27.8000 C.2     1  UNL1        0.2442
     10 N           5.7303   -2.8605   27.2872 N.am    1  UNL1       -0.2826
     11 H           5.2395   -3.4657   27.8890 H       1  UNL1        0.1549
     12 C           5.9630   -3.2506   25.8576 C.ar    1  UNL1        0.0505
     13 C           5.2113   -2.5586   24.7595 C.ar    1  UNL1        0.0178
     14 C           5.4440   -2.9487   23.3300 C.ar    1  UNL1        0.0388
     15 C           6.4285   -4.0308   22.9986 C.ar    1  UNL1        0.1454
     16 C           7.1803   -4.7228   24.0967 C.ar    1  UNL1        0.0388
     17 C           6.9475   -4.3327   25.5262 C.ar    1  UNL1        0.0178
     18 O           6.6612   -4.4209   21.5689 O.3     1  UNL1       -0.4535
     19 C           5.9595   -3.6842   20.4668 C.ar    1  UNL1        0.1454
     20 C           4.5838   -4.1041   20.0412 C.ar    1  UNL1        0.0398
     21 C           3.8821   -3.3673   18.9390 C.ar    1  UNL1        0.0328
     22 C           4.5561   -2.2107   18.2623 C.ar    1  UNL1        0.1403
     23 F           3.8543   -1.4741   17.1602 F       1  UNL1       -0.2042
     24 C           5.9318   -1.7908   18.6878 C.ar    1  UNL1        0.0328
     25 C           6.6335   -2.5275   19.7900 C.ar    1  UNL1        0.0398
     26 C           7.0674   -0.3599   32.8787 C.3     1  UNL1        0.0281
     27 C           6.2839    0.1942   34.0316 C.ar    1  UNL1       -0.0220
     28 C           6.1808    1.6782   34.2240 C.ar    1  UNL1       -0.0020
     29 C           5.3973    2.2323   35.3769 C.ar    1  UNL1        0.0293
     30 C           4.7169    1.3024   36.3372 C.ar    1  UNL1        0.1401
     31 F           3.9333    1.8565   37.4901 F       1  UNL1       -0.2042
     32 C           4.8200   -0.1817   36.1447 C.ar    1  UNL1        0.0293
     33 C           5.6035   -0.7357   34.9919 C.ar    1  UNL1       -0.0020
     34 C           2.1081   -0.5185   29.9114 C.3     1  UNL1        0.2138
     35 N           0.9216    0.0432   29.1857 N.ar    1  UNL1       -0.2208
     36 C           0.9365    1.2069   28.2394 C.ar    1  UNL1        0.1198
     37 C          -0.4641    1.4227   27.7478 C.ar    1  UNL1        0.1441
     38 N          -1.3447    0.3923   28.3903 N.ar    1  UNL1       -0.1271
     39 N          -0.4883   -0.4602   29.2790 N.ar    1  UNL1       -0.0633
@<TRIPOS>BOND
     1     8     9    2
     2     9    10   am
     3    10    12    1
     4    12    13   ar
     5    13    14   ar
     6    14    15   ar
     7    15    18    1
     8    18    19    1
     9    19    20   ar
    10    20    21   ar
    11    21    22   ar
    12    22    23    1
    13    22    24   ar
    14    24    25   ar
    15    15    16   ar
    16    16    17   ar
    17     1     9    1
    18     1     2    1
    19     2     3    1
    20     3    26    1
    21    26    27    1
    22    27    28   ar
    23    28    29   ar
    24    29    30   ar
    25    30    31    1
    26    30    32   ar
    27    32    33   ar
    28     3     4    1
    29     4     5    1
    30     5     6   am
    31     6     7    2
    32     6    34    1
    33    34    35    1
    34    35    36   ar
    35    36    37   ar
    36    37    38   ar
    37    38    39   ar
    38    17    12   ar
    39     5     1    1
    40    39    35   ar
    41    25    19   ar
    42    33    27   ar
    43    10    11    1
@<TRIPOS>MOLECULE
*****
 39 43 0 0 0
SMALL
GASTEIGER

@<TRIPOS>ATOM
      1 C           4.4771   -0.1315   24.8749 C.3     1  UNL1        0.1522
      2 C           5.3921   -0.7620   25.8826 C.3     1  UNL1        0.0313
      3 C           6.4022   -1.5857   25.1400 C.3     1  UNL1        0.0264
      4 C           6.1115   -1.4641   23.6734 C.3     1  UNL1        0.0942
      5 N           4.9217   -0.5654   23.5096 N.am    1  UNL1       -0.2713
      6 C           4.2879   -0.1701   22.2090 C.2     1  UNL1        0.2509
      7 O           3.0962    0.7409   22.2016 O.2     1  UNL1       -0.2727
      8 O           3.5691    2.1614   25.6924 O.2     1  UNL1       -0.2730
      9 C           3.3206    0.7740   25.1792 C.2     1  UNL1        0.2442
     10 N           1.9156    0.2921   24.9703 N.am    1  UNL1       -0.2826
     11 H           1.7525   -0.6185   24.6335 H       1  UNL1        0.1549
     12 C           0.7590    1.1976   25.2746 C.ar    1  UNL1        0.0505
     13 C           0.2802    2.1753   24.2427 C.ar    1  UNL1        0.0178
     14 C          -0.8762    3.0807   24.5470 C.ar    1  UNL1        0.0388
     15 C          -1.5540    3.0085   25.8833 C.ar    1  UNL1        0.1454
     16 C          -1.0752    2.0308   26.9151 C.ar    1  UNL1        0.0388
     17 C           0.0813    1.1253   26.6108 C.ar    1  UNL1        0.0178
     18 O          -2.7105    3.9140   26.1876 O.3     1  UNL1       -0.4535
     19 C          -3.9036    3.9379   25.2788 C.ar    1  UNL1        0.1454
     20 C          -5.1491    4.6628   25.6951 C.ar    1  UNL1        0.0398
     21 C          -6.3422    4.6867   24.7862 C.ar    1  UNL1        0.0328
     22 C          -6.2898    3.9859   23.4611 C.ar    1  UNL1        0.1403
     23 F          -7.4829    4.0099   22.5523 F       1  UNL1       -0.2042
     24 C          -5.0443    3.2610   23.0448 C.ar    1  UNL1        0.0328
     25 C          -3.8512    3.2371   23.9536 C.ar    1  UNL1        0.0398
     26 C           7.5087   -2.3896   25.7559 C.3     1  UNL1        0.0281
     27 C           7.3671   -3.8763   25.8962 C.ar    1  UNL1       -0.0220
     28 C           7.8949   -4.7843   24.8252 C.ar    1  UNL1       -0.0020
     29 C           7.7534   -6.2710   24.9656 C.ar    1  UNL1        0.0293
     30 C           7.0840   -6.8496   26.1769 C.ar    1  UNL1        0.1401
     31 F           6.9425   -8.3363   26.3172 F       1  UNL1       -0.2042
     32 C           6.5562   -5.9415   27.2479 C.ar    1  UNL1        0.0293
     33 C           6.6978   -4.4549   27.1075 C.ar    1  UNL1       -0.0020
     34 C           4.8457   -0.6857   20.9155 C.3     1  UNL1        0.2138
     35 N           4.5394   -2.0853   20.4714 N.ar    1  UNL1       -0.2208
     36 C           3.3400   -2.5170   19.6808 C.ar    1  UNL1        0.1198
     37 C           3.4382   -3.9975   19.4609 C.ar    1  UNL1        0.1441
     38 N           4.6983   -4.4808   20.1155 N.ar    1  UNL1       -0.1271
     39 N           5.3789   -3.2990   20.7401 N.ar    1  UNL1       -0.0633
@<TRIPOS>BOND
     1     8     9    2
     2     9    10   am
     3    10    12    1
     4    12    13   ar
     5    13    14   ar
     6    14    15   ar
     7    15    18    1
     8    18    19    1
     9    19    20   ar
    10    20    21   ar
    11    21    22   ar
    12    22    23    1
    13    22    24   ar
    14    24    25   ar
    15    15    16   ar
    16    16    17   ar
    17     1     9    1
    18     1     2    1
    19     2     3    1
    20     3    26    1
    21    26    27    1
    22    27    28   ar
    23    28    29   ar
    24    29    30   ar
    25    30    31    1
    26    30    32   ar
    27    32    33   ar
    28     3     4    1
    29     4     5    1
    30     5     6   am
    31     6     7    2
    32     6    34    1
    33    34    35    1
    34    35    36   ar
    35    36    37   ar
    36    37    38   ar
    37    38    39   ar
    38    17    12   ar
    39     5     1    1
    40    39    35   ar
    41    25    19   ar
    42    33    27   ar
    43    10    11    1
@<TRIPOS>MOLECULE
*****
 39 43 0 0 0
SMALL
GASTEIGER

@<TRIPOS>ATOM
      1 C           3.9918    0.2911   32.9032 C.3     1  UNL1        0.1522
      2 C           3.6885    1.0967   34.1316 C.3     1  UNL1        0.0313
      3 C           4.7919    0.8659   35.1214 C.3     1  UNL1        0.0264
      4 C           5.7770   -0.0824   34.5045 C.3     1  UNL1        0.0942
      5 N           5.2825   -0.4375   33.1336 N.am    1  UNL1       -0.2713
      6 C           5.9597   -1.3595   32.1635 C.2     1  UNL1        0.2509
      7 O           5.3429   -1.6206   30.8213 O.2     1  UNL1       -0.2727
      8 O           2.4604   -1.0526   31.2910 O.2     1  UNL1       -0.2730
      9 C           3.1517    0.2258   31.6621 C.2     1  UNL1        0.2442
     10 N           3.0031    1.4387   30.7924 N.am    1  UNL1       -0.2826
     11 H           3.4569    2.2777   31.0360 H       1  UNL1        0.1549
     12 C           2.1630    1.3733   29.5513 C.ar    1  UNL1        0.0505
     13 C           0.6669    1.3659   29.6579 C.ar    1  UNL1        0.0178
     14 C          -0.1731    1.3006   28.4169 C.ar    1  UNL1        0.0388
     15 C           0.4831    1.2426   27.0693 C.ar    1  UNL1        0.1454
     16 C           1.9793    1.2500   26.9627 C.ar    1  UNL1        0.0388
     17 C           2.8192    1.3154   28.2037 C.ar    1  UNL1        0.0178
     18 O          -0.3569    1.1772   25.8283 O.3     1  UNL1       -0.4535
     19 C          -0.9080    2.4368   25.2284 C.ar    1  UNL1        0.1454
     20 C          -0.4413    2.8904   23.8769 C.ar    1  UNL1        0.0398
     21 C          -0.9924    4.1500   23.2770 C.ar    1  UNL1        0.0328
     22 C          -2.0100    4.9559   24.0286 C.ar    1  UNL1        0.1403
     23 F          -2.5610    6.2154   23.4287 F       1  UNL1       -0.2042
     24 C          -2.4767    4.5022   25.3800 C.ar    1  UNL1        0.0328
     25 C          -1.9257    3.2427   25.9799 C.ar    1  UNL1        0.0398
     26 C           4.8924    1.4761   36.4879 C.3     1  UNL1        0.0281
     27 C           3.6470    1.7872   37.2639 C.ar    1  UNL1       -0.0220
     28 C           2.9687    3.1141   37.0929 C.ar    1  UNL1       -0.0020
     29 C           1.7232    3.4252   37.8689 C.ar    1  UNL1        0.0293
     30 C           1.1562    2.4094   38.8157 C.ar    1  UNL1        0.1401
     31 F          -0.0893    2.7205   39.5917 F       1  UNL1       -0.2042
     32 C           1.8345    1.0825   38.9867 C.ar    1  UNL1        0.0293
     33 C           3.0799    0.7714   38.2107 C.ar    1  UNL1       -0.0020
     34 C           7.2539   -2.0205   32.5354 C.3     1  UNL1        0.2138
     35 N           7.5572   -3.4051   32.0448 N.ar    1  UNL1       -0.2208
     36 C           8.8600   -3.8692   31.4642 C.ar    1  UNL1        0.1198
     37 C           8.7188   -5.3198   31.1092 C.ar    1  UNL1        0.1441
     38 N           7.3287   -5.7521   31.4704 N.ar    1  UNL1       -0.1271
     39 N           6.6107   -4.5688   32.0487 N.ar    1  UNL1       -0.0633
@<TRIPOS>BOND
     1     8     9    2
     2     9    10   am
     3    10    12    1
     4    12    13   ar
     5    13    14   ar
     6    14    15   ar
     7    15    18    1
     8    18    19    1
     9    19    20   ar
    10    20    21   ar
    11    21    22   ar
    12    22    23    1
    13    22    24   ar
    14    24    25   ar
    15    15    16   ar
    16    16    17   ar
    17     1     9    1
    18     1     2    1
    19     2     3    1
    20     3    26    1
    21    26    27    1
    22    27    28   ar
    23    28    29   ar
    24    29    30   ar
    25    30    31    1
    26    30    32   ar
    27    32    33   ar
    28     3     4    1
    29     4     5    1
    30     5     6   am
    31     6     7    2
    32     6    34    1
    33    34    35    1
    34    35    36   ar
    35    36    37   ar
    36    37    38   ar
    37    38    39   ar
    38    17    12   ar
    39     5     1    1
    40    39    35   ar
    41    25    19   ar
    42    33    27   ar
    43    10    11    1
