@<TRIPOS>MOLECULE
*****
 44 49 0 0 0
SMALL
GASTEIGER

@<TRIPOS>ATOM
      1 N           6.9603   -5.7695   25.9068 N.am    1  UNL1       -0.2964
      2 C           7.4758   -4.4649   25.3756 C.2     1  UNL1        0.2461
      3 O           8.8182   -3.9560   25.8103 O.2     1  UNL1       -0.2701
      4 H           6.0792   -6.1034   25.6215 H       1  UNL1        0.1501
      5 C           6.6490   -3.6691   24.4096 C.ar    1  UNL1        0.0550
      6 C           5.4185   -2.9556   24.8860 C.ar    1  UNL1        0.0061
      7 C           4.5918   -2.1598   23.9200 C.ar    1  UNL1        0.0189
      8 C           4.9954   -2.0775   22.4777 C.ar    1  UNL1        0.0788
      9 C           6.2258   -2.7910   22.0013 C.ar    1  UNL1        0.0988
     10 C           7.0526   -3.5868   22.9673 C.ar    1  UNL1        0.0251
     11 N           6.3736   -2.5294   20.5318 N.ar    1  UNL1       -0.2267
     12 C           5.2345   -1.6541   20.0999 C.ar    1  UNL1        0.1469
     13 N           4.3827   -1.3749   21.3025 N.ar    1  UNL1       -0.3133
     14 C           3.1370   -0.5396   21.3259 C.3     1  UNL1        0.0869
     15 C           1.9425   -0.9516   20.5176 C.3     1  UNL1        0.0226
     16 C           0.6968   -0.1163   20.5411 C.3     1  UNL1        0.0019
     17 C           0.6456    1.1309   21.3728 C.3     1  UNL1        0.0001
     18 C           1.8402    1.5429   22.1811 C.3     1  UNL1        0.0019
     19 C           3.0858    0.7076   22.1577 C.3     1  UNL1        0.0226
     20 C           4.9902   -1.1472   18.7094 C.ar    1  UNL1        0.0748
     21 C           5.5397    0.1197   18.1236 C.ar    1  UNL1        0.0468
     22 C           5.0425    0.2317   16.7127 C.ar    1  UNL1        0.1799
     23 O           4.1859   -0.9659   16.4267 O.2     1  UNL1       -0.4472
     24 C           4.1536   -1.8181   17.6608 C.ar    1  UNL1        0.1827
     25 C           7.7871   -6.5653   26.8728 C.3     1  UNL1        0.1260
     26 C           8.4647   -7.1909   28.0557 C.3     1  UNL1        0.0269
     27 C           9.4244   -8.2252   27.5466 C.3     1  UNL1        0.0022
     28 C           9.3400   -8.2389   26.0491 C.3     1  UNL1        0.0022
     29 C           8.3280   -7.2129   25.6326 C.3     1  UNL1        0.0269
     30 N           7.8578   -4.9180   28.8806 N.am    1  UNL1       -0.2826
     31 C           7.0734   -5.7512   27.9110 C.2     1  UNL1        0.2419
     32 O           5.5751   -5.7705   27.9795 O.2     1  UNL1       -0.2731
     33 H           8.8412   -4.9054   28.8356 H       1  UNL1        0.1549
     34 C           5.7165   -2.4758   31.9952 C.ar    1  UNL1        0.0001
     35 C           5.8740   -1.9430   30.6019 C.ar    1  UNL1        0.0013
     36 C           6.5877   -2.7570   29.5637 C.ar    1  UNL1        0.0147
     37 C           7.1441   -4.1040   29.9188 C.ar    1  UNL1        0.0503
     38 C           6.9866   -4.6369   31.3121 C.ar    1  UNL1        0.0147
     39 C           6.2729   -3.8228   32.3503 C.ar    1  UNL1        0.0013
     40 C           5.7749   -1.0344   34.1558 C.2     1  UNL1        0.0151
     41 C           5.0027   -1.6618   33.0334 C.2     1  UNL1        0.0012
     42 O           4.0413    0.7980   34.7781 O.co2   1  UNL1       -0.5446
     43 C           5.0611   -0.2203   35.1940 C.2     1  UNL1        0.0729
     44 O           5.3672   -0.4246   36.6482 O.co2   1  UNL1       -0.5446
@<TRIPOS>UNITY_ATOM_ATTR
42 1
charge -1
@<TRIPOS>BOND
     1    42    43   ar
     2    43    44   ar
     3    43    40    1
     4    40    41    2
     5    41    34    1
     6    34    35   ar
     7    35    36   ar
     8    36    37   ar
     9    37    30    1
    10    30    31   am
    11    31    32    2
    12    31    25    1
    13    25     1    1
    14     1     2   am
    15     2     3    2
    16     2     5    1
    17     5     6   ar
    18     6     7   ar
    19     7     8   ar
    20     8     9   ar
    21     9    10   ar
    22     9    11   ar
    23    11    12   ar
    24    12    20    1
    25    20    21   ar
    26    21    22   ar
    27    22    23   ar
    28    23    24   ar
    29    12    13   ar
    30    13    14    1
    31    14    15    1
    32    15    16    1
    33    16    17    1
    34    17    18    1
    35    18    19    1
    36    25    26    1
    37    26    27    1
    38    27    28    1
    39    28    29    1
    40    37    38   ar
    41    38    39   ar
    42    39    34   ar
    43    29    25    1
    44    10     5   ar
    45    24    20   ar
    46    19    14    1
    47    13     8   ar
    48    30    33    1
    49     1     4    1
@<TRIPOS>MOLECULE
*****
 44 49 0 0 0
SMALL
GASTEIGER

@<TRIPOS>ATOM
      1 N           7.2696   -4.9702   25.6918 N.am    1  UNL1       -0.2964
      2 C           7.9175   -3.8007   26.3720 C.2     1  UNL1        0.2461
      3 O           9.2573   -3.3111   25.9081 O.2     1  UNL1       -0.2701
      4 H           6.3903   -5.2915   25.9963 H       1  UNL1        0.1501
      5 C           7.2255   -3.1208   27.5162 C.ar    1  UNL1        0.0550
      6 C           7.8152   -3.1845   28.8939 C.ar    1  UNL1        0.0061
      7 C           7.1232   -2.5046   30.0379 C.ar    1  UNL1        0.0189
      8 C           5.8416   -1.7611   29.8043 C.ar    1  UNL1        0.0788
      9 C           5.2519   -1.6975   28.4266 C.ar    1  UNL1        0.0988
     10 C           5.9439   -2.3773   27.2825 C.ar    1  UNL1        0.0251
     11 N           3.9860   -0.8963   28.5007 N.ar    1  UNL1       -0.2267
     12 C           3.7933   -0.4647   29.9244 C.ar    1  UNL1        0.1469
     13 N           4.9401   -0.9992   30.7300 N.ar    1  UNL1       -0.3133
     14 C           5.1488   -0.8058   32.2028 C.3     1  UNL1        0.0869
     15 C           4.3164   -1.5746   33.1856 C.3     1  UNL1        0.0226
     16 C           4.5252   -1.3811   34.6583 C.3     1  UNL1        0.0019
     17 C           5.5664   -0.4189   35.1482 C.3     1  UNL1        0.0001
     18 C           6.3988    0.3500   34.1654 C.3     1  UNL1        0.0019
     19 C           6.1900    0.1565   32.6927 C.3     1  UNL1        0.0226
     20 C           2.6538    0.3571   30.4500 C.ar    1  UNL1        0.0748
     21 C           2.7076    1.2910   31.6226 C.ar    1  UNL1        0.0468
     22 C           1.3475    1.9004   31.7925 C.ar    1  UNL1        0.1799
     23 O           0.4532    1.3430   30.7250 O.2     1  UNL1       -0.4472
     24 C           1.2606    0.3892   29.8953 C.ar    1  UNL1        0.1827
     25 C           7.9616   -5.6500   24.5477 C.3     1  UNL1        0.1260
     26 C           8.4983   -6.1210   23.2287 C.3     1  UNL1        0.0269
     27 C           9.4278   -7.2691   23.4897 C.3     1  UNL1        0.0022
     28 C           9.4655   -7.5077   24.9701 C.3     1  UNL1        0.0022
     29 C           8.5593   -6.5070   25.6240 C.3     1  UNL1        0.0269
     30 N           5.7531   -4.4269   23.9343 N.am    1  UNL1       -0.2826
     31 C           7.2192   -4.6510   23.7106 C.2     1  UNL1        0.2419
     32 O           7.9431   -3.8760   22.6497 O.2     1  UNL1       -0.2731
     33 H           5.2781   -4.9356   24.6306 H       1  UNL1        0.1549
     34 C           3.5260   -1.4297   21.4228 C.ar    1  UNL1        0.0001
     35 C           3.9822   -2.7242   20.8175 C.ar    1  UNL1        0.0013
     36 C           4.7245   -3.7232   21.6547 C.ar    1  UNL1        0.0147
     37 C           5.0108   -3.4279   23.0972 C.ar    1  UNL1        0.0503
     38 C           4.5546   -2.1334   23.7025 C.ar    1  UNL1        0.0147
     39 C           3.8123   -1.1344   22.8654 C.ar    1  UNL1        0.0013
     40 C           1.2853   -0.4668   20.5275 C.2     1  UNL1        0.0151
     41 C           2.7837   -0.4307   20.5857 C.2     1  UNL1        0.0012
     42 O           0.8212    0.6330   18.2200 O.co2   1  UNL1       -0.5446
     43 C           0.5430    0.5323   19.6904 C.2     1  UNL1        0.0729
     44 O          -0.4777    1.4307   20.3238 O.co2   1  UNL1       -0.5446
@<TRIPOS>UNITY_ATOM_ATTR
42 1
charge -1
@<TRIPOS>BOND
     1    42    43   ar
     2    43    44   ar
     3    43    40    1
     4    40    41    2
     5    41    34    1
     6    34    35   ar
     7    35    36   ar
     8    36    37   ar
     9    37    30    1
    10    30    31   am
    11    31    32    2
    12    31    25    1
    13    25     1    1
    14     1     2   am
    15     2     3    2
    16     2     5    1
    17     5     6   ar
    18     6     7   ar
    19     7     8   ar
    20     8     9   ar
    21     9    10   ar
    22     9    11   ar
    23    11    12   ar
    24    12    20    1
    25    20    21   ar
    26    21    22   ar
    27    22    23   ar
    28    23    24   ar
    29    12    13   ar
    30    13    14    1
    31    14    15    1
    32    15    16    1
    33    16    17    1
    34    17    18    1
    35    18    19    1
    36    25    26    1
    37    26    27    1
    38    27    28    1
    39    28    29    1
    40    37    38   ar
    41    38    39   ar
    42    39    34   ar
    43    29    25    1
    44    10     5   ar
    45    24    20   ar
    46    19    14    1
    47    13     8   ar
    48    30    33    1
    49     1     4    1
@<TRIPOS>MOLECULE
*****
 44 49 0 0 0
SMALL
GASTEIGER

@<TRIPOS>ATOM
      1 N           3.7469   -1.8918   21.1320 N.am    1  UNL1       -0.2964
      2 C           4.1900   -0.7043   21.9342 C.2     1  UNL1        0.2461
      3 O           5.5358   -0.0906   21.6848 O.2     1  UNL1       -0.2701
      4 H           2.8636   -2.2946   21.2957 H       1  UNL1        0.1501
      5 C           3.2873   -0.1305   22.9859 C.ar    1  UNL1        0.0550
      6 C           3.5494   -0.4143   24.4353 C.ar    1  UNL1        0.0061
      7 C           2.6467    0.1595   25.4870 C.ar    1  UNL1        0.0189
      8 C           1.4820    1.0170   25.0892 C.ar    1  UNL1        0.0788
      9 C           1.2200    1.3007   23.6398 C.ar    1  UNL1        0.0988
     10 C           2.1226    0.7270   22.5882 C.ar    1  UNL1        0.0251
     11 N           0.0039    2.1743   23.5510 N.ar    1  UNL1       -0.2267
     12 C          -0.4857    2.4305   24.9456 C.ar    1  UNL1        0.1469
     13 N           0.4278    1.7152   25.8962 N.ar    1  UNL1       -0.3133
     14 C           0.3082    1.7007   27.3914 C.3     1  UNL1        0.0869
     15 C           1.0997    2.6716   28.2166 C.3     1  UNL1        0.0226
     16 C           0.9800    2.6570   29.7117 C.3     1  UNL1        0.0019
     17 C           0.0690    1.6716   30.3816 C.3     1  UNL1        0.0001
     18 C          -0.7225    0.7006   29.5565 C.3     1  UNL1        0.0019
     19 C          -0.6028    0.7152   28.0613 C.3     1  UNL1        0.0226
     20 C          -1.6793    3.2568   25.3231 C.ar    1  UNL1        0.0748
     21 C          -1.8358    4.0556   26.5831 C.ar    1  UNL1        0.0468
     22 C          -3.1792    4.7219   26.5455 C.ar    1  UNL1        0.1799
     23 O          -3.8529    4.3350   25.2624 O.2     1  UNL1       -0.4472
     24 C          -2.9258    3.4295   24.5069 C.ar    1  UNL1        0.1827
     25 C           4.6495   -2.4655   20.0803 C.3     1  UNL1        0.1260
     26 C           5.6494   -3.2261   19.2609 C.3     1  UNL1        0.0269
     27 C           5.6131   -2.6823   17.8634 C.3     1  UNL1        0.0022
     28 C           4.5908   -1.5857   17.8190 C.3     1  UNL1        0.0022
     29 C           3.9952   -1.4517   19.1893 C.3     1  UNL1        0.0269
     30 N           6.4266   -3.0930   21.8685 N.am    1  UNL1       -0.2826
     31 C           5.1152   -3.3594   21.1912 C.2     1  UNL1        0.2419
     32 O           4.2692   -4.5198   21.6246 O.2     1  UNL1       -0.2731
     33 H           6.9818   -2.3314   21.5840 H       1  UNL1        0.1549
     34 C           7.8236   -5.7748   25.2012 C.ar    1  UNL1        0.0001
     35 C           8.3341   -5.9837   23.8063 C.ar    1  UNL1        0.0013
     36 C           7.8685   -5.0898   22.6954 C.ar    1  UNL1        0.0147
     37 C           6.8923   -3.9869   22.9794 C.ar    1  UNL1        0.0503
     38 C           6.3818   -3.7780   24.3743 C.ar    1  UNL1        0.0147
     39 C           6.8474   -4.6719   25.4852 C.ar    1  UNL1        0.0013
     40 C           7.8127   -8.0892   26.3815 C.2     1  UNL1        0.0151
     41 C           8.2892   -6.6687   26.3121 C.2     1  UNL1        0.0012
     42 O           7.6300  -10.3194   27.7015 O.co2   1  UNL1       -0.5446
     43 C           8.2783   -8.9831   27.4924 C.2     1  UNL1        0.0729
     44 O           9.3923   -8.5406   28.3942 O.co2   1  UNL1       -0.5446
@<TRIPOS>UNITY_ATOM_ATTR
42 1
charge -1
@<TRIPOS>BOND
     1    42    43   ar
     2    43    44   ar
     3    43    40    1
     4    40    41    2
     5    41    34    1
     6    34    35   ar
     7    35    36   ar
     8    36    37   ar
     9    37    30    1
    10    30    31   am
    11    31    32    2
    12    31    25    1
    13    25     1    1
    14     1     2   am
    15     2     3    2
    16     2     5    1
    17     5     6   ar
    18     6     7   ar
    19     7     8   ar
    20     8     9   ar
    21     9    10   ar
    22     9    11   ar
    23    11    12   ar
    24    12    20    1
    25    20    21   ar
    26    21    22   ar
    27    22    23   ar
    28    23    24   ar
    29    12    13   ar
    30    13    14    1
    31    14    15    1
    32    15    16    1
    33    16    17    1
    34    17    18    1
    35    18    19    1
    36    25    26    1
    37    26    27    1
    38    27    28    1
    39    28    29    1
    40    37    38   ar
    41    38    39   ar
    42    39    34   ar
    43    29    25    1
    44    10     5   ar
    45    24    20   ar
    46    19    14    1
    47    13     8   ar
    48    30    33    1
    49     1     4    1
@<TRIPOS>MOLECULE
*****
 44 49 0 0 0
SMALL
GASTEIGER

@<TRIPOS>ATOM
      1 N           1.6570    0.2124   27.9929 N.am    1  UNL1       -0.2964
      2 C           2.6306    0.8087   27.0201 C.2     1  UNL1        0.2461
      3 O           3.0353    2.2472   27.1504 O.2     1  UNL1       -0.2701
      4 H           1.3914   -0.7317   27.9074 H       1  UNL1        0.1501
      5 C           3.1995   -0.0334   25.9168 C.ar    1  UNL1        0.0550
      6 C           2.6261    0.0554   24.5336 C.ar    1  UNL1        0.0061
      7 C           3.1951   -0.7867   23.4304 C.ar    1  UNL1        0.0189
      8 C           4.3374   -1.7177   23.7104 C.ar    1  UNL1        0.0788
      9 C           4.9108   -1.8065   25.0936 C.ar    1  UNL1        0.0988
     10 C           4.3419   -0.9644   26.1968 C.ar    1  UNL1        0.0251
     11 N           6.0276   -2.8075   25.0690 N.ar    1  UNL1       -0.2267
     12 C           6.1445   -3.3374   23.6706 C.ar    1  UNL1        0.1469
     13 N           5.0999   -2.6639   22.8309 N.ar    1  UNL1       -0.3133
     14 C           4.8598   -2.8957   21.3685 C.3     1  UNL1        0.0869
     15 C           5.2410   -1.8434   20.3698 C.3     1  UNL1        0.0226
     16 C           5.0009   -2.0754   18.9074 C.3     1  UNL1        0.0019
     17 C           4.3797   -3.3595   18.4438 C.3     1  UNL1        0.0001
     18 C           3.9985   -4.4118   19.4425 C.3     1  UNL1        0.0019
     19 C           4.2386   -4.1799   20.9048 C.3     1  UNL1        0.0226
     20 C           7.1326   -4.3611   23.1953 C.ar    1  UNL1        0.0748
     21 C           7.8990   -4.3150   21.9066 C.ar    1  UNL1        0.0468
     22 C           8.7677   -5.5361   21.8402 C.ar    1  UNL1        0.1799
     23 O           8.5382   -6.3367   23.0877 O.2     1  UNL1       -0.4472
     24 C           7.5275   -5.6105   23.9252 C.ar    1  UNL1        0.1827
     25 C           1.0881    1.0546   29.0962 C.3     1  UNL1        0.1260
     26 C           0.2916    1.9561   29.9921 C.3     1  UNL1        0.0269
     27 C           1.0072    2.0529   31.3069 C.3     1  UNL1        0.0022
     28 C           2.2459    1.2113   31.2236 C.3     1  UNL1        0.0022
     29 C           2.2959    0.5942   29.8572 C.3     1  UNL1        0.0269
     30 N          -0.1592    2.7194   27.5399 N.am    1  UNL1       -0.2826
     31 C          -0.0008    1.3389   28.1046 C.2     1  UNL1        0.2419
     32 O          -0.9313    0.2426   27.6776 O.2     1  UNL1       -0.2731
     33 H           0.4515    3.4389   27.8201 H       1  UNL1        0.1549
     34 C          -3.4260    3.5723   24.5647 C.ar    1  UNL1        0.0001
     35 C          -2.0474    3.2252   24.0861 C.ar    1  UNL1        0.0013
     36 C          -0.9585    2.9409   25.0777 C.ar    1  UNL1        0.0147
     37 C          -1.2481    3.0037   26.5482 C.ar    1  UNL1        0.0503
     38 C          -2.6267    3.3508   27.0269 C.ar    1  UNL1        0.0147
     39 C          -3.7156    3.6351   26.0352 C.ar    1  UNL1        0.0013
     40 C          -5.8988    4.1816   24.0515 C.2     1  UNL1        0.0151
     41 C          -4.5149    3.8566   23.5731 C.2     1  UNL1        0.0012
     42 O          -6.6418    4.7649   21.6312 O.co2   1  UNL1       -0.5446
     43 C          -6.9877    4.4659   23.0598 C.2     1  UNL1        0.0729
     44 O          -8.4226    4.4512   23.4967 O.co2   1  UNL1       -0.5446
@<TRIPOS>UNITY_ATOM_ATTR
42 1
charge -1
@<TRIPOS>BOND
     1    42    43   ar
     2    43    44   ar
     3    43    40    1
     4    40    41    2
     5    41    34    1
     6    34    35   ar
     7    35    36   ar
     8    36    37   ar
     9    37    30    1
    10    30    31   am
    11    31    32    2
    12    31    25    1
    13    25     1    1
    14     1     2   am
    15     2     3    2
    16     2     5    1
    17     5     6   ar
    18     6     7   ar
    19     7     8   ar
    20     8     9   ar
    21     9    10   ar
    22     9    11   ar
    23    11    12   ar
    24    12    20    1
    25    20    21   ar
    26    21    22   ar
    27    22    23   ar
    28    23    24   ar
    29    12    13   ar
    30    13    14    1
    31    14    15    1
    32    15    16    1
    33    16    17    1
    34    17    18    1
    35    18    19    1
    36    25    26    1
    37    26    27    1
    38    27    28    1
    39    28    29    1
    40    37    38   ar
    41    38    39   ar
    42    39    34   ar
    43    29    25    1
    44    10     5   ar
    45    24    20   ar
    46    19    14    1
    47    13     8   ar
    48    30    33    1
    49     1     4    1
@<TRIPOS>MOLECULE
*****
 44 49 0 0 0
SMALL
GASTEIGER

@<TRIPOS>ATOM
      1 N           3.7748   -1.7926   21.1729 N.am    1  UNL1       -0.2964
      2 C           4.2894   -0.5856   21.8997 C.2     1  UNL1        0.2461
      3 O           5.6383   -0.0242   21.5601 O.2     1  UNL1       -0.2701
      4 H           2.8894   -2.1610   21.3958 H       1  UNL1        0.1501
      5 C           3.4551    0.0601   22.9660 C.ar    1  UNL1        0.0550
      6 C           2.4070    1.0659   22.5919 C.ar    1  UNL1        0.0061
      7 C           1.5727    1.7115   23.6583 C.ar    1  UNL1        0.0189
      8 C           1.7866    1.3515   25.0986 C.ar    1  UNL1        0.0788
      9 C           2.8347    0.3458   25.4727 C.ar    1  UNL1        0.0988
     10 C           3.6689   -0.2999   24.4064 C.ar    1  UNL1        0.0251
     11 N           2.8179    0.1919   26.9646 N.ar    1  UNL1       -0.2267
     12 C           1.7593    1.1025   27.5127 C.ar    1  UNL1        0.1469
     13 N           1.1219    1.8192   26.3595 N.ar    1  UNL1       -0.3133
     14 C           0.0144    2.8267   26.4509 C.3     1  UNL1        0.0869
     15 C          -1.3531    2.4867   25.9368 C.3     1  UNL1        0.0226
     16 C          -2.4606    3.4942   26.0283 C.3     1  UNL1        0.0019
     17 C          -2.2006    4.8417   26.6338 C.3     1  UNL1        0.0001
     18 C          -0.8330    5.1817   27.1479 C.3     1  UNL1        0.0019
     19 C           0.2744    4.1742   27.0564 C.3     1  UNL1        0.0226
     20 C           1.4011    1.2674   28.9600 C.ar    1  UNL1        0.0748
     21 C           2.3110    1.7695   30.0417 C.ar    1  UNL1        0.0468
     22 C           1.5423    1.7716   31.3299 C.ar    1  UNL1        0.1799
     23 O           0.1576    1.2708   31.0442 O.2     1  UNL1       -0.4472
     24 C           0.0703    0.9591   29.5794 C.ar    1  UNL1        0.1827
     25 C           4.6091   -2.4384   20.1066 C.3     1  UNL1        0.1260
     26 C           5.5402   -3.2690   19.2742 C.3     1  UNL1        0.0269
     27 C           5.4779   -2.7624   17.8637 C.3     1  UNL1        0.0022
     28 C           4.5084   -1.6187   17.8243 C.3     1  UNL1        0.0022
     29 C           3.9714   -1.4184   19.2106 C.3     1  UNL1        0.0269
     30 N           6.4007   -3.0757   21.8768 N.am    1  UNL1       -0.2826
     31 C           5.0724   -3.3234   21.2255 C.2     1  UNL1        0.2419
     32 O           4.2074   -4.4561   21.6932 O.2     1  UNL1       -0.2731
     33 H           6.9684   -2.3323   21.5698 H       1  UNL1        0.1549
     34 C           7.7906   -5.7308   25.2338 C.ar    1  UNL1        0.0001
     35 C           6.7831   -4.6516   25.4990 C.ar    1  UNL1        0.0013
     36 C           6.3198   -3.7666   24.3800 C.ar    1  UNL1        0.0147
     37 C           6.8640   -3.9607   22.9957 C.ar    1  UNL1        0.0503
     38 C           7.8715   -5.0399   22.7305 C.ar    1  UNL1        0.0147
     39 C           8.3348   -5.9249   23.8495 C.ar    1  UNL1        0.0013
     40 C           7.7482   -8.0243   26.4535 C.2     1  UNL1        0.0151
     41 C           8.2539   -6.6158   26.3527 C.2     1  UNL1        0.0012
     42 O           7.6594  -10.2973   27.7086 O.co2   1  UNL1       -0.5446
     43 C           8.2115   -8.9093   27.5724 C.2     1  UNL1        0.0729
     44 O           9.2269   -8.4063   28.5552 O.co2   1  UNL1       -0.5446
@<TRIPOS>UNITY_ATOM_ATTR
42 1
charge -1
@<TRIPOS>BOND
     1    42    43   ar
     2    43    44   ar
     3    43    40    1
     4    40    41    2
     5    41    34    1
     6    34    35   ar
     7    35    36   ar
     8    36    37   ar
     9    37    30    1
    10    30    31   am
    11    31    32    2
    12    31    25    1
    13    25     1    1
    14     1     2   am
    15     2     3    2
    16     2     5    1
    17     5     6   ar
    18     6     7   ar
    19     7     8   ar
    20     8     9   ar
    21     9    10   ar
    22     9    11   ar
    23    11    12   ar
    24    12    20    1
    25    20    21   ar
    26    21    22   ar
    27    22    23   ar
    28    23    24   ar
    29    12    13   ar
    30    13    14    1
    31    14    15    1
    32    15    16    1
    33    16    17    1
    34    17    18    1
    35    18    19    1
    36    25    26    1
    37    26    27    1
    38    27    28    1
    39    28    29    1
    40    37    38   ar
    41    38    39   ar
    42    39    34   ar
    43    29    25    1
    44    10     5   ar
    45    24    20   ar
    46    19    14    1
    47    13     8   ar
    48    30    33    1
    49     1     4    1
@<TRIPOS>MOLECULE
*****
 44 49 0 0 0
SMALL
GASTEIGER

@<TRIPOS>ATOM
      1 N           7.0475   -5.7699   25.8417 N.am    1  UNL1       -0.2964
      2 C           7.7029   -4.5707   25.2234 C.2     1  UNL1        0.2461
      3 O           9.0868   -4.1725   25.6432 O.2     1  UNL1       -0.2701
      4 H           6.1391   -6.0312   25.5662 H       1  UNL1        0.1501
      5 C           6.9744   -3.7697   24.1853 C.ar    1  UNL1        0.0550
      6 C           7.5744   -3.5850   22.8230 C.ar    1  UNL1        0.0061
      7 C           6.8460   -2.7840   21.7850 C.ar    1  UNL1        0.0189
      8 C           5.5174   -2.1676   22.1092 C.ar    1  UNL1        0.0788
      9 C           4.9174   -2.3523   23.4714 C.ar    1  UNL1        0.0988
     10 C           5.6459   -3.1533   24.5095 C.ar    1  UNL1        0.0251
     11 N           3.6025   -1.6311   23.5003 N.ar    1  UNL1       -0.2267
     12 C           3.3899   -1.0007   22.1559 C.ar    1  UNL1        0.1469
     13 N           4.5733   -1.3323   21.2961 N.ar    1  UNL1       -0.3133
     14 C           4.7771   -0.9038   19.8731 C.3     1  UNL1        0.0869
     15 C           4.1123   -1.6583   18.7601 C.3     1  UNL1        0.0226
     16 C           4.3161   -1.2298   17.3372 C.3     1  UNL1        0.0019
     17 C           5.1845   -0.0467   17.0272 C.3     1  UNL1        0.0001
     18 C           5.8493    0.7079   18.1402 C.3     1  UNL1        0.0019
     19 C           5.6455    0.2793   19.5631 C.3     1  UNL1        0.0226
     20 C           2.2022   -0.1823   21.7438 C.ar    1  UNL1        0.0748
     21 C           1.3121   -0.4509   20.5666 C.ar    1  UNL1        0.0468
     22 C           0.2559    0.6138   20.5318 C.ar    1  UNL1        0.1799
     23 O           0.4933    1.5402   21.6874 O.2     1  UNL1       -0.4472
     24 C           1.6962    1.0481   22.4364 C.ar    1  UNL1        0.1827
     25 C           7.7759   -6.5710   26.8799 C.3     1  UNL1        0.1260
     26 C           8.3660   -7.1755   28.1193 C.3     1  UNL1        0.0269
     27 C           9.2405   -8.3216   27.7050 C.3     1  UNL1        0.0022
     28 C           9.1909   -8.4255   26.2094 C.3     1  UNL1        0.0022
     29 C           8.2857   -7.3434   25.6995 C.3     1  UNL1        0.0269
     30 N           7.9477   -4.7299   28.7049 N.am    1  UNL1       -0.2826
     31 C           7.1138   -5.6310   27.8433 C.2     1  UNL1        0.2419
     32 O           5.6178   -5.5923   27.9450 O.2     1  UNL1       -0.2731
     33 H           8.9296   -4.7554   28.6381 H       1  UNL1        0.1549
     34 C           5.9613   -1.9100   31.5951 C.ar    1  UNL1        0.0001
     35 C           5.9451   -1.6118   30.1251 C.ar    1  UNL1        0.0013
     36 C           6.6072   -2.5518   29.1617 C.ar    1  UNL1        0.0147
     37 C           7.2856   -3.7900   29.6683 C.ar    1  UNL1        0.0503
     38 C           7.3019   -4.0881   31.1383 C.ar    1  UNL1        0.0147
     39 C           6.6398   -3.1482   32.1016 C.ar    1  UNL1        0.0013
     40 C           5.3229   -1.2639   34.0291 C.2     1  UNL1        0.0151
     41 C           5.2992   -0.9701   32.5584 C.2     1  UNL1        0.0012
     42 O           3.8464    0.8260   34.4785 O.co2   1  UNL1       -0.5446
     43 C           4.6608   -0.3240   34.9925 C.2     1  UNL1        0.0729
     44 O           4.8131   -0.5340   36.4699 O.co2   1  UNL1       -0.5446
@<TRIPOS>UNITY_ATOM_ATTR
42 1
charge -1
@<TRIPOS>BOND
     1    42    43   ar
     2    43    44   ar
     3    43    40    1
     4    40    41    2
     5    41    34    1
     6    34    35   ar
     7    35    36   ar
     8    36    37   ar
     9    37    30    1
    10    30    31   am
    11    31    32    2
    12    31    25    1
    13    25     1    1
    14     1     2   am
    15     2     3    2
    16     2     5    1
    17     5     6   ar
    18     6     7   ar
    19     7     8   ar
    20     8     9   ar
    21     9    10   ar
    22     9    11   ar
    23    11    12   ar
    24    12    20    1
    25    20    21   ar
    26    21    22   ar
    27    22    23   ar
    28    23    24   ar
    29    12    13   ar
    30    13    14    1
    31    14    15    1
    32    15    16    1
    33    16    17    1
    34    17    18    1
    35    18    19    1
    36    25    26    1
    37    26    27    1
    38    27    28    1
    39    28    29    1
    40    37    38   ar
    41    38    39   ar
    42    39    34   ar
    43    29    25    1
    44    10     5   ar
    45    24    20   ar
    46    19    14    1
    47    13     8   ar
    48    30    33    1
    49     1     4    1
@<TRIPOS>MOLECULE
*****
 44 49 0 0 0
SMALL
GASTEIGER

@<TRIPOS>ATOM
      1 N           1.8309    0.9881   26.8635 N.am    1  UNL1       -0.2964
      2 C           2.5100    1.7788   25.7849 C.2     1  UNL1        0.2461
      3 O           2.6822    3.2611   25.9369 O.2     1  UNL1       -0.2701
      4 H           1.7179    0.0152   26.7637 H       1  UNL1        0.1501
      5 C           3.0170    1.0872   24.5541 C.ar    1  UNL1        0.0550
      6 C           2.7651   -0.3786   24.3600 C.ar    1  UNL1        0.0061
      7 C           3.2722   -1.0701   23.1293 C.ar    1  UNL1        0.0189
      8 C           4.0311   -0.2958   22.0927 C.ar    1  UNL1        0.0788
      9 C           4.2830    1.1701   22.2869 C.ar    1  UNL1        0.0988
     10 C           3.7760    1.8616   23.5176 C.ar    1  UNL1        0.0251
     11 N           5.0559    1.6685   21.1019 N.ar    1  UNL1       -0.2267
     12 C           5.2817    0.5106   20.1754 C.ar    1  UNL1        0.1469
     13 N           4.6484   -0.7034   20.7877 N.ar    1  UNL1       -0.3133
     14 C           4.6346   -2.0828   20.1986 C.3     1  UNL1        0.0869
     15 C           5.8693   -2.9330   20.2508 C.3     1  UNL1        0.0226
     16 C           5.8555   -4.3123   19.6616 C.3     1  UNL1        0.0019
     17 C           4.6071   -4.8415   19.0202 C.3     1  UNL1        0.0001
     18 C           3.3724   -3.9913   18.9680 C.3     1  UNL1        0.0019
     19 C           3.3862   -2.6120   19.5572 C.3     1  UNL1        0.0226
     20 C           6.0127    0.5585   18.8663 C.ar    1  UNL1        0.0748
     21 C           5.3869    0.4981   17.5044 C.ar    1  UNL1        0.0468
     22 C           6.4852    0.5774   16.4858 C.ar    1  UNL1        0.1799
     23 O           7.7896    0.6867   17.2182 O.2     1  UNL1       -0.4472
     24 C           7.4975    0.6750   18.6895 C.ar    1  UNL1        0.1827
     25 C           1.3238    1.6797   28.0943 C.3     1  UNL1        0.1260
     26 C           0.5572    2.4134   29.1543 C.3     1  UNL1        0.0269
     27 C           1.4316    2.5206   30.3684 C.3     1  UNL1        0.0022
     28 C           2.7386    1.8531   30.0587 C.3     1  UNL1        0.0022
     29 C           2.6720    1.3333   28.6531 C.3     1  UNL1        0.0269
     30 N          -0.3935    3.2695   26.9661 N.am    1  UNL1       -0.2826
     31 C           0.0816    1.8815   27.2781 C.2     1  UNL1        0.2419
     32 O          -0.6854    0.6952   26.7739 O.2     1  UNL1       -0.2731
     33 H           0.1099    4.0482   27.2970 H       1  UNL1        0.1549
     34 C          -4.1202    3.8749   24.5175 C.ar    1  UNL1        0.0001
     35 C          -2.8078    3.6228   23.8362 C.ar    1  UNL1        0.0013
     36 C          -1.5656    3.4210   24.6524 C.ar    1  UNL1        0.0147
     37 C          -1.6357    3.4713   26.1499 C.ar    1  UNL1        0.0503
     38 C          -2.9481    3.7234   26.8312 C.ar    1  UNL1        0.0147
     39 C          -4.1903    3.9252   26.0150 C.ar    1  UNL1        0.0013
     40 C          -6.6135    4.5863   24.3531 C.2     1  UNL1        0.0151
     41 C          -5.3624    4.0767   23.7013 C.2     1  UNL1        0.0012
     42 O          -7.7506    5.2369   22.1096 O.co2   1  UNL1       -0.5446
     43 C          -7.8557    4.7881   23.5369 C.2     1  UNL1        0.0729
     44 O          -9.2031    4.5410   24.1481 O.co2   1  UNL1       -0.5446
@<TRIPOS>UNITY_ATOM_ATTR
42 1
charge -1
@<TRIPOS>BOND
     1    42    43   ar
     2    43    44   ar
     3    43    40    1
     4    40    41    2
     5    41    34    1
     6    34    35   ar
     7    35    36   ar
     8    36    37   ar
     9    37    30    1
    10    30    31   am
    11    31    32    2
    12    31    25    1
    13    25     1    1
    14     1     2   am
    15     2     3    2
    16     2     5    1
    17     5     6   ar
    18     6     7   ar
    19     7     8   ar
    20     8     9   ar
    21     9    10   ar
    22     9    11   ar
    23    11    12   ar
    24    12    20    1
    25    20    21   ar
    26    21    22   ar
    27    22    23   ar
    28    23    24   ar
    29    12    13   ar
    30    13    14    1
    31    14    15    1
    32    15    16    1
    33    16    17    1
    34    17    18    1
    35    18    19    1
    36    25    26    1
    37    26    27    1
    38    27    28    1
    39    28    29    1
    40    37    38   ar
    41    38    39   ar
    42    39    34   ar
    43    29    25    1
    44    10     5   ar
    45    24    20   ar
    46    19    14    1
    47    13     8   ar
    48    30    33    1
    49     1     4    1
@<TRIPOS>MOLECULE
*****
 44 49 0 0 0
SMALL
GASTEIGER

@<TRIPOS>ATOM
      1 N           0.5618    1.1728   26.7631 N.am    1  UNL1       -0.2964
      2 C           0.3027    2.6274   26.5044 C.2     1  UNL1        0.2461
      3 O           1.2310    3.6654   27.0618 O.2     1  UNL1       -0.2701
      4 H          -0.0475    0.4916   26.3973 H       1  UNL1        0.1501
      5 C          -0.8849    3.0440   25.6881 C.ar    1  UNL1        0.0550
      6 C          -0.7813    3.1109   24.1932 C.ar    1  UNL1        0.0061
      7 C          -1.9688    3.5276   23.3770 C.ar    1  UNL1        0.0189
      8 C          -3.2599    3.8773   24.0558 C.ar    1  UNL1        0.0788
      9 C          -3.3635    3.8104   25.5506 C.ar    1  UNL1        0.0988
     10 C          -2.1760    3.3938   26.3668 C.ar    1  UNL1        0.0251
     11 N          -4.7566    4.2106   25.9371 N.ar    1  UNL1       -0.2267
     12 C          -5.5139    4.5248   24.6810 C.ar    1  UNL1        0.1469
     13 N          -4.5889    4.3188   23.5182 N.ar    1  UNL1       -0.3133
     14 C          -4.9326    4.5191   22.0719 C.3     1  UNL1        0.0869
     15 C          -5.1251    5.9052   21.5318 C.3     1  UNL1        0.0226
     16 C          -5.4687    6.1055   20.0856 C.3     1  UNL1        0.0019
     17 C          -5.6199    4.9197   19.1794 C.3     1  UNL1        0.0001
     18 C          -5.4273    3.5336   19.7195 C.3     1  UNL1        0.0019
     19 C          -5.0837    3.3334   21.1658 C.3     1  UNL1        0.0226
     20 C          -6.9450    4.9673   24.6016 C.ar    1  UNL1        0.0748
     21 C          -7.5661    6.0873   25.3826 C.ar    1  UNL1        0.0468
     22 C          -9.0112    6.1796   24.9909 C.ar    1  UNL1        0.1799
     23 O          -9.2831    5.1167   23.9680 O.2     1  UNL1       -0.4472
     24 C          -8.0060    4.3674   23.7274 C.ar    1  UNL1        0.1827
     25 C           1.7494    0.7562   27.5794 C.3     1  UNL1        0.1260
     26 C           3.0789    0.3170   28.1170 C.3     1  UNL1        0.0269
     27 C           2.9724    0.2408   29.6113 C.3     1  UNL1        0.0022
     28 C           1.5770    0.6329   29.9972 C.3     1  UNL1        0.0022
     29 C           0.8211    0.9514   28.7414 C.3     1  UNL1        0.0269
     30 N           1.6620    0.1706   25.0498 N.am    1  UNL1       -0.2826
     31 C           2.4294    0.6480   26.2468 C.2     1  UNL1        0.2419
     32 O           3.8769    1.0173   26.1113 O.2     1  UNL1       -0.2731
     33 H           0.7119   -0.0717   25.1387 H       1  UNL1        0.1549
     34 C           3.7021   -0.1539   21.0519 C.ar    1  UNL1        0.0001
     35 C           3.9159   -1.2140   22.0913 C.ar    1  UNL1        0.0013
     36 C           3.2359   -1.1058   23.4239 C.ar    1  UNL1        0.0147
     37 C           2.3420    0.0625   23.7172 C.ar    1  UNL1        0.0503
     38 C           2.1281    1.1225   22.6777 C.ar    1  UNL1        0.0147
     39 C           2.8081    1.0144   21.3451 C.ar    1  UNL1        0.0013
     40 C           4.0944   -1.4299   18.8231 C.2     1  UNL1        0.0151
     41 C           4.3821   -0.2621   19.7193 C.2     1  UNL1        0.0012
     42 O           6.1137   -2.2050   17.3838 O.co2   1  UNL1       -0.5446
     43 C           4.7744   -1.5380   17.4905 C.2     1  UNL1        0.0729
     44 O           4.1151   -0.9792   16.2644 O.co2   1  UNL1       -0.5446
@<TRIPOS>UNITY_ATOM_ATTR
42 1
charge -1
@<TRIPOS>BOND
     1    42    43   ar
     2    43    44   ar
     3    43    40    1
     4    40    41    2
     5    41    34    1
     6    34    35   ar
     7    35    36   ar
     8    36    37   ar
     9    37    30    1
    10    30    31   am
    11    31    32    2
    12    31    25    1
    13    25     1    1
    14     1     2   am
    15     2     3    2
    16     2     5    1
    17     5     6   ar
    18     6     7   ar
    19     7     8   ar
    20     8     9   ar
    21     9    10   ar
    22     9    11   ar
    23    11    12   ar
    24    12    20    1
    25    20    21   ar
    26    21    22   ar
    27    22    23   ar
    28    23    24   ar
    29    12    13   ar
    30    13    14    1
    31    14    15    1
    32    15    16    1
    33    16    17    1
    34    17    18    1
    35    18    19    1
    36    25    26    1
    37    26    27    1
    38    27    28    1
    39    28    29    1
    40    37    38   ar
    41    38    39   ar
    42    39    34   ar
    43    29    25    1
    44    10     5   ar
    45    24    20   ar
    46    19    14    1
    47    13     8   ar
    48    30    33    1
    49     1     4    1
@<TRIPOS>MOLECULE
*****
 44 49 0 0 0
SMALL
GASTEIGER

@<TRIPOS>ATOM
      1 N           0.8111    2.6852   27.0341 N.am    1  UNL1       -0.2964
      2 C           0.6149    1.3777   27.7424 C.2     1  UNL1        0.2461
      3 O          -0.5784    0.5253   27.4266 O.2     1  UNL1       -0.2701
      4 H           1.5942    3.2446   27.2413 H       1  UNL1        0.1501
      5 C           1.6120    0.9223   28.7664 C.ar    1  UNL1        0.0550
      6 C           2.6767   -0.0646   28.3895 C.ar    1  UNL1        0.0061
      7 C           3.6737   -0.5199   29.4135 C.ar    1  UNL1        0.0189
      8 C           3.6060    0.0118   30.8144 C.ar    1  UNL1        0.0788
      9 C           2.5412    0.9988   31.1914 C.ar    1  UNL1        0.0988
     10 C           1.5442    1.4541   30.1674 C.ar    1  UNL1        0.0251
     11 N           2.7225    1.3458   32.6394 N.ar    1  UNL1       -0.2267
     12 C           3.8993    0.5732   33.1574 C.ar    1  UNL1        0.1469
     13 N           4.4454   -0.2512   32.0295 N.ar    1  UNL1       -0.3133
     14 C           5.6238   -1.1763   32.1036 C.3     1  UNL1        0.0869
     15 C           5.4099   -2.6592   32.1759 C.3     1  UNL1        0.0226
     16 C           6.5884   -3.5841   32.2501 C.3     1  UNL1        0.0019
     17 C           7.9808   -3.0263   32.2519 C.3     1  UNL1        0.0001
     18 C           8.1947   -1.5434   32.1796 C.3     1  UNL1        0.0019
     19 C           7.0162   -0.6184   32.1055 C.3     1  UNL1        0.0226
     20 C           4.4359    0.6174   34.5575 C.ar    1  UNL1        0.0748
     21 C           4.6215   -0.5601   35.4681 C.ar    1  UNL1        0.0468
     22 C           5.1813   -0.0584   36.7662 C.ar    1  UNL1        0.1799
     23 O           5.3416    1.4291   36.6578 O.2     1  UNL1       -0.4472
     24 C           4.8808    1.8467   35.2927 C.ar    1  UNL1        0.1827
     25 C          -0.1860    3.1405   26.0101 C.3     1  UNL1        0.1260
     26 C          -0.9880    3.4581   24.7829 C.3     1  UNL1        0.0269
     27 C          -2.2084    4.2181   25.2106 C.3     1  UNL1        0.0022
     28 C          -2.1608    4.3703   26.7020 C.3     1  UNL1        0.0022
     29 C          -0.9108    3.7043   27.1962 C.3     1  UNL1        0.0269
     30 N           0.3420    1.2099   24.3537 N.am    1  UNL1       -0.2826
     31 C           0.7472    2.4816   25.0380 C.2     1  UNL1        0.2419
     32 O           2.0857    3.0945   24.7503 O.2     1  UNL1       -0.2731
     33 H          -0.5365    0.8076   24.5426 H       1  UNL1        0.1549
     34 C           3.1418   -0.7669   21.4375 C.ar    1  UNL1        0.0001
     35 C           1.9625    0.0121   20.9348 C.ar    1  UNL1        0.0013
     36 C           1.0293    0.6710   21.9069 C.ar    1  UNL1        0.0147
     37 C           1.2752    0.5510   23.3817 C.ar    1  UNL1        0.0503
     38 C           2.4544   -0.2280   23.8844 C.ar    1  UNL1        0.0147
     39 C           3.3877   -0.8869   22.9124 C.ar    1  UNL1        0.0013
     40 C           3.5906   -2.5603   19.6122 C.2     1  UNL1        0.0151
     41 C           4.0750   -1.4258   20.4655 C.2     1  UNL1        0.0012
     42 O           5.2980   -2.3867   17.6616 O.co2   1  UNL1       -0.5446
     43 C           4.5239   -3.2192   18.6402 C.2     1  UNL1        0.0729
     44 O           4.6831   -4.7107   18.6467 O.co2   1  UNL1       -0.5446
@<TRIPOS>UNITY_ATOM_ATTR
42 1
charge -1
@<TRIPOS>BOND
     1    42    43   ar
     2    43    44   ar
     3    43    40    1
     4    40    41    2
     5    41    34    1
     6    34    35   ar
     7    35    36   ar
     8    36    37   ar
     9    37    30    1
    10    30    31   am
    11    31    32    2
    12    31    25    1
    13    25     1    1
    14     1     2   am
    15     2     3    2
    16     2     5    1
    17     5     6   ar
    18     6     7   ar
    19     7     8   ar
    20     8     9   ar
    21     9    10   ar
    22     9    11   ar
    23    11    12   ar
    24    12    20    1
    25    20    21   ar
    26    21    22   ar
    27    22    23   ar
    28    23    24   ar
    29    12    13   ar
    30    13    14    1
    31    14    15    1
    32    15    16    1
    33    16    17    1
    34    17    18    1
    35    18    19    1
    36    25    26    1
    37    26    27    1
    38    27    28    1
    39    28    29    1
    40    37    38   ar
    41    38    39   ar
    42    39    34   ar
    43    29    25    1
    44    10     5   ar
    45    24    20   ar
    46    19    14    1
    47    13     8   ar
    48    30    33    1
    49     1     4    1
