@<TRIPOS>MOLECULE
*****
 38 42 0 0 0
SMALL
GASTEIGER

@<TRIPOS>ATOM
      1 C          -0.9681  -17.0779   20.2389 C.3     1  UNL1        0.0666
      2 S          -1.6041  -17.4835   21.5354 S.3     1  UNL1       -0.0756
      3 C          -3.8350  -18.4276   23.7220 C.3     1  UNL1        0.1340
      4 N          -3.6722  -17.0423   23.1704 N.ar    1  UNL1       -0.2884
      5 C          -2.6468  -16.6083   22.1653 C.ar    1  UNL1        0.1932
      6 N          -2.8471  -15.1455   21.9007 N.ar    1  UNL1       -0.1221
      7 N          -3.9964  -14.6753   22.7423 N.ar    1  UNL1       -0.1282
      8 C          -4.5064  -15.8476   23.5270 C.ar    1  UNL1        0.1668
      9 C          -5.6497  -15.8286   24.4978 C.ar    1  UNL1        0.0361
     10 C          -5.4227  -15.3942   25.9155 C.ar    1  UNL1        0.0031
     11 C          -6.5660  -15.3752   26.8863 C.ar    1  UNL1        0.0002
     12 C          -7.9363  -15.7905   26.4394 C.ar    1  UNL1        0.0045
     13 C          -8.1633  -16.2249   25.0217 C.ar    1  UNL1        0.0532
     14 C          -7.0200  -16.2439   24.0509 C.ar    1  UNL1        0.0075
     15 C          -9.5337  -16.6402   24.5749 C.2     1  UNL1        0.2427
     16 N         -10.4274  -15.6547   23.8821 N.am    1  UNL1       -0.3253
     17 O         -10.0102  -18.0410   24.8208 O.2     1  UNL1       -0.2704
     18 H         -10.1146  -14.7353   23.7206 H       1  UNL1        0.1453
     19 H         -11.3268  -15.9273   23.5888 H       1  UNL1        0.1453
     20 C          -1.6363  -17.4135   18.9385 C.3     1  UNL1        0.0294
     21 C          -3.1289  -17.5467   18.8745 C.3     1  UNL1        0.0730
     22 N          -3.7889  -18.8150   19.3283 N.3     1  UNL1       -0.2726
     23 C          -3.1106  -20.1369   19.5343 C.3     1  UNL1        0.0721
     24 C          -4.1455  -21.1229   19.9890 C.3     1  UNL1        0.0190
     25 C          -5.4633  -20.4104   20.0641 C.3     1  UNL1        0.0201
     26 C          -6.2574  -21.5972   20.5233 C.3     1  UNL1        0.0061
     27 C          -6.9356  -20.2753   20.3173 C.3     1  UNL1        0.0237
     28 C          -5.2429  -18.9840   19.6558 C.3     1  UNL1        0.0724
     29 C          -8.1772  -19.4341   20.3445 C.ar    1  UNL1       -0.0225
     30 C          -8.2957  -18.3032   21.3229 C.ar    1  UNL1       -0.0043
     31 C          -9.5373  -17.4620   21.3502 C.ar    1  UNL1        0.0035
     32 C         -10.6604  -17.7516   20.3990 C.ar    1  UNL1        0.0714
     33 C         -10.5419  -18.8824   19.4206 C.ar    1  UNL1        0.0035
     34 C          -9.3004  -19.7237   19.3934 C.ar    1  UNL1       -0.0043
     35 C         -11.9020  -16.9104   20.4262 C.3     1  UNL1        0.4186
     36 F         -13.1436  -16.0691   20.4535 F       1  UNL1       -0.1659
     37 F         -12.5896  -17.9522   21.2579 F       1  UNL1       -0.1659
     38 F         -11.2143  -15.8685   19.5946 F       1  UNL1       -0.1659
@<TRIPOS>BOND
     1     3     4    1
     2     4     5   ar
     3     5     2    1
     4     2     1    1
     5     1    20    1
     6    20    21    1
     7    21    22    1
     8    22    23    1
     9    23    24    1
    10    25    24    1
    11    25    26    1
    12    26    27    1
    13    27    29    1
    14    29    30   ar
    15    30    31   ar
    16    31    32   ar
    17    32    35    1
    18    35    36    1
    19    35    37    1
    20    35    38    1
    21    32    33   ar
    22    33    34   ar
    23    25    28    1
    24     5     6   ar
    25     6     7   ar
    26     7     8   ar
    27     8     9    1
    28     9    10   ar
    29    10    11   ar
    30    11    12   ar
    31    12    13   ar
    32    13    15    1
    33    15    16   am
    34    15    17    2
    35    13    14   ar
    36     8     4   ar
    37    14     9   ar
    38    28    22    1
    39    27    25    1
    40    34    29   ar
    41    16    18    1
    42    16    19    1
@<TRIPOS>MOLECULE
*****
 38 42 0 0 0
SMALL
GASTEIGER

@<TRIPOS>ATOM
      1 C          -4.7704  -16.2332   25.8376 C.3     1  UNL1        0.0666
      2 S          -5.5924  -15.2328   25.0804 S.3     1  UNL1       -0.0756
      3 C          -8.8414  -15.3447   25.3659 C.3     1  UNL1        0.1340
      4 N          -8.0480  -15.7476   24.1583 N.ar    1  UNL1       -0.2884
      5 C          -6.5546  -15.6962   24.0271 C.ar    1  UNL1        0.1932
      6 N          -6.1923  -16.1896   22.6576 N.ar    1  UNL1       -0.1221
      7 N          -7.4618  -16.5459   21.9425 N.ar    1  UNL1       -0.1282
      8 C          -8.6087  -16.2728   22.8699 C.ar    1  UNL1        0.1668
      9 C         -10.0612  -16.4872   22.5629 C.ar    1  UNL1        0.0361
     10 C         -10.6473  -15.9452   21.2929 C.ar    1  UNL1        0.0031
     11 C         -12.0998  -16.1596   20.9859 C.ar    1  UNL1        0.0002
     12 C         -12.9662  -16.9160   21.9489 C.ar    1  UNL1        0.0045
     13 C         -12.3801  -17.4579   23.2189 C.ar    1  UNL1        0.0532
     14 C         -10.9276  -17.2435   23.5258 C.ar    1  UNL1        0.0075
     15 C         -13.2466  -18.2143   24.1818 C.2     1  UNL1        0.2427
     16 N         -12.6235  -18.9645   25.3215 N.am    1  UNL1       -0.3253
     17 O         -14.7361  -18.2203   24.0050 O.2     1  UNL1       -0.2704
     18 H         -11.6459  -18.9605   25.4375 H       1  UNL1        0.1453
     19 H         -13.1922  -19.4609   25.9535 H       1  UNL1        0.1453
     20 C          -4.1774  -17.4113   25.1230 C.3     1  UNL1        0.0294
     21 C          -3.1221  -17.2012   24.0779 C.3     1  UNL1        0.0730
     22 N          -3.0639  -18.1012   22.8793 N.3     1  UNL1       -0.2726
     23 C          -1.8171  -18.5995   22.2107 C.3     1  UNL1        0.0721
     24 C          -2.2249  -19.4672   21.0571 C.3     1  UNL1        0.0190
     25 C          -3.7238  -19.5052   21.0128 C.3     1  UNL1        0.0201
     26 C          -3.8226  -20.4042   19.8162 C.3     1  UNL1        0.0061
     27 C          -5.0694  -19.9059   20.4848 C.3     1  UNL1        0.0237
     28 C          -4.2423  -18.6609   22.1390 C.3     1  UNL1        0.0724
     29 C          -6.5662  -19.8496   20.5661 C.ar    1  UNL1       -0.0225
     30 C          -7.3778  -19.6482   19.3208 C.ar    1  UNL1       -0.0043
     31 C          -8.8746  -19.5918   19.4021 C.ar    1  UNL1        0.0035
     32 C          -9.5596  -19.7369   20.7286 C.ar    1  UNL1        0.0714
     33 C          -8.7479  -19.9383   21.9739 C.ar    1  UNL1        0.0035
     34 C          -7.2512  -19.9946   21.8926 C.ar    1  UNL1       -0.0043
     35 C         -11.0563  -19.6805   20.8098 C.3     1  UNL1        0.4186
     36 F         -12.5531  -19.6242   20.8911 F       1  UNL1       -0.1659
     37 F         -11.1019  -18.9801   19.4842 F       1  UNL1       -0.1659
     38 F         -11.0107  -20.3810   22.1354 F       1  UNL1       -0.1659
@<TRIPOS>BOND
     1     3     4    1
     2     4     5   ar
     3     5     2    1
     4     2     1    1
     5     1    20    1
     6    20    21    1
     7    21    22    1
     8    22    23    1
     9    23    24    1
    10    25    24    1
    11    25    26    1
    12    26    27    1
    13    27    29    1
    14    29    30   ar
    15    30    31   ar
    16    31    32   ar
    17    32    35    1
    18    35    36    1
    19    35    37    1
    20    35    38    1
    21    32    33   ar
    22    33    34   ar
    23    25    28    1
    24     5     6   ar
    25     6     7   ar
    26     7     8   ar
    27     8     9    1
    28     9    10   ar
    29    10    11   ar
    30    11    12   ar
    31    12    13   ar
    32    13    15    1
    33    15    16   am
    34    15    17    2
    35    13    14   ar
    36     8     4   ar
    37    14     9   ar
    38    28    22    1
    39    27    25    1
    40    34    29   ar
    41    16    18    1
    42    16    19    1
@<TRIPOS>MOLECULE
*****
 38 42 0 0 0
SMALL
GASTEIGER

@<TRIPOS>ATOM
      1 C          -4.2952  -16.5505   26.2491 C.3     1  UNL1        0.0666
      2 S          -5.3720  -15.5205   26.0776 S.3     1  UNL1       -0.0756
      3 C          -8.5227  -16.3552   25.9176 C.3     1  UNL1        0.1340
      4 N          -7.6701  -15.9063   24.7680 N.ar    1  UNL1       -0.2884
      5 C          -6.2218  -15.5226   24.8416 C.ar    1  UNL1        0.1932
      6 N          -5.7726  -15.1415   23.4621 N.ar    1  UNL1       -0.1221
      7 N          -6.9432  -15.2896   22.5360 N.ar    1  UNL1       -0.1282
      8 C          -8.1159  -15.7623   23.3430 C.ar    1  UNL1        0.1668
      9 C          -9.4927  -16.0419   22.8174 C.ar    1  UNL1        0.0361
     10 C         -10.5071  -16.7164   23.6927 C.ar    1  UNL1        0.0031
     11 C         -11.8839  -16.9959   23.1671 C.ar    1  UNL1        0.0002
     12 C         -12.2463  -16.6010   21.7661 C.ar    1  UNL1        0.0045
     13 C         -11.2319  -15.9265   20.8908 C.ar    1  UNL1        0.0532
     14 C          -9.8551  -15.6469   21.4165 C.ar    1  UNL1        0.0075
     15 C         -11.5944  -15.5315   19.4898 C.2     1  UNL1        0.2427
     16 N         -12.9581  -15.8472   18.9506 N.am    1  UNL1       -0.3253
     17 O         -10.5932  -14.8210   18.6281 O.2     1  UNL1       -0.2704
     18 H         -13.6152  -16.3136   19.5163 H       1  UNL1        0.1453
     19 H         -13.1960  -15.5880   18.0312 H       1  UNL1        0.1453
     20 C          -4.0423  -17.5585   25.1674 C.3     1  UNL1        0.0294
     21 C          -2.9687  -17.3126   24.1491 C.3     1  UNL1        0.0730
     22 N          -2.9555  -18.0948   22.8693 N.3     1  UNL1       -0.2726
     23 C          -1.7353  -18.5070   22.1004 C.3     1  UNL1        0.0721
     24 C          -2.1860  -19.2691   20.8896 C.3     1  UNL1        0.0190
     25 C          -3.6847  -19.3279   20.9101 C.3     1  UNL1        0.0201
     26 C          -3.8283  -20.1120   19.6395 C.3     1  UNL1        0.0061
     27 C          -5.0485  -19.6998   20.4083 C.3     1  UNL1        0.0237
     28 C          -4.1603  -18.6022   22.1337 C.3     1  UNL1        0.0724
     29 C          -6.5404  -19.6765   20.5625 C.ar    1  UNL1       -0.0225
     30 C          -7.4176  -19.5519   19.3522 C.ar    1  UNL1       -0.0043
     31 C          -8.9095  -19.5286   19.5064 C.ar    1  UNL1        0.0035
     32 C          -9.5241  -19.6299   20.8710 C.ar    1  UNL1        0.0714
     33 C          -8.6468  -19.7544   22.0813 C.ar    1  UNL1        0.0035
     34 C          -7.1549  -19.7777   21.9271 C.ar    1  UNL1       -0.0043
     35 C         -11.0159  -19.6066   21.0252 C.3     1  UNL1        0.4186
     36 F         -12.5079  -19.5832   21.1794 F       1  UNL1       -0.1659
     37 F         -10.8830  -20.1932   22.3993 F       1  UNL1       -0.1659
     38 F         -11.1488  -19.0199   19.6511 F       1  UNL1       -0.1659
@<TRIPOS>BOND
     1     3     4    1
     2     4     5   ar
     3     5     2    1
     4     2     1    1
     5     1    20    1
     6    20    21    1
     7    21    22    1
     8    22    23    1
     9    23    24    1
    10    25    24    1
    11    25    26    1
    12    26    27    1
    13    27    29    1
    14    29    30   ar
    15    30    31   ar
    16    31    32   ar
    17    32    35    1
    18    35    36    1
    19    35    37    1
    20    35    38    1
    21    32    33   ar
    22    33    34   ar
    23    25    28    1
    24     5     6   ar
    25     6     7   ar
    26     7     8   ar
    27     8     9    1
    28     9    10   ar
    29    10    11   ar
    30    11    12   ar
    31    12    13   ar
    32    13    15    1
    33    15    16   am
    34    15    17    2
    35    13    14   ar
    36     8     4   ar
    37    14     9   ar
    38    28    22    1
    39    27    25    1
    40    34    29   ar
    41    16    18    1
    42    16    19    1
@<TRIPOS>MOLECULE
*****
 38 42 0 0 0
SMALL
GASTEIGER

@<TRIPOS>ATOM
      1 C          -2.4951  -19.1754   22.4780 C.3     1  UNL1        0.0666
      2 S          -2.9155  -19.3921   21.0546 S.3     1  UNL1       -0.0756
      3 C          -5.5635  -20.3308   22.7149 C.3     1  UNL1        0.1340
      4 N          -5.5573  -19.5870   21.4124 N.ar    1  UNL1       -0.2884
      5 C          -4.3402  -19.1555   20.6492 C.ar    1  UNL1        0.1932
      6 N          -4.7978  -18.4459   19.4094 N.ar    1  UNL1       -0.1221
      7 N          -6.2978  -18.4388   19.4063 N.ar    1  UNL1       -0.1282
      8 C          -6.7673  -19.1441   20.6442 C.ar    1  UNL1        0.1668
      9 C          -8.1958  -19.3672   21.0438 C.ar    1  UNL1        0.0361
     10 C          -9.2796  -19.3257   20.0077 C.ar    1  UNL1        0.0031
     11 C         -10.7081  -19.5488   20.4073 C.ar    1  UNL1        0.0002
     12 C         -11.0526  -19.8134   21.8430 C.ar    1  UNL1        0.0045
     13 C          -9.9688  -19.8549   22.8792 C.ar    1  UNL1        0.0532
     14 C          -8.5403  -19.6318   22.4795 C.ar    1  UNL1        0.0075
     15 C         -10.3134  -20.1195   24.3148 C.2     1  UNL1        0.2427
     16 N         -11.4456  -19.3793   24.9631 N.am    1  UNL1       -0.3253
     17 O          -9.5259  -21.1244   25.1022 O.2     1  UNL1       -0.2704
     18 H         -11.9625  -18.7198   24.4463 H       1  UNL1        0.1453
     19 H         -11.6718  -19.5530   25.9054 H       1  UNL1        0.1453
     20 C          -2.3653  -17.7819   23.0179 C.3     1  UNL1        0.0294
     21 C          -3.4510  -16.7772   22.7696 C.3     1  UNL1        0.0730
     22 N          -4.4493  -16.4702   23.8463 N.3     1  UNL1       -0.2726
     23 C          -4.1463  -16.2904   25.3043 C.3     1  UNL1        0.0721
     24 C          -5.4356  -15.9982   26.0130 C.3     1  UNL1        0.0190
     25 C          -6.5354  -15.9973   24.9929 C.3     1  UNL1        0.0201
     26 C          -7.6432  -15.6919   25.9570 C.3     1  UNL1        0.0061
     27 C          -7.9462  -15.8716   24.4990 C.3     1  UNL1        0.0237
     28 C          -5.9258  -16.2890   23.6538 C.3     1  UNL1        0.0724
     29 C          -8.9356  -15.9028   23.3720 C.ar    1  UNL1       -0.0225
     30 C         -10.3519  -16.3249   23.6288 C.ar    1  UNL1       -0.0043
     31 C         -11.3413  -16.3561   22.5018 C.ar    1  UNL1        0.0035
     32 C         -10.9143  -15.9652   21.1180 C.ar    1  UNL1        0.0714
     33 C          -9.4980  -15.5431   20.8612 C.ar    1  UNL1        0.0035
     34 C          -8.5086  -15.5119   21.9882 C.ar    1  UNL1       -0.0043
     35 C         -11.9037  -15.9964   19.9910 C.3     1  UNL1        0.4186
     36 F         -12.8931  -16.0277   18.8640 F       1  UNL1       -0.1659
     37 F         -10.9372  -15.2479   19.1218 F       1  UNL1       -0.1659
     38 F         -12.8702  -16.7450   20.8602 F       1  UNL1       -0.1659
@<TRIPOS>BOND
     1     3     4    1
     2     4     5   ar
     3     5     2    1
     4     2     1    1
     5     1    20    1
     6    20    21    1
     7    21    22    1
     8    22    23    1
     9    23    24    1
    10    25    24    1
    11    25    26    1
    12    26    27    1
    13    27    29    1
    14    29    30   ar
    15    30    31   ar
    16    31    32   ar
    17    32    35    1
    18    35    36    1
    19    35    37    1
    20    35    38    1
    21    32    33   ar
    22    33    34   ar
    23    25    28    1
    24     5     6   ar
    25     6     7   ar
    26     7     8   ar
    27     8     9    1
    28     9    10   ar
    29    10    11   ar
    30    11    12   ar
    31    12    13   ar
    32    13    15    1
    33    15    16   am
    34    15    17    2
    35    13    14   ar
    36     8     4   ar
    37    14     9   ar
    38    28    22    1
    39    27    25    1
    40    34    29   ar
    41    16    18    1
    42    16    19    1
@<TRIPOS>MOLECULE
*****
 38 42 0 0 0
SMALL
GASTEIGER

@<TRIPOS>ATOM
      1 C          -1.0658  -18.1516   19.2417 C.3     1  UNL1        0.0666
      2 S          -0.7738  -18.1462   20.7129 S.3     1  UNL1       -0.0756
      3 C          -2.4540  -15.6669   22.0088 C.3     1  UNL1        0.1340
      4 N          -2.6688  -17.1233   22.2964 N.ar    1  UNL1       -0.2884
      5 C          -1.8965  -18.2629   21.7008 C.ar    1  UNL1        0.1932
      6 N          -2.4440  -19.5398   22.2663 N.ar    1  UNL1       -0.1221
      7 N          -3.5548  -19.1893   23.2115 N.ar    1  UNL1       -0.1282
      8 C          -3.6938  -17.6959   23.2302 C.ar    1  UNL1        0.1668
      9 C          -4.6838  -16.9125   24.0403 C.ar    1  UNL1        0.0361
     10 C          -4.3532  -16.5147   25.4483 C.ar    1  UNL1        0.0031
     11 C          -5.3433  -15.7313   26.2584 C.ar    1  UNL1        0.0002
     12 C          -6.6638  -15.3458   25.6603 C.ar    1  UNL1        0.0045
     13 C          -6.9944  -15.7436   24.2523 C.ar    1  UNL1        0.0532
     14 C          -6.0043  -16.5270   23.4423 C.ar    1  UNL1        0.0075
     15 C          -8.3149  -15.3581   23.6544 C.2     1  UNL1        0.2427
     16 N          -8.4008  -14.9826   22.2047 N.am    1  UNL1       -0.3253
     17 O          -9.5495  -15.3480   24.5062 O.2     1  UNL1       -0.2704
     18 H          -7.5905  -14.9892   21.6457 H       1  UNL1        0.1453
     19 H          -9.2675  -14.7295   21.8123 H       1  UNL1        0.1453
     20 C          -2.0365  -17.1634   18.6660 C.3     1  UNL1        0.0294
     21 C          -3.5108  -17.3597   18.8606 C.3     1  UNL1        0.0730
     22 N          -4.0392  -18.6962   19.2903 N.3     1  UNL1       -0.2726
     23 C          -3.3227  -20.0083   19.1682 C.3     1  UNL1        0.0721
     24 C          -4.2176  -21.0782   19.7200 C.3     1  UNL1        0.0190
     25 C          -5.4872  -20.4272   20.1831 C.3     1  UNL1        0.0201
     26 C          -6.1455  -21.6883   20.6589 C.3     1  UNL1        0.0061
     27 C          -6.8620  -20.3762   20.7809 C.3     1  UNL1        0.0237
     28 C          -5.3770  -18.9551   19.9175 C.3     1  UNL1        0.0724
     29 C          -8.0694  -19.5891   21.1965 C.ar    1  UNL1       -0.0225
     30 C          -9.0372  -19.0976   20.1612 C.ar    1  UNL1       -0.0043
     31 C         -10.2446  -18.3106   20.5768 C.ar    1  UNL1        0.0035
     32 C         -10.4842  -18.0150   22.0277 C.ar    1  UNL1        0.0714
     33 C          -9.5164  -18.5065   23.0630 C.ar    1  UNL1        0.0035
     34 C          -8.3090  -19.2936   22.6475 C.ar    1  UNL1       -0.0043
     35 C         -11.6916  -17.2280   22.4433 C.3     1  UNL1        0.4186
     36 F         -12.8990  -16.4408   22.8589 F       1  UNL1       -0.1659
     37 F         -12.1736  -18.3950   23.2530 F       1  UNL1       -0.1659
     38 F         -11.2095  -16.0609   21.6336 F       1  UNL1       -0.1659
@<TRIPOS>BOND
     1     3     4    1
     2     4     5   ar
     3     5     2    1
     4     2     1    1
     5     1    20    1
     6    20    21    1
     7    21    22    1
     8    22    23    1
     9    23    24    1
    10    25    24    1
    11    25    26    1
    12    26    27    1
    13    27    29    1
    14    29    30   ar
    15    30    31   ar
    16    31    32   ar
    17    32    35    1
    18    35    36    1
    19    35    37    1
    20    35    38    1
    21    32    33   ar
    22    33    34   ar
    23    25    28    1
    24     5     6   ar
    25     6     7   ar
    26     7     8   ar
    27     8     9    1
    28     9    10   ar
    29    10    11   ar
    30    11    12   ar
    31    12    13   ar
    32    13    15    1
    33    15    16   am
    34    15    17    2
    35    13    14   ar
    36     8     4   ar
    37    14     9   ar
    38    28    22    1
    39    27    25    1
    40    34    29   ar
    41    16    18    1
    42    16    19    1
@<TRIPOS>MOLECULE
*****
 38 42 0 0 0
SMALL
GASTEIGER

@<TRIPOS>ATOM
      1 C           0.5877    4.9591   20.2425 C.3     1  UNL1        0.0666
      2 S           0.1195    3.9953   21.2921 S.3     1  UNL1       -0.0756
      3 C           2.9455    2.4401   21.7870 C.3     1  UNL1        0.1340
      4 N           1.6574    1.8097   21.3473 N.ar    1  UNL1       -0.2884
      5 C           0.3584    2.5245   21.1198 C.ar    1  UNL1        0.1932
      6 N          -0.6597    1.5103   20.6898 N.ar    1  UNL1       -0.1221
      7 N           0.0100    0.1687   20.6515 N.ar    1  UNL1       -0.1282
      8 C           1.4421    0.3536   21.0578 C.ar    1  UNL1        0.1668
      9 C           2.4771   -0.7276   21.1573 C.ar    1  UNL1        0.0361
     10 C           3.0617   -1.0857   22.4914 C.ar    1  UNL1        0.0031
     11 C           4.0967   -2.1669   22.5908 C.ar    1  UNL1        0.0002
     12 C           4.5470   -2.8899   21.3560 C.ar    1  UNL1        0.0045
     13 C           3.9623   -2.5317   20.0219 C.ar    1  UNL1        0.0532
     14 C           2.9273   -1.4505   19.9225 C.ar    1  UNL1        0.0075
     15 C           4.4126   -3.2547   18.7872 C.2     1  UNL1        0.2427
     16 N           3.9590   -4.6620   18.5347 N.am    1  UNL1       -0.3253
     17 O           5.3166   -2.5704   17.8051 O.2     1  UNL1       -0.2704
     18 H           3.3657   -5.1111   19.1793 H       1  UNL1        0.1453
     19 H           4.2545   -5.1365   17.7243 H       1  UNL1        0.1453
     20 C          -0.3776    5.4820   19.2203 C.3     1  UNL1        0.0294
     21 C          -0.8730    4.5822   18.1272 C.3     1  UNL1        0.0730
     22 N          -2.3306    4.2385   18.0416 N.3     1  UNL1       -0.2726
     23 C          -3.0848    3.9010   16.7897 C.3     1  UNL1        0.0721
     24 C          -4.5102    3.6258   17.1674 C.3     1  UNL1        0.0190
     25 C          -4.6369    3.7933   18.6526 C.3     1  UNL1        0.0201
     26 C          -6.0997    3.4689   18.7228 C.3     1  UNL1        0.0061
     27 C          -5.3455    3.8064   19.9746 C.3     1  UNL1        0.0237
     28 C          -3.2898    4.1719   19.1929 C.3     1  UNL1        0.0724
     29 C          -5.3191    4.0089   21.4607 C.ar    1  UNL1       -0.0225
     30 C          -4.8438    2.9061   22.3595 C.ar    1  UNL1       -0.0043
     31 C          -4.8174    3.1085   23.8456 C.ar    1  UNL1        0.0035
     32 C          -5.2663    4.4138   24.4327 C.ar    1  UNL1        0.0714
     33 C          -5.7415    5.5166   23.5338 C.ar    1  UNL1        0.0035
     34 C          -5.7679    5.3142   22.0478 C.ar    1  UNL1       -0.0043
     35 C          -5.2399    4.6163   25.9187 C.3     1  UNL1        0.4186
     36 F          -5.2135    4.8188   27.4048 F       1  UNL1       -0.1659
     37 F          -3.9098    3.9265   25.9891 F       1  UNL1       -0.1659
     38 F          -6.5700    5.3061   25.8484 F       1  UNL1       -0.1659
@<TRIPOS>BOND
     1     3     4    1
     2     4     5   ar
     3     5     2    1
     4     2     1    1
     5     1    20    1
     6    20    21    1
     7    21    22    1
     8    22    23    1
     9    23    24    1
    10    25    24    1
    11    25    26    1
    12    26    27    1
    13    27    29    1
    14    29    30   ar
    15    30    31   ar
    16    31    32   ar
    17    32    35    1
    18    35    36    1
    19    35    37    1
    20    35    38    1
    21    32    33   ar
    22    33    34   ar
    23    25    28    1
    24     5     6   ar
    25     6     7   ar
    26     7     8   ar
    27     8     9    1
    28     9    10   ar
    29    10    11   ar
    30    11    12   ar
    31    12    13   ar
    32    13    15    1
    33    15    16   am
    34    15    17    2
    35    13    14   ar
    36     8     4   ar
    37    14     9   ar
    38    28    22    1
    39    27    25    1
    40    34    29   ar
    41    16    18    1
    42    16    19    1
@<TRIPOS>MOLECULE
*****
 38 42 0 0 0
SMALL
GASTEIGER

@<TRIPOS>ATOM
      1 C          -3.8744  -20.1534   19.7299 C.3     1  UNL1        0.0666
      2 S          -4.9812  -21.1278   20.0043 S.3     1  UNL1       -0.0756
      3 C          -7.6331  -19.7973   18.6452 C.3     1  UNL1        0.1340
      4 N          -7.4322  -20.0662   20.1071 N.ar    1  UNL1       -0.2884
      5 C          -6.2133  -20.6778   20.7318 C.ar    1  UNL1        0.1932
      6 N          -6.4428  -20.7603   22.2119 N.ar    1  UNL1       -0.1221
      7 N          -7.8036  -20.1998   22.5019 N.ar    1  UNL1       -0.1282
      8 C          -8.4151  -19.7708   21.2011 C.ar    1  UNL1        0.1668
      9 C          -9.7714  -19.1546   21.0252 C.ar    1  UNL1        0.0361
     10 C         -10.9973  -19.9041   21.4558 C.ar    1  UNL1        0.0031
     11 C         -12.3535  -19.2879   21.2799 C.ar    1  UNL1        0.0002
     12 C         -12.4837  -17.9221   20.6734 C.ar    1  UNL1        0.0045
     13 C         -11.2578  -17.1726   20.2428 C.ar    1  UNL1        0.0532
     14 C          -9.9016  -17.7889   20.4187 C.ar    1  UNL1        0.0075
     15 C         -11.3882  -15.8069   19.6363 C.2     1  UNL1        0.2427
     16 N         -12.6594  -15.4113   18.9452 N.am    1  UNL1       -0.3253
     17 O         -10.2473  -14.8367   19.7209 O.2     1  UNL1       -0.2704
     18 H         -13.4082  -16.0481   18.8897 H       1  UNL1        0.1453
     19 H         -12.7449  -14.5150   18.5472 H       1  UNL1        0.1453
     20 C          -3.7301  -18.9240   20.5773 C.3     1  UNL1        0.0294
     21 C          -4.0807  -18.9725   22.0349 C.3     1  UNL1        0.0730
     22 N          -4.4474  -17.7118   22.7604 N.3     1  UNL1       -0.2726
     23 C          -3.5074  -16.6041   23.1336 C.3     1  UNL1        0.0721
     24 C          -4.2975  -15.5453   23.8439 C.3     1  UNL1        0.0190
     25 C          -5.7259  -15.9986   23.9097 C.3     1  UNL1        0.0201
     26 C          -6.2399  -14.7923   24.6381 C.3     1  UNL1        0.0061
     27 C          -7.1799  -15.9001   24.2650 C.3     1  UNL1        0.0237
     28 C          -5.8185  -17.3377   23.2401 C.3     1  UNL1        0.0724
     29 C          -8.5620  -16.4827   24.2546 C.ar    1  UNL1       -0.0225
     30 C          -8.8428  -17.7607   24.9881 C.ar    1  UNL1       -0.0043
     31 C         -10.2249  -18.3434   24.9777 C.ar    1  UNL1        0.0035
     32 C         -11.3263  -17.6481   24.2338 C.ar    1  UNL1        0.0714
     33 C         -11.0456  -16.3701   23.5003 C.ar    1  UNL1        0.0035
     34 C          -9.6635  -15.7874   23.5107 C.ar    1  UNL1       -0.0043
     35 C         -12.7085  -18.2307   24.2235 C.3     1  UNL1        0.4186
     36 F         -14.0907  -18.8134   24.2131 F       1  UNL1       -0.1659
     37 F         -13.2162  -17.0137   23.5086 F       1  UNL1       -0.1659
     38 F         -12.2008  -19.4478   24.9383 F       1  UNL1       -0.1659
@<TRIPOS>BOND
     1     3     4    1
     2     4     5   ar
     3     5     2    1
     4     2     1    1
     5     1    20    1
     6    20    21    1
     7    21    22    1
     8    22    23    1
     9    23    24    1
    10    25    24    1
    11    25    26    1
    12    26    27    1
    13    27    29    1
    14    29    30   ar
    15    30    31   ar
    16    31    32   ar
    17    32    35    1
    18    35    36    1
    19    35    37    1
    20    35    38    1
    21    32    33   ar
    22    33    34   ar
    23    25    28    1
    24     5     6   ar
    25     6     7   ar
    26     7     8   ar
    27     8     9    1
    28     9    10   ar
    29    10    11   ar
    30    11    12   ar
    31    12    13   ar
    32    13    15    1
    33    15    16   am
    34    15    17    2
    35    13    14   ar
    36     8     4   ar
    37    14     9   ar
    38    28    22    1
    39    27    25    1
    40    34    29   ar
    41    16    18    1
    42    16    19    1
@<TRIPOS>MOLECULE
*****
 38 42 0 0 0
SMALL
GASTEIGER

@<TRIPOS>ATOM
      1 C          -1.0363  -17.8652   19.9011 C.3     1  UNL1        0.0666
      2 S          -1.0497  -17.9964   21.3952 S.3     1  UNL1       -0.0756
      3 C          -2.9371  -15.4414   22.1431 C.3     1  UNL1        0.1340
      4 N          -3.2229  -16.8759   22.4754 N.ar    1  UNL1       -0.2884
      5 C          -2.3554  -18.0504   22.1316 C.ar    1  UNL1        0.1932
      6 N          -3.0228  -19.2882   22.6535 N.ar    1  UNL1       -0.1221
      7 N          -4.3028  -18.8788   23.3199 N.ar    1  UNL1       -0.1282
      8 C          -4.4265  -17.3879   23.2098 C.ar    1  UNL1        0.1668
      9 C          -5.5555  -16.5553   23.7409 C.ar    1  UNL1        0.0361
     10 C          -6.4550  -15.8191   22.7928 C.ar    1  UNL1        0.0031
     11 C          -7.5840  -14.9865   23.3239 C.ar    1  UNL1        0.0002
     12 C          -7.8135  -14.8901   24.8031 C.ar    1  UNL1        0.0045
     13 C          -6.9141  -15.6264   25.7512 C.ar    1  UNL1        0.0532
     14 C          -5.7850  -16.4590   25.2201 C.ar    1  UNL1        0.0075
     15 C          -7.1437  -15.5300   27.2304 C.2     1  UNL1        0.2427
     16 N          -8.1329  -14.5415   27.7730 N.am    1  UNL1       -0.3253
     17 O          -6.3840  -16.4221   28.1670 O.2     1  UNL1       -0.2704
     18 H          -8.6314  -13.9560   27.1583 H       1  UNL1        0.1453
     19 H          -8.2835  -14.4783   28.7439 H       1  UNL1        0.1453
     20 C          -1.9860  -16.9230   19.2224 C.3     1  UNL1        0.0294
     21 C          -3.3040  -17.4251   18.7118 C.3     1  UNL1        0.0730
     22 N          -3.8600  -18.7225   19.2194 N.3     1  UNL1       -0.2726
     23 C          -3.1724  -20.0548   19.1726 C.3     1  UNL1        0.0721
     24 C          -4.0887  -21.0710   19.7872 C.3     1  UNL1        0.0190
     25 C          -5.3425  -20.3668   20.2138 C.3     1  UNL1        0.0201
     26 C          -6.0265  -21.5835   20.7632 C.3     1  UNL1        0.0061
     27 C          -6.7141  -20.2512   20.8100 C.3     1  UNL1        0.0237
     28 C          -5.2012  -18.9153   19.8629 C.3     1  UNL1        0.0724
     29 C          -7.9029  -19.4152   21.1812 C.ar    1  UNL1       -0.0225
     30 C          -8.0864  -18.9599   22.5986 C.ar    1  UNL1       -0.0043
     31 C          -9.2752  -18.1239   22.9699 C.ar    1  UNL1        0.0035
     32 C         -10.2805  -17.7432   21.9237 C.ar    1  UNL1        0.0714
     33 C         -10.0970  -18.1985   20.5063 C.ar    1  UNL1        0.0035
     34 C          -8.9081  -19.0345   20.1350 C.ar    1  UNL1       -0.0043
     35 C         -11.4693  -16.9072   22.2949 C.3     1  UNL1        0.4186
     36 F         -12.6582  -16.0712   22.6661 F       1  UNL1       -0.1659
     37 F         -10.6734  -16.2619   23.3904 F       1  UNL1       -0.1659
     38 F         -12.2652  -17.5525   21.1994 F       1  UNL1       -0.1659
@<TRIPOS>BOND
     1     3     4    1
     2     4     5   ar
     3     5     2    1
     4     2     1    1
     5     1    20    1
     6    20    21    1
     7    21    22    1
     8    22    23    1
     9    23    24    1
    10    25    24    1
    11    25    26    1
    12    26    27    1
    13    27    29    1
    14    29    30   ar
    15    30    31   ar
    16    31    32   ar
    17    32    35    1
    18    35    36    1
    19    35    37    1
    20    35    38    1
    21    32    33   ar
    22    33    34   ar
    23    25    28    1
    24     5     6   ar
    25     6     7   ar
    26     7     8   ar
    27     8     9    1
    28     9    10   ar
    29    10    11   ar
    30    11    12   ar
    31    12    13   ar
    32    13    15    1
    33    15    16   am
    34    15    17    2
    35    13    14   ar
    36     8     4   ar
    37    14     9   ar
    38    28    22    1
    39    27    25    1
    40    34    29   ar
    41    16    18    1
    42    16    19    1
@<TRIPOS>MOLECULE
*****
 38 42 0 0 0
SMALL
GASTEIGER

@<TRIPOS>ATOM
      1 C           3.7257    0.3433   25.7806 C.3     1  UNL1        0.0666
      2 S           3.5993    1.4792   24.8092 S.3     1  UNL1       -0.0756
      3 C           2.7795    3.0696   22.0800 C.3     1  UNL1        0.1340
      4 N           1.8712    2.7790   23.2378 N.ar    1  UNL1       -0.2884
      5 C           2.2480    2.0480   24.4923 C.ar    1  UNL1        0.1932
      6 N           1.0362    1.9856   25.3742 N.ar    1  UNL1       -0.1221
      7 N          -0.0895    2.6781   24.6648 N.ar    1  UNL1       -0.1282
      8 C           0.4265    3.1685   23.3444 C.ar    1  UNL1        0.1668
      9 C          -0.3635    3.9169   22.3120 C.ar    1  UNL1        0.0361
     10 C           0.0743    5.2845   21.8787 C.ar    1  UNL1        0.0031
     11 C          -0.7156    6.0329   20.8463 C.ar    1  UNL1        0.0002
     12 C          -1.9434    5.4135   20.2471 C.ar    1  UNL1        0.0045
     13 C          -2.3812    4.0458   20.6804 C.ar    1  UNL1        0.0532
     14 C          -1.5912    3.2975   21.7128 C.ar    1  UNL1        0.0075
     15 C          -3.6089    3.4264   20.0812 C.2     1  UNL1        0.2427
     16 N          -4.4814    2.5342   20.9135 N.am    1  UNL1       -0.3253
     17 O          -3.9643    3.6994   18.6496 O.2     1  UNL1       -0.2704
     18 H          -4.2482    2.3551   21.8530 H       1  UNL1        0.1453
     19 H          -5.2872    2.1277   20.5202 H       1  UNL1        0.1453
     20 C           3.6661   -1.0731   25.2904 C.3     1  UNL1        0.0294
     21 C           4.8074   -1.6422   24.5007 C.3     1  UNL1        0.0730
     22 N           4.5500   -2.2972   23.1761 N.3     1  UNL1       -0.2726
     23 C           4.8980   -3.7091   22.8082 C.3     1  UNL1        0.0721
     24 C           4.4625   -3.9397   21.3915 C.3     1  UNL1        0.0190
     25 C           3.8454   -2.6704   20.8838 C.3     1  UNL1        0.0201
     26 C           3.5249   -3.1891   19.5133 C.3     1  UNL1        0.0061
     27 C           3.1769   -1.7771   19.8811 C.3     1  UNL1        0.0237
     28 C           3.8995   -1.6552   21.9867 C.3     1  UNL1        0.0724
     29 C           2.5901   -0.4462   19.5146 C.ar    1  UNL1       -0.0225
     30 C           3.4410    0.5885   18.8398 C.ar    1  UNL1       -0.0043
     31 C           2.8541    1.9194   18.4733 C.ar    1  UNL1        0.0035
     32 C           1.4164    2.2155   18.7817 C.ar    1  UNL1        0.0714
     33 C           0.5654    1.1808   19.4565 C.ar    1  UNL1        0.0035
     34 C           1.1523   -0.1501   19.8229 C.ar    1  UNL1       -0.0043
     35 C           0.8295    3.5464   18.4152 C.3     1  UNL1        0.4186
     36 F           0.2427    4.8774   18.0487 F       1  UNL1       -0.1659
     37 F          -0.5171    2.9069   18.2493 F       1  UNL1       -0.1659
     38 F           2.1762    4.1859   18.5810 F       1  UNL1       -0.1659
@<TRIPOS>BOND
     1     3     4    1
     2     4     5   ar
     3     5     2    1
     4     2     1    1
     5     1    20    1
     6    20    21    1
     7    21    22    1
     8    22    23    1
     9    23    24    1
    10    25    24    1
    11    25    26    1
    12    26    27    1
    13    27    29    1
    14    29    30   ar
    15    30    31   ar
    16    31    32   ar
    17    32    35    1
    18    35    36    1
    19    35    37    1
    20    35    38    1
    21    32    33   ar
    22    33    34   ar
    23    25    28    1
    24     5     6   ar
    25     6     7   ar
    26     7     8   ar
    27     8     9    1
    28     9    10   ar
    29    10    11   ar
    30    11    12   ar
    31    12    13   ar
    32    13    15    1
    33    15    16   am
    34    15    17    2
    35    13    14   ar
    36     8     4   ar
    37    14     9   ar
    38    28    22    1
    39    27    25    1
    40    34    29   ar
    41    16    18    1
    42    16    19    1
