@<TRIPOS>MOLECULE
*****
 24 26 0 0 0
SMALL
GASTEIGER

@<TRIPOS>ATOM
      1 O          -7.9082  -19.5372   21.9589 O.2     1  UNL1       -0.2699
      2 C          -8.2171  -18.1772   22.5112 C.2     1  UNL1        0.2490
      3 N          -7.1032  -17.2829   22.9690 N.am    1  UNL1       -0.2763
      4 C          -9.6399  -17.7115   22.6056 C.ar    1  UNL1        0.0575
      5 C         -10.0848  -16.5000   21.8412 C.ar    1  UNL1        0.0045
      6 C         -11.5075  -16.0342   21.9357 C.ar    1  UNL1        0.0001
      7 C         -12.4853  -16.7800   22.7945 C.ar    1  UNL1       -0.0001
      8 C         -12.0404  -17.9915   23.5589 C.ar    1  UNL1        0.0040
      9 C         -10.6177  -18.4573   23.4645 C.ar    1  UNL1        0.0758
     10 C         -10.1728  -19.6688   24.2289 C.3     1  UNL1        0.4187
     11 F          -9.7279  -20.8803   24.9933 F       1  UNL1       -0.1659
     12 F          -9.7538  -18.7933   25.3726 F       1  UNL1       -0.1659
     13 F         -10.5917  -20.5442   23.0852 F       1  UNL1       -0.1659
     14 C          -5.6804  -17.7486   22.8745 C.3     1  UNL1        0.0927
     15 C          -4.4967  -17.1060   23.5346 C.3     1  UNL1        0.0383
     16 C          -3.2763  -17.8989   23.1714 C.3     1  UNL1        0.0704
     17 N          -3.7058  -19.0317   22.2868 N.3     1  UNL1       -0.2960
     18 C          -5.1918  -18.9388   22.1033 C.3     1  UNL1        0.0887
     19 H          -3.4659  -19.9218   22.7232 H       1  UNL1        0.1233
     20 C          -7.4121  -15.9229   23.5212 C.3     1  UNL1        0.0936
     21 C          -7.6032  -15.7386   24.9976 C.3     1  UNL1        0.0199
     22 C          -6.6882  -15.5308   26.1677 C.3     1  UNL1        0.0017
     23 C          -7.8735  -15.4780   27.0854 C.3     1  UNL1        0.0001
     24 C          -8.7886  -15.6858   25.9152 C.3     1  UNL1        0.0017
@<TRIPOS>BOND
     1     1     2    2
     2     2     4    1
     3     4     5   ar
     4     5     6   ar
     5     6     7   ar
     6     7     8   ar
     7     8     9   ar
     8     9    10    1
     9    10    11    1
    10    10    12    1
    11    10    13    1
    12     2     3   am
    13     3    20    1
    14    20    21    1
    15    21    22    1
    16    22    23    1
    17    23    24    1
    18    14     3    1
    19    14    15    1
    20    15    16    1
    21    16    17    1
    22    17    18    1
    23     9     4   ar
    24    24    21    1
    25    18    14    1
    26    17    19    1
@<TRIPOS>MOLECULE
*****
 24 26 0 0 0
SMALL
GASTEIGER

@<TRIPOS>ATOM
      1 O          -7.6076  -16.1642   22.4884 O.2     1  UNL1       -0.2699
      2 C          -8.6196  -17.2592   22.6526 C.2     1  UNL1        0.2490
      3 N          -9.1963  -17.5506   24.0062 N.am    1  UNL1       -0.2763
      4 C          -9.0548  -18.0627   21.4630 C.ar    1  UNL1        0.0575
      5 C         -10.3354  -17.7260   20.7583 C.ar    1  UNL1        0.0045
      6 C         -10.7706  -18.5295   19.5688 C.ar    1  UNL1        0.0001
      7 C          -9.9252  -19.6697   19.0840 C.ar    1  UNL1       -0.0001
      8 C          -8.6445  -20.0064   19.7887 C.ar    1  UNL1        0.0040
      9 C          -8.2093  -19.2029   20.9782 C.ar    1  UNL1        0.0758
     10 C          -6.9287  -19.5397   21.6829 C.3     1  UNL1        0.4187
     11 F          -5.6481  -19.8764   22.3875 F       1  UNL1       -0.1659
     12 F          -7.6910  -20.3729   22.6701 F       1  UNL1       -0.1659
     13 F          -6.1664  -18.7065   20.6956 F       1  UNL1       -0.1659
     14 C          -8.7611  -16.7471   25.1958 C.3     1  UNL1        0.0927
     15 C          -8.8162  -17.1909   26.6275 C.3     1  UNL1        0.0383
     16 C          -8.2836  -16.0767   27.4790 C.3     1  UNL1        0.0704
     17 N          -7.8993  -14.9443   26.5734 N.3     1  UNL1       -0.2960
     18 C          -8.1945  -15.3586   25.1622 C.3     1  UNL1        0.0887
     19 H          -6.9045  -14.7428   26.6741 H       1  UNL1        0.1233
     20 C         -10.2083  -18.6456   24.1704 C.3     1  UNL1        0.0936
     21 C         -11.6721  -18.3366   24.0615 C.3     1  UNL1        0.0199
     22 C         -12.5093  -17.4681   23.1701 C.3     1  UNL1        0.0017
     23 C         -13.7422  -17.8995   23.9076 C.3     1  UNL1        0.0001
     24 C         -12.9049  -18.7681   24.7990 C.3     1  UNL1        0.0017
@<TRIPOS>BOND
     1     1     2    2
     2     2     4    1
     3     4     5   ar
     4     5     6   ar
     5     6     7   ar
     6     7     8   ar
     7     8     9   ar
     8     9    10    1
     9    10    11    1
    10    10    12    1
    11    10    13    1
    12     2     3   am
    13     3    20    1
    14    20    21    1
    15    21    22    1
    16    22    23    1
    17    23    24    1
    18    14     3    1
    19    14    15    1
    20    15    16    1
    21    16    17    1
    22    17    18    1
    23     9     4   ar
    24    24    21    1
    25    18    14    1
    26    17    19    1
@<TRIPOS>MOLECULE
*****
 24 26 0 0 0
SMALL
GASTEIGER

@<TRIPOS>ATOM
      1 O          -9.0297  -19.8017   22.0047 O.2     1  UNL1       -0.2699
      2 C          -9.4488  -18.5935   22.7888 C.2     1  UNL1        0.2490
      3 N          -8.4235  -17.5886   23.2233 N.am    1  UNL1       -0.2763
      4 C         -10.8933  -18.3903   23.1384 C.ar    1  UNL1        0.0575
      5 C         -11.4213  -18.8741   24.4564 C.ar    1  UNL1        0.0045
      6 C         -12.8657  -18.6709   24.8060 C.ar    1  UNL1        0.0001
      7 C         -13.7822  -17.9838   23.8376 C.ar    1  UNL1       -0.0001
      8 C         -13.2543  -17.5000   22.5195 C.ar    1  UNL1        0.0040
      9 C         -11.8099  -17.7032   22.1699 C.ar    1  UNL1        0.0758
     10 C         -11.2820  -17.2194   20.8519 C.3     1  UNL1        0.4187
     11 F         -10.7540  -16.7356   19.5338 F       1  UNL1       -0.1659
     12 F         -10.9842  -15.8819   21.4621 F       1  UNL1       -0.1659
     13 F         -11.5797  -18.5569   20.2416 F       1  UNL1       -0.1659
     14 C          -6.9789  -17.7919   22.8737 C.3     1  UNL1        0.0927
     15 C          -6.4110  -18.9525   22.1119 C.3     1  UNL1        0.0383
     16 C          -4.9299  -18.7481   21.9919 C.3     1  UNL1        0.0704
     17 N          -4.5824  -17.4610   22.6796 N.3     1  UNL1       -0.2960
     18 C          -5.8488  -16.8700   23.2246 C.3     1  UNL1        0.0887
     19 H          -4.1582  -16.8159   22.0131 H       1  UNL1        0.1233
     20 C          -8.8425  -16.3805   24.0073 C.3     1  UNL1        0.0936
     21 C          -8.5608  -16.3065   25.4788 C.3     1  UNL1        0.0199
     22 C          -8.9177  -17.1447   26.6704 C.3     1  UNL1        0.0017
     23 C          -8.1624  -16.2019   27.5598 C.3     1  UNL1        0.0001
     24 C          -7.8055  -15.3638   26.3681 C.3     1  UNL1        0.0017
@<TRIPOS>BOND
     1     1     2    2
     2     2     4    1
     3     4     5   ar
     4     5     6   ar
     5     6     7   ar
     6     7     8   ar
     7     8     9   ar
     8     9    10    1
     9    10    11    1
    10    10    12    1
    11    10    13    1
    12     2     3   am
    13     3    20    1
    14    20    21    1
    15    21    22    1
    16    22    23    1
    17    23    24    1
    18    14     3    1
    19    14    15    1
    20    15    16    1
    21    16    17    1
    22    17    18    1
    23     9     4   ar
    24    24    21    1
    25    18    14    1
    26    17    19    1
@<TRIPOS>MOLECULE
*****
 24 26 0 0 0
SMALL
GASTEIGER

@<TRIPOS>ATOM
      1 O          -8.8373  -16.7548   21.1435 O.2     1  UNL1       -0.2699
      2 C          -8.3867  -17.1354   22.5227 C.2     1  UNL1        0.2490
      3 N          -9.3995  -17.3838   23.6008 N.am    1  UNL1       -0.2763
      4 C          -6.9231  -17.2676   22.8237 C.ar    1  UNL1        0.0575
      5 C          -6.2411  -16.2516   23.6913 C.ar    1  UNL1        0.0045
      6 C          -4.7776  -16.3838   23.9923 C.ar    1  UNL1        0.0001
      7 C          -3.9961  -17.5319   23.4256 C.ar    1  UNL1       -0.0001
      8 C          -4.6781  -18.5478   22.5580 C.ar    1  UNL1        0.0040
      9 C          -6.1416  -18.4156   22.2570 C.ar    1  UNL1        0.0758
     10 C          -6.8236  -19.4316   21.3894 C.3     1  UNL1        0.4187
     11 F          -7.5056  -20.4475   20.5218 F       1  UNL1       -0.1659
     12 F          -6.4186  -18.6605   20.1682 F       1  UNL1       -0.1659
     13 F          -7.2286  -20.2027   22.6107 F       1  UNL1       -0.1659
     14 C         -10.8631  -17.2516   23.2998 C.3     1  UNL1        0.0927
     15 C         -11.9167  -18.2829   23.5759 C.3     1  UNL1        0.0383
     16 C         -13.2347  -17.7336   23.1166 C.3     1  UNL1        0.0704
     17 N         -12.9957  -16.3626   22.5567 N.3     1  UNL1       -0.2960
     18 C         -11.5299  -16.0647   22.6699 C.3     1  UNL1        0.0887
     19 H         -13.5308  -15.6743   23.0862 H       1  UNL1        0.1233
     20 C          -8.9488  -17.7643   24.9800 C.3     1  UNL1        0.0936
     21 C          -8.6823  -16.6996   26.0024 C.3     1  UNL1        0.0199
     22 C          -8.3029  -16.6938   27.4535 C.3     1  UNL1        0.0017
     23 C          -8.3054  -15.1937   27.4483 C.3     1  UNL1        0.0001
     24 C          -8.6848  -15.1996   25.9970 C.3     1  UNL1        0.0017
@<TRIPOS>BOND
     1     1     2    2
     2     2     4    1
     3     4     5   ar
     4     5     6   ar
     5     6     7   ar
     6     7     8   ar
     7     8     9   ar
     8     9    10    1
     9    10    11    1
    10    10    12    1
    11    10    13    1
    12     2     3   am
    13     3    20    1
    14    20    21    1
    15    21    22    1
    16    22    23    1
    17    23    24    1
    18    14     3    1
    19    14    15    1
    20    15    16    1
    21    16    17    1
    22    17    18    1
    23     9     4   ar
    24    24    21    1
    25    18    14    1
    26    17    19    1
@<TRIPOS>MOLECULE
*****
 24 26 0 0 0
SMALL
GASTEIGER

@<TRIPOS>ATOM
      1 O          -7.2566  -15.5405   22.5948 O.2     1  UNL1       -0.2699
      2 C          -8.0755  -16.7804   22.3899 C.2     1  UNL1        0.2490
      3 N          -7.4043  -18.1202   22.3243 N.am    1  UNL1       -0.2763
      4 C          -9.5657  -16.6805   22.2505 C.ar    1  UNL1        0.0575
      5 C         -10.1697  -16.2472   20.9476 C.ar    1  UNL1        0.0045
      6 C         -11.6599  -16.1473   20.8082 C.ar    1  UNL1        0.0001
      7 C         -12.5460  -16.4806   21.9716 C.ar    1  UNL1       -0.0001
      8 C         -11.9420  -16.9139   23.2745 C.ar    1  UNL1        0.0040
      9 C         -10.4518  -17.0139   23.4139 C.ar    1  UNL1        0.0758
     10 C          -9.8478  -17.4472   24.7167 C.3     1  UNL1        0.4187
     11 F          -9.2438  -17.8805   26.0196 F       1  UNL1       -0.1659
     12 F          -9.3839  -16.0431   24.9686 F       1  UNL1       -0.1659
     13 F         -10.3117  -18.8512   24.4649 F       1  UNL1       -0.1659
     14 C          -5.9141  -18.2202   22.4637 C.3     1  UNL1        0.0927
     15 C          -5.0173  -19.1484   21.6994 C.3     1  UNL1        0.0383
     16 C          -3.6081  -18.9113   22.1552 C.3     1  UNL1        0.0704
     17 N          -3.6338  -17.8364   23.2012 N.3     1  UNL1       -0.2960
     18 C          -5.0591  -17.4093   23.3919 C.3     1  UNL1        0.0887
     19 H          -3.0723  -17.0419   22.8950 H       1  UNL1        0.1233
     20 C          -8.2232  -19.3601   22.1194 C.3     1  UNL1        0.0936
     21 C          -9.0261  -19.5296   20.8637 C.3     1  UNL1        0.0199
     22 C         -10.4709  -19.7892   20.5555 C.3     1  UNL1        0.0017
     23 C         -10.1615  -19.7693   19.0879 C.3     1  UNL1        0.0001
     24 C          -8.7166  -19.5097   19.3961 C.3     1  UNL1        0.0017
@<TRIPOS>BOND
     1     1     2    2
     2     2     4    1
     3     4     5   ar
     4     5     6   ar
     5     6     7   ar
     6     7     8   ar
     7     8     9   ar
     8     9    10    1
     9    10    11    1
    10    10    12    1
    11    10    13    1
    12     2     3   am
    13     3    20    1
    14    20    21    1
    15    21    22    1
    16    22    23    1
    17    23    24    1
    18    14     3    1
    19    14    15    1
    20    15    16    1
    21    16    17    1
    22    17    18    1
    23     9     4   ar
    24    24    21    1
    25    18    14    1
    26    17    19    1
@<TRIPOS>MOLECULE
*****
 24 26 0 0 0
SMALL
GASTEIGER

@<TRIPOS>ATOM
      1 O         -13.3269   -7.3315   16.1103 O.2     1  UNL1       -0.2699
      2 C         -12.8572   -6.4787   17.2515 C.2     1  UNL1        0.2490
      3 N         -13.4971   -6.6136   18.6014 N.am    1  UNL1       -0.2763
      4 C         -11.7477   -5.4911   17.0427 C.ar    1  UNL1        0.0575
      5 C         -12.0389   -4.1554   16.4252 C.ar    1  UNL1        0.0045
      6 C         -10.9294   -3.1678   16.2163 C.ar    1  UNL1        0.0001
      7 C          -9.5288   -3.5158   16.6250 C.ar    1  UNL1       -0.0001
      8 C          -9.2376   -4.8514   17.2425 C.ar    1  UNL1        0.0040
      9 C         -10.3470   -5.8391   17.4513 C.ar    1  UNL1        0.0758
     10 C         -10.0558   -7.1747   18.0688 C.3     1  UNL1        0.4187
     11 F          -9.7647   -8.5103   18.6863 F       1  UNL1       -0.1659
     12 F         -10.3307   -7.8425   16.7540 F       1  UNL1       -0.1659
     13 F          -9.7810   -6.5069   19.3836 F       1  UNL1       -0.1659
     14 C         -14.6066   -7.6012   18.8103 C.3     1  UNL1        0.0927
     15 C         -15.9622   -7.2978   19.3761 C.3     1  UNL1        0.0383
     16 C         -16.7487   -8.5747   19.4055 C.3     1  UNL1        0.0704
     17 N         -15.8791   -9.6674   18.8578 N.3     1  UNL1       -0.2960
     18 C         -14.5552   -9.0657   18.4899 C.3     1  UNL1        0.0887
     19 H         -16.3155  -10.0756   18.0311 H       1  UNL1        0.1233
     20 C         -13.0274   -5.7608   19.7426 C.3     1  UNL1        0.0936
     21 C         -13.5996   -4.3881   19.9381 C.3     1  UNL1        0.0199
     22 C         -13.0617   -2.9912   19.8424 C.3     1  UNL1        0.0017
     23 C         -14.4090   -2.4468   20.2147 C.3     1  UNL1        0.0001
     24 C         -14.9469   -3.8437   20.3104 C.3     1  UNL1        0.0017
@<TRIPOS>BOND
     1     1     2    2
     2     2     4    1
     3     4     5   ar
     4     5     6   ar
     5     6     7   ar
     6     7     8   ar
     7     8     9   ar
     8     9    10    1
     9    10    11    1
    10    10    12    1
    11    10    13    1
    12     2     3   am
    13     3    20    1
    14    20    21    1
    15    21    22    1
    16    22    23    1
    17    23    24    1
    18    14     3    1
    19    14    15    1
    20    15    16    1
    21    16    17    1
    22    17    18    1
    23     9     4   ar
    24    24    21    1
    25    18    14    1
    26    17    19    1
@<TRIPOS>MOLECULE
*****
 24 26 0 0 0
SMALL
GASTEIGER

@<TRIPOS>ATOM
      1 O         -13.9439   -6.4940   19.3752 O.2     1  UNL1       -0.2699
      2 C         -13.7107   -5.4691   18.3051 C.2     1  UNL1        0.2490
      3 N         -12.4092   -5.4457   17.5599 N.am    1  UNL1       -0.2763
      4 C         -14.7791   -4.4675   17.9803 C.ar    1  UNL1        0.0575
      5 C         -15.5665   -4.5961   16.7101 C.ar    1  UNL1        0.0045
      6 C         -16.6348   -3.5946   16.3853 C.ar    1  UNL1        0.0001
      7 C         -16.9157   -2.4644   17.3306 C.ar    1  UNL1       -0.0001
      8 C         -16.1282   -2.3357   18.6008 C.ar    1  UNL1        0.0040
      9 C         -15.0599   -3.3373   18.9256 C.ar    1  UNL1        0.0758
     10 C         -14.2724   -3.2086   20.1958 C.3     1  UNL1        0.4187
     11 F         -13.4850   -3.0799   21.4660 F       1  UNL1       -0.1659
     12 F         -15.2316   -4.1339   20.8842 F       1  UNL1       -0.1659
     13 F         -13.3133   -2.2833   19.5074 F       1  UNL1       -0.1659
     14 C         -11.3408   -6.4474   17.8847 C.3     1  UNL1        0.0927
     15 C         -10.2608   -6.2825   18.9124 C.3     1  UNL1        0.0383
     16 C          -9.4174   -7.5229   18.9017 C.3     1  UNL1        0.0704
     17 N          -9.9763   -8.4545   17.8672 N.3     1  UNL1       -0.2960
     18 C         -11.1651   -7.7897   17.2387 C.3     1  UNL1        0.0887
     19 H         -10.2614   -9.3294   18.3072 H       1  UNL1        0.1233
     20 C         -12.1759   -4.4208   16.4898 C.3     1  UNL1        0.0936
     21 C         -11.6448   -3.0656   16.8523 C.3     1  UNL1        0.0199
     22 C         -11.9980   -1.6549   16.4849 C.3     1  UNL1        0.0017
     23 C         -10.8936   -1.1491   17.3650 C.3     1  UNL1        0.0001
     24 C         -10.5404   -2.5599   17.7324 C.3     1  UNL1        0.0017
@<TRIPOS>BOND
     1     1     2    2
     2     2     4    1
     3     4     5   ar
     4     5     6   ar
     5     6     7   ar
     6     7     8   ar
     7     8     9   ar
     8     9    10    1
     9    10    11    1
    10    10    12    1
    11    10    13    1
    12     2     3   am
    13     3    20    1
    14    20    21    1
    15    21    22    1
    16    22    23    1
    17    23    24    1
    18    14     3    1
    19    14    15    1
    20    15    16    1
    21    16    17    1
    22    17    18    1
    23     9     4   ar
    24    24    21    1
    25    18    14    1
    26    17    19    1
@<TRIPOS>MOLECULE
*****
 24 26 0 0 0
SMALL
GASTEIGER

@<TRIPOS>ATOM
      1 O           3.7258   -3.3225   19.0616 O.2     1  UNL1       -0.2699
      2 C           3.7852   -2.0248   19.8116 C.2     1  UNL1        0.2490
      3 N           4.8644   -1.7946   20.8276 N.am    1  UNL1       -0.2763
      4 C           2.7655   -0.9574   19.5455 C.ar    1  UNL1        0.0575
      5 C           1.5266   -0.8771   20.3873 C.ar    1  UNL1        0.0045
      6 C           0.5069    0.1902   20.1213 C.ar    1  UNL1        0.0001
      7 C           0.7260    1.1774   19.0134 C.ar    1  UNL1       -0.0001
      8 C           1.9649    1.0971   18.1716 C.ar    1  UNL1        0.0040
      9 C           2.9847    0.0298   18.4376 C.ar    1  UNL1        0.0758
     10 C           4.2235   -0.0504   17.5958 C.3     1  UNL1        0.4187
     11 F           5.4624   -0.1307   16.7539 F       1  UNL1       -0.1659
     12 F           4.9449    0.8292   18.5735 F       1  UNL1       -0.1659
     13 F           3.5022   -0.9301   16.6180 F       1  UNL1       -0.1659
     14 C           5.8841   -2.8620   21.0937 C.3     1  UNL1        0.0927
     15 C           7.0628   -3.1912   20.2264 C.3     1  UNL1        0.0383
     16 C           7.8113   -4.3203   20.8705 C.3     1  UNL1        0.0704
     17 N           7.0953   -4.6889   22.1360 N.3     1  UNL1       -0.2960
     18 C           5.9041   -3.7876   22.2740 C.3     1  UNL1        0.0887
     19 H           7.7176   -4.5648   22.9346 H       1  UNL1        0.1233
     20 C           4.9238   -0.4969   21.5776 C.3     1  UNL1        0.0936
     21 C           4.0138   -0.2642   22.7472 C.3     1  UNL1        0.0199
     22 C           3.5572   -1.0863   23.9157 C.3     1  UNL1        0.0017
     23 C           2.7269    0.0648   24.4012 C.3     1  UNL1        0.0001
     24 C           3.1836    0.8869   23.2326 C.3     1  UNL1        0.0017
@<TRIPOS>BOND
     1     1     2    2
     2     2     4    1
     3     4     5   ar
     4     5     6   ar
     5     6     7   ar
     6     7     8   ar
     7     8     9   ar
     8     9    10    1
     9    10    11    1
    10    10    12    1
    11    10    13    1
    12     2     3   am
    13     3    20    1
    14    20    21    1
    15    21    22    1
    16    22    23    1
    17    23    24    1
    18    14     3    1
    19    14    15    1
    20    15    16    1
    21    16    17    1
    22    17    18    1
    23     9     4   ar
    24    24    21    1
    25    18    14    1
    26    17    19    1
@<TRIPOS>MOLECULE
*****
 24 26 0 0 0
SMALL
GASTEIGER

@<TRIPOS>ATOM
      1 O         -13.7071   -5.3600   20.8307 O.2     1  UNL1       -0.2699
      2 C         -13.7578   -4.4524   19.6376 C.2     1  UNL1        0.2490
      3 N         -12.7299   -4.5816   18.5528 N.am    1  UNL1       -0.2763
      4 C         -14.8364   -3.4156   19.5291 C.ar    1  UNL1        0.0575
      5 C         -14.5788   -2.0137   19.9964 C.ar    1  UNL1        0.0045
      6 C         -15.6574   -0.9769   19.8880 C.ar    1  UNL1        0.0001
      7 C         -16.9935   -1.3421   19.3124 C.ar    1  UNL1       -0.0001
      8 C         -17.2511   -2.7440   18.8452 C.ar    1  UNL1        0.0040
      9 C         -16.1726   -3.7807   18.9535 C.ar    1  UNL1        0.0758
     10 C         -16.4302   -5.1827   18.4863 C.3     1  UNL1        0.4187
     11 F         -16.6878   -6.5846   18.0191 F       1  UNL1       -0.1659
     12 F         -15.9645   -4.8096   17.1101 F       1  UNL1       -0.1659
     13 F         -16.8958   -5.5557   19.8625 F       1  UNL1       -0.1659
     14 C         -11.6513   -5.6184   18.6612 C.3     1  UNL1        0.0927
     15 C         -10.2238   -5.3685   19.0483 C.3     1  UNL1        0.0383
     16 C          -9.5011   -6.6827   19.0279 C.3     1  UNL1        0.0704
     17 N         -10.4820   -7.7449   18.6282 N.3     1  UNL1       -0.2960
     18 C         -11.8109   -7.0871   18.4016 C.3     1  UNL1        0.0887
     19 H         -10.5617   -8.4396   19.3709 H       1  UNL1        0.1233
     20 C         -12.7806   -3.6740   17.3596 C.3     1  UNL1        0.0936
     21 C         -11.9415   -2.4310   17.3266 C.3     1  UNL1        0.0199
     22 C         -11.2265   -1.6064   18.3555 C.3     1  UNL1        0.0017
     23 C         -10.7548   -0.6732   17.2799 C.3     1  UNL1        0.0001
     24 C         -11.4699   -1.4979   16.2510 C.3     1  UNL1        0.0017
@<TRIPOS>BOND
     1     1     2    2
     2     2     4    1
     3     4     5   ar
     4     5     6   ar
     5     6     7   ar
     6     7     8   ar
     7     8     9   ar
     8     9    10    1
     9    10    11    1
    10    10    12    1
    11    10    13    1
    12     2     3   am
    13     3    20    1
    14    20    21    1
    15    21    22    1
    16    22    23    1
    17    23    24    1
    18    14     3    1
    19    14    15    1
    20    15    16    1
    21    16    17    1
    22    17    18    1
    23     9     4   ar
    24    24    21    1
    25    18    14    1
    26    17    19    1
