@<TRIPOS>MOLECULE
*****
 30 33 0 0 0
SMALL
GASTEIGER

@<TRIPOS>ATOM
      1 N          -5.9585  -18.1786   22.2701 N.ar    1  UNL1       -0.3028
      2 C          -7.0699  -19.1762   22.1301 C.ar    1  UNL1        0.0834
      3 C          -8.1881  -18.7546   23.0366 C.ar    1  UNL1        0.0601
      4 C          -7.7679  -17.4963   23.7368 C.ar    1  UNL1        0.0481
      5 C          -8.4619  -16.6288   24.7446 C.ar    1  UNL1        0.1416
      6 F          -9.8399  -16.9848   25.2184 F       1  UNL1       -0.2041
      7 C          -7.7780  -15.4053   25.2786 C.ar    1  UNL1        0.0297
      8 C          -6.4000  -15.0493   24.8048 C.ar    1  UNL1        0.0038
      9 C          -5.7060  -15.9168   23.7971 C.ar    1  UNL1        0.0177
     10 C          -6.3899  -17.1403   23.2631 C.ar    1  UNL1        0.0664
     11 C          -2.0215  -18.2820   20.0930 C.ar    1  UNL1        0.0163
     12 C          -2.0674  -17.8976   21.5422 C.ar    1  UNL1        0.0028
     13 C          -3.3797  -17.8631   22.2678 C.ar    1  UNL1        0.0198
     14 C          -4.6462  -18.2130   21.5444 C.ar    1  UNL1        0.0916
     15 C          -4.6004  -18.5975   20.0952 C.ar    1  UNL1        0.1561
     16 F          -5.8669  -18.9475   19.3717 F       1  UNL1       -0.2026
     17 C          -3.2880  -18.6320   19.3695 C.ar    1  UNL1        0.0323
     18 O           0.5168  -18.8348   20.0590 O.co2   1  UNL1       -0.5446
     19 C          -0.7092  -18.3165   19.3674 C.2     1  UNL1        0.0729
     20 O          -0.6228  -17.8327   17.9502 O.co2   1  UNL1       -0.5446
     21 C          -9.4969  -19.4662   23.2121 C.2     1  UNL1        0.1987
     22 O          -9.5379  -20.8053   23.8866 O.2     1  UNL1       -0.2865
     23 C         -10.7647  -18.8386   22.7132 C.ar    1  UNL1        0.0601
     24 C         -10.8965  -18.4618   21.2673 C.ar    1  UNL1        0.0615
     25 CL         -9.7605  -18.7127   20.3203 Cl      1  UNL1       -0.0821
     26 C         -12.1642  -17.8343   20.7682 C.ar    1  UNL1        0.0115
     27 C         -13.3001  -17.5835   21.7152 C.ar    1  UNL1        0.0017
     28 C         -13.1683  -17.9602   23.1611 C.ar    1  UNL1        0.0115
     29 C         -11.9006  -18.5878   23.6601 C.ar    1  UNL1        0.0615
     30 CL        -11.7688  -18.9645   25.1060 Cl      1  UNL1       -0.0821
@<TRIPOS>UNITY_ATOM_ATTR
18 1
charge -1
@<TRIPOS>BOND
     1    18    19   ar
     2    19    20   ar
     3    19    11    1
     4    11    12   ar
     5    12    13   ar
     6    13    14   ar
     7    14     1    1
     8     1     2   ar
     9     2     3   ar
    10     3    21    1
    11    21    22    2
    12    21    23    1
    13    23    24   ar
    14    24    25    1
    15    24    26   ar
    16    26    27   ar
    17    27    28   ar
    18    28    29   ar
    19    29    30    1
    20     3     4   ar
    21     4     5   ar
    22     5     6    1
    23     5     7   ar
    24     7     8   ar
    25     8     9   ar
    26     9    10   ar
    27    14    15   ar
    28    15    16    1
    29    15    17   ar
    30    17    11   ar
    31    10     1   ar
    32    29    23   ar
    33    10     4   ar
@<TRIPOS>MOLECULE
*****
 30 33 0 0 0
SMALL
GASTEIGER

@<TRIPOS>ATOM
      1 N          -5.6567  -16.8166   23.1141 N.ar    1  UNL1       -0.3028
      2 C          -7.0258  -17.0903   22.5658 C.ar    1  UNL1        0.0834
      3 C          -8.0311  -16.6530   23.5896 C.ar    1  UNL1        0.0601
      4 C          -7.2833  -16.1090   24.7706 C.ar    1  UNL1        0.0481
      5 C          -7.7490  -15.5347   26.0757 C.ar    1  UNL1        0.1416
      6 F          -9.2165  -15.4336   26.3695 F       1  UNL1       -0.2041
      7 C          -6.7473  -15.0615   27.0869 C.ar    1  UNL1        0.0297
      8 C          -5.2799  -15.1626   26.7931 C.ar    1  UNL1        0.0038
      9 C          -4.8141  -15.7369   25.4880 C.ar    1  UNL1        0.0177
     10 C          -5.8158  -16.2101   24.4768 C.ar    1  UNL1        0.0664
     11 C          -1.7566  -17.6658   21.0360 C.ar    1  UNL1        0.0163
     12 C          -2.0394  -16.2922   21.5680 C.ar    1  UNL1        0.0028
     13 C          -3.3395  -16.0091   22.2607 C.ar    1  UNL1        0.0198
     14 C          -4.3567  -17.0996   22.4214 C.ar    1  UNL1        0.0916
     15 C          -4.0739  -18.4734   21.8894 C.ar    1  UNL1        0.1561
     16 F          -5.0911  -19.5640   22.0501 F       1  UNL1       -0.2026
     17 C          -2.7738  -18.7564   21.1967 C.ar    1  UNL1        0.0323
     18 O           0.5706  -16.8647   20.2043 O.co2   1  UNL1       -0.5446
     19 C          -0.4566  -17.9489   20.3433 C.2     1  UNL1        0.0729
     20 O          -0.1839  -19.3160   19.7897 O.co2   1  UNL1       -0.5446
     21 C          -9.5223  -16.7438   23.4558 C.2     1  UNL1        0.1987
     22 O         -10.3875  -15.6103   23.9212 O.2     1  UNL1       -0.2865
     23 C         -10.1485  -17.9681   22.8566 C.ar    1  UNL1        0.0601
     24 C         -10.2847  -19.2178   23.6749 C.ar    1  UNL1        0.0615
     25 CL         -9.7948  -19.2432   25.0924 Cl      1  UNL1       -0.0821
     26 C         -10.9108  -20.4421   23.0758 C.ar    1  UNL1        0.0115
     27 C         -11.4008  -20.4167   21.6582 C.ar    1  UNL1        0.0017
     28 C         -11.2646  -19.1670   20.8399 C.ar    1  UNL1        0.0115
     29 C         -10.6384  -17.9427   21.4390 C.ar    1  UNL1        0.0615
     30 CL        -10.5022  -16.6930   20.6207 Cl      1  UNL1       -0.0821
@<TRIPOS>UNITY_ATOM_ATTR
18 1
charge -1
@<TRIPOS>BOND
     1    18    19   ar
     2    19    20   ar
     3    19    11    1
     4    11    12   ar
     5    12    13   ar
     6    13    14   ar
     7    14     1    1
     8     1     2   ar
     9     2     3   ar
    10     3    21    1
    11    21    22    2
    12    21    23    1
    13    23    24   ar
    14    24    25    1
    15    24    26   ar
    16    26    27   ar
    17    27    28   ar
    18    28    29   ar
    19    29    30    1
    20     3     4   ar
    21     4     5   ar
    22     5     6    1
    23     5     7   ar
    24     7     8   ar
    25     8     9   ar
    26     9    10   ar
    27    14    15   ar
    28    15    16    1
    29    15    17   ar
    30    17    11   ar
    31    10     1   ar
    32    29    23   ar
    33    10     4   ar
@<TRIPOS>MOLECULE
*****
 30 33 0 0 0
SMALL
GASTEIGER

@<TRIPOS>ATOM
      1 N          -6.2412  -18.6839   21.4238 N.ar    1  UNL1       -0.3028
      2 C          -6.8835  -18.3213   22.7300 C.ar    1  UNL1        0.0834
      3 C          -8.3465  -18.6368   22.6304 C.ar    1  UNL1        0.0601
      4 C          -8.6085  -19.1945   21.2627 C.ar    1  UNL1        0.0481
      5 C          -9.8637  -19.6795   20.6001 C.ar    1  UNL1        0.1416
      6 F         -11.1649  -19.6504   21.3458 F       1  UNL1       -0.2041
      7 C          -9.8177  -20.1936   19.1917 C.ar    1  UNL1        0.0297
      8 C          -8.5165  -20.2227   18.4460 C.ar    1  UNL1        0.0038
      9 C          -7.2613  -19.7377   19.1087 C.ar    1  UNL1        0.0177
     10 C          -7.3073  -19.2236   20.5170 C.ar    1  UNL1        0.0664
     11 C          -1.8814  -18.2322   20.4048 C.ar    1  UNL1        0.0163
     12 C          -2.8711  -18.5746   19.3309 C.ar    1  UNL1        0.0028
     13 C          -4.3243  -18.7252   19.6706 C.ar    1  UNL1        0.0198
     14 C          -4.7879  -18.5334   21.0841 C.ar    1  UNL1        0.0916
     15 C          -3.7982  -18.1909   22.1581 C.ar    1  UNL1        0.1561
     16 F          -4.2618  -17.9991   23.5717 F       1  UNL1       -0.2026
     17 C          -2.3450  -18.0404   21.8184 C.ar    1  UNL1        0.0323
     18 O           0.3749  -19.2812   19.6574 O.co2   1  UNL1       -0.5446
     19 C          -0.4281  -18.0817   20.0650 C.2     1  UNL1        0.0729
     20 O           0.2220  -16.7316   20.1329 O.co2   1  UNL1       -0.5446
     21 C          -9.3683  -18.4309   23.7091 C.2     1  UNL1        0.1987
     22 O          -9.0859  -18.8931   25.1078 O.2     1  UNL1       -0.2865
     23 C         -10.6726  -17.7626   23.3890 C.ar    1  UNL1        0.0601
     24 C         -10.6881  -16.4878   22.5987 C.ar    1  UNL1        0.0615
     25 CL         -9.3992  -15.8812   22.1285 Cl      1  UNL1       -0.0821
     26 C         -11.9922  -15.8195   22.2786 C.ar    1  UNL1        0.0115
     27 C         -13.2810  -16.4261   22.7488 C.ar    1  UNL1        0.0017
     28 C         -13.2655  -17.7010   23.5391 C.ar    1  UNL1        0.0115
     29 C         -11.9614  -18.3692   23.8592 C.ar    1  UNL1        0.0615
     30 CL        -11.9459  -19.6441   24.6495 Cl      1  UNL1       -0.0821
@<TRIPOS>UNITY_ATOM_ATTR
18 1
charge -1
@<TRIPOS>BOND
     1    18    19   ar
     2    19    20   ar
     3    19    11    1
     4    11    12   ar
     5    12    13   ar
     6    13    14   ar
     7    14     1    1
     8     1     2   ar
     9     2     3   ar
    10     3    21    1
    11    21    22    2
    12    21    23    1
    13    23    24   ar
    14    24    25    1
    15    24    26   ar
    16    26    27   ar
    17    27    28   ar
    18    28    29   ar
    19    29    30    1
    20     3     4   ar
    21     4     5   ar
    22     5     6    1
    23     5     7   ar
    24     7     8   ar
    25     8     9   ar
    26     9    10   ar
    27    14    15   ar
    28    15    16    1
    29    15    17   ar
    30    17    11   ar
    31    10     1   ar
    32    29    23   ar
    33    10     4   ar
@<TRIPOS>MOLECULE
*****
 30 33 0 0 0
SMALL
GASTEIGER

@<TRIPOS>ATOM
      1 N         -13.9221   -5.8064   18.2722 N.ar    1  UNL1       -0.3028
      2 C         -14.4724   -4.4506   17.9423 C.ar    1  UNL1        0.0834
      3 C         -13.3390   -3.4688   17.9796 C.ar    1  UNL1        0.0601
      4 C         -12.0883   -4.2178   18.3326 C.ar    1  UNL1        0.0481
      5 C         -10.6678   -3.7709   18.5127 C.ar    1  UNL1        0.1416
      6 F         -10.3074   -2.3261   18.3320 F       1  UNL1       -0.2041
      7 C          -9.6077   -4.7689   18.8737 C.ar    1  UNL1        0.0297
      8 C          -9.9681   -6.2137   19.0545 C.ar    1  UNL1        0.0038
      9 C         -11.3886   -6.6605   18.8743 C.ar    1  UNL1        0.0177
     10 C         -12.4487   -5.6626   18.5134 C.ar    1  UNL1        0.0664
     11 C         -16.2781   -9.6338   18.4983 C.ar    1  UNL1        0.0163
     12 C         -16.5884   -8.5055   19.4367 C.ar    1  UNL1        0.0028
     13 C         -15.8030   -7.2298   19.3613 C.ar    1  UNL1        0.0198
     14 C         -14.7075   -7.0822   18.3476 C.ar    1  UNL1        0.0916
     15 C         -14.3971   -8.2106   17.4091 C.ar    1  UNL1        0.1561
     16 F         -13.3015   -8.0631   16.3952 F       1  UNL1       -0.2026
     17 C         -15.1824   -9.4863   17.4845 C.ar    1  UNL1        0.0323
     18 O         -16.3862  -12.1839   18.9829 O.co2   1  UNL1       -0.5446
     19 C         -17.0634  -10.9096   18.5737 C.2     1  UNL1        0.0729
     20 O         -18.5258  -10.9110   18.2400 O.co2   1  UNL1       -0.5446
     21 C         -13.4388   -1.9963   17.7112 C.2     1  UNL1        0.1987
     22 O         -12.4042   -1.3166   16.8642 O.2     1  UNL1       -0.2865
     23 C         -14.5733   -1.2037   18.2897 C.ar    1  UNL1        0.0601
     24 C         -14.9470   -1.3723   19.7326 C.ar    1  UNL1        0.0615
     25 CL        -14.1861   -2.3336   20.5969 Cl      1  UNL1       -0.0821
     26 C         -16.0814   -0.5797   20.3112 C.ar    1  UNL1        0.0115
     27 C         -16.8422    0.3816   19.4468 C.ar    1  UNL1        0.0017
     28 C         -16.4685    0.5502   18.0039 C.ar    1  UNL1        0.0115
     29 C         -15.3341   -0.2424   17.4253 C.ar    1  UNL1        0.0615
     30 CL        -14.9604   -0.0738   15.9824 Cl      1  UNL1       -0.0821
@<TRIPOS>UNITY_ATOM_ATTR
18 1
charge -1
@<TRIPOS>BOND
     1    18    19   ar
     2    19    20   ar
     3    19    11    1
     4    11    12   ar
     5    12    13   ar
     6    13    14   ar
     7    14     1    1
     8     1     2   ar
     9     2     3   ar
    10     3    21    1
    11    21    22    2
    12    21    23    1
    13    23    24   ar
    14    24    25    1
    15    24    26   ar
    16    26    27   ar
    17    27    28   ar
    18    28    29   ar
    19    29    30    1
    20     3     4   ar
    21     4     5   ar
    22     5     6    1
    23     5     7   ar
    24     7     8   ar
    25     8     9   ar
    26     9    10   ar
    27    14    15   ar
    28    15    16    1
    29    15    17   ar
    30    17    11   ar
    31    10     1   ar
    32    29    23   ar
    33    10     4   ar
@<TRIPOS>MOLECULE
*****
 30 33 0 0 0
SMALL
GASTEIGER

@<TRIPOS>ATOM
      1 N           6.9501   -4.3916   23.7794 N.ar    1  UNL1       -0.3028
      2 C           6.4648   -3.7894   25.0646 C.ar    1  UNL1        0.0834
      3 C           7.0042   -4.6139   26.1956 C.ar    1  UNL1        0.0601
      4 C           7.8229   -5.7257   25.6094 C.ar    1  UNL1        0.0481
      5 C           8.5945   -6.8454   26.2424 C.ar    1  UNL1        0.1416
      6 F           8.6279   -6.9828   27.7357 F       1  UNL1       -0.2041
      7 C           9.3326   -7.8278   25.3821 C.ar    1  UNL1        0.0297
      8 C           9.2992   -7.6904   23.8888 C.ar    1  UNL1        0.0038
      9 C           8.5276   -6.5706   23.2558 C.ar    1  UNL1        0.0177
     10 C           7.7894   -5.5883   24.1160 C.ar    1  UNL1        0.0664
     11 C           6.0467   -2.8745   19.6402 C.ar    1  UNL1        0.0163
     12 C           4.9296   -3.3239   20.5347 C.ar    1  UNL1        0.0028
     13 C           5.2308   -3.8296   21.9144 C.ar    1  UNL1        0.0198
     14 C           6.6489   -3.8859   22.3997 C.ar    1  UNL1        0.0916
     15 C           7.7661   -3.4365   21.5051 C.ar    1  UNL1        0.1561
     16 F           9.1843   -3.4927   21.9903 F       1  UNL1       -0.2026
     17 C           7.4649   -2.9308   20.1254 C.ar    1  UNL1        0.0323
     18 O           4.3408   -1.9974   17.8879 O.co2   1  UNL1       -0.5446
     19 C           5.7455   -2.3688   18.2605 C.2     1  UNL1        0.0729
     20 O           6.8491   -2.2345   17.2534 O.co2   1  UNL1       -0.5446
     21 C           6.7667   -4.3696   27.6563 C.2     1  UNL1        0.1987
     22 O           6.0697   -5.4062   28.4866 O.2     1  UNL1       -0.2865
     23 C           7.2261   -3.0883   28.2869 C.ar    1  UNL1        0.0601
     24 C           6.3011   -1.9092   28.3495 C.ar    1  UNL1        0.0615
     25 CL          4.9165   -2.0113   27.7814 Cl      1  UNL1       -0.0821
     26 C           6.7604   -0.6281   28.9800 C.ar    1  UNL1        0.0115
     27 C           8.1450   -0.5261   29.5480 C.ar    1  UNL1        0.0017
     28 C           9.0701   -1.7052   29.4854 C.ar    1  UNL1        0.0115
     29 C           8.6107   -2.9863   28.8549 C.ar    1  UNL1        0.0615
     30 CL          9.5358   -4.1654   28.7924 Cl      1  UNL1       -0.0821
@<TRIPOS>UNITY_ATOM_ATTR
18 1
charge -1
@<TRIPOS>BOND
     1    18    19   ar
     2    19    20   ar
     3    19    11    1
     4    11    12   ar
     5    12    13   ar
     6    13    14   ar
     7    14     1    1
     8     1     2   ar
     9     2     3   ar
    10     3    21    1
    11    21    22    2
    12    21    23    1
    13    23    24   ar
    14    24    25    1
    15    24    26   ar
    16    26    27   ar
    17    27    28   ar
    18    28    29   ar
    19    29    30    1
    20     3     4   ar
    21     4     5   ar
    22     5     6    1
    23     5     7   ar
    24     7     8   ar
    25     8     9   ar
    26     9    10   ar
    27    14    15   ar
    28    15    16    1
    29    15    17   ar
    30    17    11   ar
    31    10     1   ar
    32    29    23   ar
    33    10     4   ar
@<TRIPOS>MOLECULE
*****
 30 33 0 0 0
SMALL
GASTEIGER

@<TRIPOS>ATOM
      1 N           0.7645    1.6062   20.7112 N.ar    1  UNL1       -0.3028
      2 C          -0.0966    2.5874   19.9724 C.ar    1  UNL1        0.0834
      3 C          -0.9086    3.3435   20.9819 C.ar    1  UNL1        0.0601
      4 C          -0.5493    2.8297   22.3446 C.ar    1  UNL1        0.0481
      5 C          -1.0301    3.2008   23.7161 C.ar    1  UNL1        0.1416
      6 F          -2.0641    4.2745   23.8833 F       1  UNL1       -0.2041
      7 C          -0.4768    2.4982   24.9203 C.ar    1  UNL1        0.0297
      8 C           0.5572    1.4245   24.7531 C.ar    1  UNL1        0.0038
      9 C           1.0380    1.0534   23.3816 C.ar    1  UNL1        0.0177
     10 C           0.4847    1.7560   22.1773 C.ar    1  UNL1        0.0664
     11 C           3.6760   -1.2798   18.8554 C.ar    1  UNL1        0.0163
     12 C           2.7935   -1.7259   19.9832 C.ar    1  UNL1        0.0028
     13 C           1.8230   -0.7639   20.6019 C.ar    1  UNL1        0.0198
     14 C           1.7349    0.6442   20.0926 C.ar    1  UNL1        0.0916
     15 C           2.6175    1.0903   18.9647 C.ar    1  UNL1        0.1561
     16 F           2.5295    2.4985   18.4554 F       1  UNL1       -0.2026
     17 C           3.5880    0.1283   18.3461 C.ar    1  UNL1        0.0323
     18 O           4.5501   -3.7066   18.5451 O.co2   1  UNL1       -0.5446
     19 C           4.6464   -2.2419   18.2367 C.2     1  UNL1        0.0729
     20 O           5.7132   -1.7391   17.3098 O.co2   1  UNL1       -0.5446
     21 C          -1.9049    4.4238   20.6814 C.2     1  UNL1        0.1987
     22 O          -1.7027    5.8046   21.2312 O.2     1  UNL1       -0.2865
     23 C          -3.1036    4.1232   19.8311 C.ar    1  UNL1        0.0601
     24 C          -4.3554    3.5888   20.4615 C.ar    1  UNL1        0.0615
     25 CL         -4.4085    3.3550   21.9422 Cl      1  UNL1       -0.0821
     26 C          -5.5540    3.2883   19.6113 C.ar    1  UNL1        0.0115
     27 C          -5.5008    3.5221   18.1306 C.ar    1  UNL1        0.0017
     28 C          -4.2490    4.0565   17.5001 C.ar    1  UNL1        0.0115
     29 C          -3.0504    4.3570   18.3504 C.ar    1  UNL1        0.0615
     30 CL         -1.7986    4.8914   17.7200 Cl      1  UNL1       -0.0821
@<TRIPOS>UNITY_ATOM_ATTR
18 1
charge -1
@<TRIPOS>BOND
     1    18    19   ar
     2    19    20   ar
     3    19    11    1
     4    11    12   ar
     5    12    13   ar
     6    13    14   ar
     7    14     1    1
     8     1     2   ar
     9     2     3   ar
    10     3    21    1
    11    21    22    2
    12    21    23    1
    13    23    24   ar
    14    24    25    1
    15    24    26   ar
    16    26    27   ar
    17    27    28   ar
    18    28    29   ar
    19    29    30    1
    20     3     4   ar
    21     4     5   ar
    22     5     6    1
    23     5     7   ar
    24     7     8   ar
    25     8     9   ar
    26     9    10   ar
    27    14    15   ar
    28    15    16    1
    29    15    17   ar
    30    17    11   ar
    31    10     1   ar
    32    29    23   ar
    33    10     4   ar
@<TRIPOS>MOLECULE
*****
 30 33 0 0 0
SMALL
GASTEIGER

@<TRIPOS>ATOM
      1 N           0.8115    1.6102   20.7610 N.ar    1  UNL1       -0.3028
      2 C          -0.0501    2.5953   20.0280 C.ar    1  UNL1        0.0834
      3 C          -0.8678    3.3398   21.0415 C.ar    1  UNL1        0.0601
      4 C          -0.5116    2.8149   22.4007 C.ar    1  UNL1        0.0481
      5 C          -0.9982    3.1722   23.7738 C.ar    1  UNL1        0.1416
      6 F          -2.0361    4.2412   23.9472 F       1  UNL1       -0.2041
      7 C          -0.4469    2.4605   24.9736 C.ar    1  UNL1        0.0297
      8 C           0.5910    1.3915   24.8003 C.ar    1  UNL1        0.0038
      9 C           1.0776    1.0342   23.4271 C.ar    1  UNL1        0.0177
     10 C           0.5263    1.7459   22.2274 C.ar    1  UNL1        0.0664
     11 C           3.7383   -1.2500   18.8893 C.ar    1  UNL1        0.0163
     12 C           2.7103   -1.7555   19.8575 C.ar    1  UNL1        0.0028
     13 C           1.7347   -0.8021   20.4814 C.ar    1  UNL1        0.0198
     14 C           1.7871    0.6568   20.1371 C.ar    1  UNL1        0.0916
     15 C           2.8152    1.1624   19.1688 C.ar    1  UNL1        0.1561
     16 F           2.8677    2.6214   18.8244 F       1  UNL1       -0.2026
     17 C           3.7908    0.2090   18.5449 C.ar    1  UNL1        0.0323
     18 O           5.7612   -1.6933   17.3204 O.co2   1  UNL1       -0.5446
     19 C           4.7139   -2.2034   18.2654 C.2     1  UNL1        0.0729
     20 O           4.6422   -3.6669   18.5865 O.co2   1  UNL1       -0.5446
     21 C          -1.8665    4.4197   20.7473 C.2     1  UNL1        0.1987
     22 O          -1.6638    5.7994   21.2997 O.2     1  UNL1       -0.2865
     23 C          -3.0679    4.1199   19.9007 C.ar    1  UNL1        0.0601
     24 C          -3.0222    4.3622   18.4211 C.ar    1  UNL1        0.0615
     25 CL         -1.7750    4.9044   17.7881 Cl      1  UNL1       -0.0821
     26 C          -4.2235    4.0623   17.5745 C.ar    1  UNL1        0.0115
     27 C          -5.4707    3.5201   18.2075 C.ar    1  UNL1        0.0017
     28 C          -5.5164    3.2778   19.6871 C.ar    1  UNL1        0.0115
     29 C          -4.3151    3.5777   20.5337 C.ar    1  UNL1        0.0615
     30 CL         -4.3608    3.3354   22.0133 Cl      1  UNL1       -0.0821
@<TRIPOS>UNITY_ATOM_ATTR
18 1
charge -1
@<TRIPOS>BOND
     1    18    19   ar
     2    19    20   ar
     3    19    11    1
     4    11    12   ar
     5    12    13   ar
     6    13    14   ar
     7    14     1    1
     8     1     2   ar
     9     2     3   ar
    10     3    21    1
    11    21    22    2
    12    21    23    1
    13    23    24   ar
    14    24    25    1
    15    24    26   ar
    16    26    27   ar
    17    27    28   ar
    18    28    29   ar
    19    29    30    1
    20     3     4   ar
    21     4     5   ar
    22     5     6    1
    23     5     7   ar
    24     7     8   ar
    25     8     9   ar
    26     9    10   ar
    27    14    15   ar
    28    15    16    1
    29    15    17   ar
    30    17    11   ar
    31    10     1   ar
    32    29    23   ar
    33    10     4   ar
@<TRIPOS>MOLECULE
*****
 30 33 0 0 0
SMALL
GASTEIGER

@<TRIPOS>ATOM
      1 N           1.2711    1.5752   22.0874 N.ar    1  UNL1       -0.3028
      2 C           1.7387    1.7086   23.5063 C.ar    1  UNL1        0.0834
      3 C           0.7428    2.5527   24.2451 C.ar    1  UNL1        0.0601
      4 C          -0.3403    2.9409   23.2827 C.ar    1  UNL1        0.0481
      5 C          -1.5817    3.7664   23.4484 C.ar    1  UNL1        0.1416
      6 F          -1.9081    4.3706   24.7820 F       1  UNL1       -0.2041
      7 C          -2.4965    3.9878   22.2805 C.ar    1  UNL1        0.0297
      8 C          -2.1700    3.3836   20.9470 C.ar    1  UNL1        0.0038
      9 C          -0.9287    2.5581   20.7813 C.ar    1  UNL1        0.0177
     10 C          -0.0138    2.3367   21.9491 C.ar    1  UNL1        0.0664
     11 C           3.3567   -0.7089   18.8187 C.ar    1  UNL1        0.0163
     12 C           2.8717   -1.4265   20.0434 C.ar    1  UNL1        0.0028
     13 C           2.1766   -0.6652   21.1329 C.ar    1  UNL1        0.0198
     14 C           1.9663    0.8138   20.9978 C.ar    1  UNL1        0.0916
     15 C           2.4512    1.5315   19.7731 C.ar    1  UNL1        0.1561
     16 F           2.2409    3.0105   19.6380 F       1  UNL1       -0.2026
     17 C           3.1464    0.7701   18.6836 C.ar    1  UNL1        0.0323
     18 O           3.8875   -1.0505   16.2986 O.co2   1  UNL1       -0.5446
     19 C           4.0518   -1.4703   17.7292 C.2     1  UNL1        0.0729
     20 O           4.9114   -2.6513   18.0704 O.co2   1  UNL1       -0.5446
     21 C           0.8170    2.9405   25.6922 C.2     1  UNL1        0.1987
     22 O           1.0713    4.3686   26.0739 O.2     1  UNL1       -0.2865
     23 C           0.6368    1.9001   26.7577 C.ar    1  UNL1        0.0601
     24 C          -0.7208    1.6581   27.3477 C.ar    1  UNL1        0.0615
     25 CL         -1.8983    2.4565   26.8723 Cl      1  UNL1       -0.0821
     26 C          -0.9010    0.6178   28.4132 C.ar    1  UNL1        0.0115
     27 C           0.2765   -0.1806   28.8886 C.ar    1  UNL1        0.0017
     28 C           1.6342    0.0614   28.2985 C.ar    1  UNL1        0.0115
     29 C           1.8144    1.1017   27.2331 C.ar    1  UNL1        0.0615
     30 CL          3.1721    1.3437   26.6430 Cl      1  UNL1       -0.0821
@<TRIPOS>UNITY_ATOM_ATTR
18 1
charge -1
@<TRIPOS>BOND
     1    18    19   ar
     2    19    20   ar
     3    19    11    1
     4    11    12   ar
     5    12    13   ar
     6    13    14   ar
     7    14     1    1
     8     1     2   ar
     9     2     3   ar
    10     3    21    1
    11    21    22    2
    12    21    23    1
    13    23    24   ar
    14    24    25    1
    15    24    26   ar
    16    26    27   ar
    17    27    28   ar
    18    28    29   ar
    19    29    30    1
    20     3     4   ar
    21     4     5   ar
    22     5     6    1
    23     5     7   ar
    24     7     8   ar
    25     8     9   ar
    26     9    10   ar
    27    14    15   ar
    28    15    16    1
    29    15    17   ar
    30    17    11   ar
    31    10     1   ar
    32    29    23   ar
    33    10     4   ar
@<TRIPOS>MOLECULE
*****
 30 33 0 0 0
SMALL
GASTEIGER

@<TRIPOS>ATOM
      1 N           1.9842    0.4408   22.4958 N.ar    1  UNL1       -0.3028
      2 C           2.2405    0.7104   23.9490 C.ar    1  UNL1        0.0834
      3 C           1.2931    1.7843   24.3952 C.ar    1  UNL1        0.0601
      4 C           0.4512    2.1783   23.2180 C.ar    1  UNL1        0.0481
      5 C          -0.6491    3.1859   23.0633 C.ar    1  UNL1        0.1416
      6 F          -1.0762    4.0163   24.2372 F       1  UNL1       -0.2041
      7 C          -1.3224    3.3632   21.7346 C.ar    1  UNL1        0.0297
      8 C          -0.8952    2.5328   20.5607 C.ar    1  UNL1        0.0038
      9 C           0.2051    1.5252   20.7154 C.ar    1  UNL1        0.0177
     10 C           0.8783    1.3480   22.0441 C.ar    1  UNL1        0.0664
     11 C           4.1521   -2.5626   19.9404 C.ar    1  UNL1        0.0163
     12 C           3.3281   -1.4866   19.2975 C.ar    1  UNL1        0.0028
     13 C           2.6054   -0.4855   20.1494 C.ar    1  UNL1        0.0198
     14 C           2.7068   -0.5603   21.6440 C.ar    1  UNL1        0.0916
     15 C           3.5308   -1.6364   22.2869 C.ar    1  UNL1        0.1561
     16 F           3.6322   -1.7112   23.7816 F       1  UNL1       -0.2026
     17 C           4.2535   -2.6375   21.4351 C.ar    1  UNL1        0.0323
     18 O           5.5037   -3.1338   17.7965 O.co2   1  UNL1       -0.5446
     19 C           4.8747   -3.5637   19.0885 C.2     1  UNL1        0.0729
     20 O           4.9682   -4.9946   19.5288 O.co2   1  UNL1       -0.5446
     21 C           1.2033    2.3626   25.7764 C.2     1  UNL1        0.1987
     22 O           1.5937    3.7905   26.0184 O.2     1  UNL1       -0.2865
     23 C           0.7231    1.5130   26.9155 C.ar    1  UNL1        0.0601
     24 C          -0.7259    1.5276   27.3032 C.ar    1  UNL1        0.0615
     25 CL         -1.6946    2.3918   26.5516 Cl      1  UNL1       -0.0821
     26 C          -1.2062    0.6780   28.4422 C.ar    1  UNL1        0.0115
     27 C          -0.2374   -0.1862   29.1937 C.ar    1  UNL1        0.0017
     28 C           1.2115   -0.2008   28.8060 C.ar    1  UNL1        0.0115
     29 C           1.6918    0.6488   27.6670 C.ar    1  UNL1        0.0615
     30 CL          3.1408    0.6342   27.2793 Cl      1  UNL1       -0.0821
@<TRIPOS>UNITY_ATOM_ATTR
18 1
charge -1
@<TRIPOS>BOND
     1    18    19   ar
     2    19    20   ar
     3    19    11    1
     4    11    12   ar
     5    12    13   ar
     6    13    14   ar
     7    14     1    1
     8     1     2   ar
     9     2     3   ar
    10     3    21    1
    11    21    22    2
    12    21    23    1
    13    23    24   ar
    14    24    25    1
    15    24    26   ar
    16    26    27   ar
    17    27    28   ar
    18    28    29   ar
    19    29    30    1
    20     3     4   ar
    21     4     5   ar
    22     5     6    1
    23     5     7   ar
    24     7     8   ar
    25     8     9   ar
    26     9    10   ar
    27    14    15   ar
    28    15    16    1
    29    15    17   ar
    30    17    11   ar
    31    10     1   ar
    32    29    23   ar
    33    10     4   ar
