@<TRIPOS>MOLECULE
*****
 22 25 0 0 0
SMALL
GASTEIGER

@<TRIPOS>ATOM
      1 C          -8.3696  -17.3436   22.7508 C.3     1  UNL1        0.1286
      2 C          -7.3449  -18.1826   22.0463 C.2     1  UNL1       -0.0136
      3 C          -7.7580  -19.0811   20.9185 C.2     1  UNL1       -0.0044
      4 C          -6.7332  -19.9201   20.2141 C.2     1  UNL1        0.0198
      5 C          -5.2955  -19.8604   20.6375 C.2     1  UNL1        0.0969
      6 N          -4.0711  -20.5660   20.1347 N.2     1  UNL1       -0.2228
      7 C          -2.9013  -20.1035   20.9518 C.2     1  UNL1        0.1986
      8 N          -3.4027  -19.1121   21.9596 N.2     1  UNL1       -0.2265
      9 C          -4.8825  -18.9618   21.7654 C.2     1  UNL1        0.0824
     10 C          -5.9072  -18.1229   22.4698 C.3     1  UNL1        0.0715
     11 CL        -12.1921  -15.8046   19.5853 Cl      1  UNL1       -0.0823
     12 C         -11.7184  -16.6322   20.7432 C.ar    1  UNL1        0.0574
     13 C         -12.6819  -17.5177   21.4761 C.ar    1  UNL1        0.0114
     14 C         -12.2081  -18.3453   22.6341 C.ar    1  UNL1        0.0006
     15 C         -10.7707  -18.2872   23.0589 C.ar    1  UNL1       -0.0021
     16 C          -9.8070  -17.4017   22.3259 C.ar    1  UNL1        0.0030
     17 C         -10.2809  -16.5741   21.1681 C.ar    1  UNL1        0.0093
     18 N          -7.9570  -16.4467   23.8799 N.ar    1  UNL1       -0.3023
     19 C          -8.4926  -16.4888   25.2804 C.ar    1  UNL1        0.0985
     20 C          -7.8028  -15.4183   26.0730 C.ar    1  UNL1        0.1193
     21 N          -6.8409  -14.7144   25.1623 N.ar    1  UNL1       -0.2223
     22 C          -6.9361  -15.3500   23.8069 C.ar    1  UNL1        0.1790
@<TRIPOS>BOND
     1    11    12    1
     2    12    13   ar
     3    13    14   ar
     4    14    15   ar
     5    15    16   ar
     6    16     1    1
     7     1     2    1
     8     2     3    2
     9     3     4    1
    10     4     5    2
    11     5     6    1
    12     6     7    2
    13     7     8    1
    14     8     9    2
    15     9    10    1
    16     1    18    1
    17    18    19   ar
    18    19    20   ar
    19    20    21   ar
    20    21    22   ar
    21    16    17   ar
    22    17    12   ar
    23    10     2    1
    24    22    18   ar
    25     9     5    1
@<TRIPOS>MOLECULE
*****
 22 25 0 0 0
SMALL
GASTEIGER

@<TRIPOS>ATOM
      1 C          -7.3787  -17.2152   23.0958 C.3     1  UNL1        0.1286
      2 C          -8.8729  -17.1470   22.9831 C.2     1  UNL1       -0.0136
      3 C          -9.5080  -16.2470   21.9650 C.2     1  UNL1       -0.0044
      4 C         -11.0022  -16.1788   21.8523 C.2     1  UNL1        0.0198
      5 C         -11.8613  -17.0107   22.7578 C.2     1  UNL1        0.0969
      6 N         -13.3498  -17.1519   22.8785 N.2     1  UNL1       -0.2228
      7 C         -13.6346  -18.1392   23.9712 C.2     1  UNL1        0.1986
      8 N         -12.3222  -18.6082   24.5258 N.2     1  UNL1       -0.2265
      9 C         -11.2262  -17.9107   23.7759 C.2     1  UNL1        0.0824
     10 C          -9.7320  -17.9789   23.8886 C.3     1  UNL1        0.0715
     11 CL         -2.9205  -19.6303   21.9595 Cl      1  UNL1       -0.0823
     12 C          -4.3782  -19.4003   21.6912 C.ar    1  UNL1        0.0574
     13 C          -5.0646  -20.1478   20.5867 C.ar    1  UNL1        0.0114
     14 C          -6.5225  -19.9177   20.3184 C.ar    1  UNL1        0.0006
     15 C          -7.2938  -18.9402   21.1548 C.ar    1  UNL1       -0.0021
     16 C          -6.6074  -18.1927   22.2594 C.ar    1  UNL1        0.0030
     17 C          -5.1496  -18.4228   22.5276 C.ar    1  UNL1        0.0093
     18 N          -6.6558  -16.3060   24.0448 N.ar    1  UNL1       -0.3023
     19 C          -7.0151  -16.0648   25.4811 C.ar    1  UNL1        0.0985
     20 C          -6.0281  -15.0880   26.0481 C.ar    1  UNL1        0.1193
     21 N          -5.0587  -14.7254   24.9623 N.ar    1  UNL1       -0.2223
     22 C          -5.4467  -15.4781   23.7242 C.ar    1  UNL1        0.1790
@<TRIPOS>BOND
     1    11    12    1
     2    12    13   ar
     3    13    14   ar
     4    14    15   ar
     5    15    16   ar
     6    16     1    1
     7     1     2    1
     8     2     3    2
     9     3     4    1
    10     4     5    2
    11     5     6    1
    12     6     7    2
    13     7     8    1
    14     8     9    2
    15     9    10    1
    16     1    18    1
    17    18    19   ar
    18    19    20   ar
    19    20    21   ar
    20    21    22   ar
    21    16    17   ar
    22    17    12   ar
    23    10     2    1
    24    22    18   ar
    25     9     5    1
@<TRIPOS>MOLECULE
*****
 22 25 0 0 0
SMALL
GASTEIGER

@<TRIPOS>ATOM
      1 C          -8.6358  -17.4923   22.8622 C.3     1  UNL1        0.1286
      2 C          -7.6254  -18.2734   22.0752 C.2     1  UNL1       -0.0136
      3 C          -8.0568  -19.0616   20.8742 C.2     1  UNL1       -0.0044
      4 C          -7.0464  -19.8427   20.0873 C.2     1  UNL1        0.0198
      5 C          -5.6048  -19.8354   20.5014 C.2     1  UNL1        0.0969
      6 N          -4.3917  -20.5039   19.9256 N.2     1  UNL1       -0.2228
      7 C          -3.2107  -20.1287   20.7707 C.2     1  UNL1        0.1986
      8 N          -3.6938  -19.2284   21.8689 N.2     1  UNL1       -0.2265
      9 C          -5.1734  -19.0471   21.7025 C.2     1  UNL1        0.0824
     10 C          -6.1838  -18.2661   22.4894 C.3     1  UNL1        0.0715
     11 CL         -5.4931  -14.6938   25.9104 Cl      1  UNL1       -0.0823
     12 C          -6.7081  -15.5570   25.7413 C.ar    1  UNL1        0.0574
     13 C          -7.5667  -15.8841   26.9268 C.ar    1  UNL1        0.0114
     14 C          -8.7817  -16.7474   26.7576 C.ar    1  UNL1        0.0006
     15 C          -9.1381  -17.2834   25.4027 C.ar    1  UNL1       -0.0021
     16 C          -8.2794  -16.9563   24.2170 C.ar    1  UNL1        0.0030
     17 C          -7.0644  -16.0931   24.3863 C.ar    1  UNL1        0.0093
     18 N         -10.0022  -17.2473   22.2943 N.ar    1  UNL1       -0.3023
     19 C         -10.3957  -16.1053   21.4048 C.ar    1  UNL1        0.0985
     20 C         -11.8519  -16.2535   21.0769 C.ar    1  UNL1        0.1193
     21 N         -12.3585  -17.4870   21.7638 N.ar    1  UNL1       -0.2223
     22 C         -11.2154  -18.1012   22.5162 C.ar    1  UNL1        0.1790
@<TRIPOS>BOND
     1    11    12    1
     2    12    13   ar
     3    13    14   ar
     4    14    15   ar
     5    15    16   ar
     6    16     1    1
     7     1     2    1
     8     2     3    2
     9     3     4    1
    10     4     5    2
    11     5     6    1
    12     6     7    2
    13     7     8    1
    14     8     9    2
    15     9    10    1
    16     1    18    1
    17    18    19   ar
    18    19    20   ar
    19    20    21   ar
    20    21    22   ar
    21    16    17   ar
    22    17    12   ar
    23    10     2    1
    24    22    18   ar
    25     9     5    1
@<TRIPOS>MOLECULE
*****
 22 25 0 0 0
SMALL
GASTEIGER

@<TRIPOS>ATOM
      1 C          -9.6256  -17.6273   22.5767 C.3     1  UNL1        0.1286
      2 C          -8.6422  -16.9336   23.4721 C.2     1  UNL1       -0.0136
      3 C          -7.3572  -16.4046   22.9075 C.2     1  UNL1       -0.0044
      4 C          -6.3738  -15.7109   23.8030 C.2     1  UNL1        0.0198
      5 C          -6.6755  -15.5462   25.2631 C.2     1  UNL1        0.0969
      6 N          -5.9041  -14.9114   26.3820 N.2     1  UNL1       -0.2228
      7 C          -6.7125  -15.0480   27.6381 C.2     1  UNL1        0.1986
      8 N          -7.9834  -15.7673   27.2955 N.2     1  UNL1       -0.2265
      9 C          -7.9606  -16.0752   25.8277 C.2     1  UNL1        0.0824
     10 C          -8.9439  -16.7689   24.9322 C.3     1  UNL1        0.0715
     11 CL         -5.8745  -20.4482   20.3470 Cl      1  UNL1       -0.0823
     12 C          -7.2611  -19.8768   20.3185 C.ar    1  UNL1        0.0574
     13 C          -8.1586  -20.1443   19.1469 C.ar    1  UNL1        0.0114
     14 C          -9.5453  -19.5728   19.1185 C.ar    1  UNL1        0.0006
     15 C         -10.0342  -18.7338   20.2617 C.ar    1  UNL1       -0.0021
     16 C          -9.1366  -18.4663   21.4334 C.ar    1  UNL1        0.0030
     17 C          -7.7501  -19.0377   21.4618 C.ar    1  UNL1        0.0093
     18 N         -11.0977  -17.4820   22.8245 N.ar    1  UNL1       -0.3023
     19 C         -11.9802  -18.4850   23.5067 C.ar    1  UNL1        0.0985
     20 C         -13.3739  -17.9311   23.5375 C.ar    1  UNL1        0.1193
     21 N         -13.3528  -16.5858   22.8743 N.ar    1  UNL1       -0.2223
     22 C         -11.9461  -16.3083   22.4336 C.ar    1  UNL1        0.1790
@<TRIPOS>BOND
     1    11    12    1
     2    12    13   ar
     3    13    14   ar
     4    14    15   ar
     5    15    16   ar
     6    16     1    1
     7     1     2    1
     8     2     3    2
     9     3     4    1
    10     4     5    2
    11     5     6    1
    12     6     7    2
    13     7     8    1
    14     8     9    2
    15     9    10    1
    16     1    18    1
    17    18    19   ar
    18    19    20   ar
    19    20    21   ar
    20    21    22   ar
    21    16    17   ar
    22    17    12   ar
    23    10     2    1
    24    22    18   ar
    25     9     5    1
@<TRIPOS>MOLECULE
*****
 22 25 0 0 0
SMALL
GASTEIGER

@<TRIPOS>ATOM
      1 C          -9.2524  -17.8207   22.1454 C.3     1  UNL1        0.1286
      2 C          -8.6266  -17.1818   23.3498 C.2     1  UNL1       -0.0136
      3 C          -9.3270  -17.2331   24.6751 C.2     1  UNL1       -0.0044
      4 C          -8.7013  -16.5941   25.8794 C.2     1  UNL1        0.0198
      5 C          -7.3751  -15.9039   25.7582 C.2     1  UNL1        0.0969
      6 N          -6.5197  -15.1899   26.7625 N.2     1  UNL1       -0.2228
      7 C          -5.2906  -14.6973   26.0577 C.2     1  UNL1        0.1986
      8 N          -5.3864  -15.1069   24.6179 N.2     1  UNL1       -0.2265
      9 C          -6.6746  -15.8526   24.4328 C.2     1  UNL1        0.0824
     10 C          -7.3004  -16.4915   23.2285 C.3     1  UNL1        0.0715
     11 CL         -8.8353  -20.8646   17.9549 Cl      1  UNL1       -0.0823
     12 C          -8.2632  -20.3302   19.2344 C.ar    1  UNL1        0.0574
     13 C          -6.9106  -20.7832   19.6980 C.ar    1  UNL1        0.0114
     14 C          -6.3384  -20.2488   20.9775 C.ar    1  UNL1        0.0006
     15 C          -7.1190  -19.2613   21.7933 C.ar    1  UNL1       -0.0021
     16 C          -8.4717  -18.8082   21.3297 C.ar    1  UNL1        0.0030
     17 C          -9.0438  -19.3426   20.0502 C.ar    1  UNL1        0.0093
     18 N         -10.6585  -17.4722   21.7570 N.ar    1  UNL1       -0.3023
     19 C         -11.8972  -18.2066   22.1772 C.ar    1  UNL1        0.0985
     20 C         -13.0773  -17.5163   21.5600 C.ar    1  UNL1        0.1193
     21 N         -12.5680  -16.3553   20.7583 N.ar    1  UNL1       -0.2223
     22 C         -11.0732  -16.3280   20.8800 C.ar    1  UNL1        0.1790
@<TRIPOS>BOND
     1    11    12    1
     2    12    13   ar
     3    13    14   ar
     4    14    15   ar
     5    15    16   ar
     6    16     1    1
     7     1     2    1
     8     2     3    2
     9     3     4    1
    10     4     5    2
    11     5     6    1
    12     6     7    2
    13     7     8    1
    14     8     9    2
    15     9    10    1
    16     1    18    1
    17    18    19   ar
    18    19    20   ar
    19    20    21   ar
    20    21    22   ar
    21    16    17   ar
    22    17    12   ar
    23    10     2    1
    24    22    18   ar
    25     9     5    1
@<TRIPOS>MOLECULE
*****
 22 25 0 0 0
SMALL
GASTEIGER

@<TRIPOS>ATOM
      1 C          -8.0248  -17.2242   22.8993 C.3     1  UNL1        0.1286
      2 C          -7.1299  -18.1111   22.0852 C.2     1  UNL1       -0.0136
      3 C          -7.6894  -18.8784   20.9242 C.2     1  UNL1       -0.0044
      4 C          -6.7945  -19.7653   20.1101 C.2     1  UNL1        0.0198
      5 C          -5.3401  -19.8848   20.4571 C.2     1  UNL1        0.0969
      6 N          -4.2230  -20.6745   19.8419 N.2     1  UNL1       -0.2228
      7 C          -2.9731  -20.3951   20.6227 C.2     1  UNL1        0.1986
      8 N          -3.3177  -19.4328   21.7206 N.2     1  UNL1       -0.2265
      9 C          -4.7806  -19.1174   21.6182 C.2     1  UNL1        0.0824
     10 C          -5.6755  -18.2305   22.4322 C.3     1  UNL1        0.0715
     11 CL         -8.5417  -15.4354   27.7504 Cl      1  UNL1       -0.0823
     12 C          -7.7279  -15.5783   26.4984 C.ar    1  UNL1        0.0574
     13 C          -6.3592  -14.9700   26.4199 C.ar    1  UNL1        0.0114
     14 C          -5.5455  -15.1129   25.1679 C.ar    1  UNL1        0.0006
     15 C          -6.1007  -15.8643   23.9944 C.ar    1  UNL1       -0.0021
     16 C          -7.4695  -16.4728   24.0728 C.ar    1  UNL1        0.0030
     17 C          -8.2832  -16.3298   25.3248 C.ar    1  UNL1        0.0093
     18 N          -9.4747  -17.0887   22.5399 N.ar    1  UNL1       -0.3023
     19 C         -10.5957  -17.9373   23.0626 C.ar    1  UNL1        0.0985
     20 C         -11.8721  -17.4539   22.4404 C.ar    1  UNL1        0.1193
     21 N         -11.5400  -16.3065   21.5332 N.ar    1  UNL1       -0.2223
     22 C         -10.0583  -16.0808   21.5946 C.ar    1  UNL1        0.1790
@<TRIPOS>BOND
     1    11    12    1
     2    12    13   ar
     3    13    14   ar
     4    14    15   ar
     5    15    16   ar
     6    16     1    1
     7     1     2    1
     8     2     3    2
     9     3     4    1
    10     4     5    2
    11     5     6    1
    12     6     7    2
    13     7     8    1
    14     8     9    2
    15     9    10    1
    16     1    18    1
    17    18    19   ar
    18    19    20   ar
    19    20    21   ar
    20    21    22   ar
    21    16    17   ar
    22    17    12   ar
    23    10     2    1
    24    22    18   ar
    25     9     5    1
@<TRIPOS>MOLECULE
*****
 22 25 0 0 0
SMALL
GASTEIGER

@<TRIPOS>ATOM
      1 C          -6.9719  -17.1755   23.2441 C.3     1  UNL1        0.1286
      2 C          -8.3954  -17.1810   22.7708 C.2     1  UNL1       -0.0136
      3 C          -9.4194  -18.0138   23.4831 C.2     1  UNL1       -0.0044
      4 C         -10.8428  -18.0193   23.0097 C.2     1  UNL1        0.0198
      5 C         -11.2420  -17.1918   21.8240 C.2     1  UNL1        0.0969
      6 N         -12.5592  -16.9978   21.1332 N.2     1  UNL1       -0.2228
      7 C         -12.3492  -16.0450   19.9939 C.2     1  UNL1        0.1986
      8 N         -10.9021  -15.6502   19.9806 N.2     1  UNL1       -0.2265
      9 C         -10.2178  -16.3589   21.1117 C.2     1  UNL1        0.0824
     10 C          -8.7945  -16.3535   21.5851 C.3     1  UNL1        0.0715
     11 CL         -5.8856  -21.1875   20.1258 Cl      1  UNL1       -0.0823
     12 C          -5.4274  -20.1082   21.0613 C.ar    1  UNL1        0.0574
     13 C          -3.9683  -19.9554   21.3732 C.ar    1  UNL1        0.0114
     14 C          -3.5102  -18.8761   22.3087 C.ar    1  UNL1        0.0006
     15 C          -4.5114  -17.9495   22.9323 C.ar    1  UNL1       -0.0021
     16 C          -5.9707  -18.1021   22.6205 C.ar    1  UNL1        0.0030
     17 C          -6.4287  -19.1815   21.6850 C.ar    1  UNL1        0.0093
     18 N          -6.5499  -16.2436   24.3410 N.ar    1  UNL1       -0.3023
     19 C          -7.2765  -16.0166   25.6335 C.ar    1  UNL1        0.0985
     20 C          -6.5027  -15.0077   26.4293 C.ar    1  UNL1        0.1193
     21 N          -5.2979  -14.6110   25.6286 N.ar    1  UNL1       -0.2223
     22 C          -5.3270  -15.3748   24.3380 C.ar    1  UNL1        0.1790
@<TRIPOS>BOND
     1    11    12    1
     2    12    13   ar
     3    13    14   ar
     4    14    15   ar
     5    15    16   ar
     6    16     1    1
     7     1     2    1
     8     2     3    2
     9     3     4    1
    10     4     5    2
    11     5     6    1
    12     6     7    2
    13     7     8    1
    14     8     9    2
    15     9    10    1
    16     1    18    1
    17    18    19   ar
    18    19    20   ar
    19    20    21   ar
    20    21    22   ar
    21    16    17   ar
    22    17    12   ar
    23    10     2    1
    24    22    18   ar
    25     9     5    1
@<TRIPOS>MOLECULE
*****
 22 25 0 0 0
SMALL
GASTEIGER

@<TRIPOS>ATOM
      1 C          -8.5398  -17.8647   22.3562 C.3     1  UNL1        0.1286
      2 C          -7.8735  -17.0675   23.4382 C.2     1  UNL1       -0.0136
      3 C          -6.4934  -16.5203   23.2249 C.2     1  UNL1       -0.0044
      4 C          -5.8271  -15.7231   24.3069 C.2     1  UNL1        0.0198
      5 C          -6.5411  -15.4732   25.6021 C.2     1  UNL1        0.0969
      6 N          -6.1408  -14.7291   26.8415 N.2     1  UNL1       -0.2228
      7 C          -7.2737  -14.8166   27.8208 C.2     1  UNL1        0.1986
      8 N          -8.3741  -15.6146   27.1866 N.2     1  UNL1       -0.2265
      9 C          -7.9214  -16.0204   25.8154 C.2     1  UNL1        0.0824
     10 C          -8.5876  -16.8176   24.7334 C.3     1  UNL1        0.0715
     11 CL        -12.1151  -15.6112   19.3331 Cl      1  UNL1       -0.0823
     12 C         -11.7657  -16.4830   20.5027 C.ar    1  UNL1        0.0574
     13 C         -12.8541  -17.0997   21.3302 C.ar    1  UNL1        0.0114
     14 C         -12.5045  -17.9715   22.4998 C.ar    1  UNL1        0.0006
     15 C         -11.0664  -18.2265   22.8417 C.ar    1  UNL1       -0.0021
     16 C          -9.9779  -17.6097   22.0142 C.ar    1  UNL1        0.0030
     17 C         -10.3275  -16.7380   20.8447 C.ar    1  UNL1        0.0093
     18 N          -7.7681  -18.9167   21.6162 N.ar    1  UNL1       -0.3023
     19 C          -7.9775  -19.3224   20.1874 C.ar    1  UNL1        0.0985
     20 C          -6.9902  -20.4042   19.8633 C.ar    1  UNL1        0.1193
     21 N          -6.1707  -20.6671   21.0918 N.ar    1  UNL1       -0.2223
     22 C          -6.6514  -19.7478   22.1752 C.ar    1  UNL1        0.1790
@<TRIPOS>BOND
     1    11    12    1
     2    12    13   ar
     3    13    14   ar
     4    14    15   ar
     5    15    16   ar
     6    16     1    1
     7     1     2    1
     8     2     3    2
     9     3     4    1
    10     4     5    2
    11     5     6    1
    12     6     7    2
    13     7     8    1
    14     8     9    2
    15     9    10    1
    16     1    18    1
    17    18    19   ar
    18    19    20   ar
    19    20    21   ar
    20    21    22   ar
    21    16    17   ar
    22    17    12   ar
    23    10     2    1
    24    22    18   ar
    25     9     5    1
@<TRIPOS>MOLECULE
*****
 22 25 0 0 0
SMALL
GASTEIGER

@<TRIPOS>ATOM
      1 C         -13.0841   -6.3746   18.3334 C.3     1  UNL1        0.1286
      2 C         -14.3581   -7.1146   18.0514 C.2     1  UNL1       -0.0136
      3 C         -15.3740   -6.5294   17.1158 C.2     1  UNL1       -0.0044
      4 C         -16.6480   -7.2693   16.8338 C.2     1  UNL1        0.0198
      5 C         -16.9060   -8.5945   17.4875 C.2     1  UNL1        0.0969
      6 N         -18.0612   -9.5476   17.4025 N.2     1  UNL1       -0.2228
      7 C         -17.7591  -10.7218   18.2856 C.2     1  UNL1        0.1986
      8 N         -16.4173  -10.4945   18.9164 N.2     1  UNL1       -0.2265
      9 C         -15.8901   -9.1797   18.4231 C.2     1  UNL1        0.0824
     10 C         -14.6161   -8.4397   18.7051 C.3     1  UNL1        0.0715
     11 CL        -12.1449   -1.3406   17.4524 Cl      1  UNL1       -0.0823
     12 C         -12.6619   -2.4285   18.3464 C.ar    1  UNL1        0.0574
     13 C         -13.2261   -2.0874   19.6936 C.ar    1  UNL1        0.0114
     14 C         -13.7431   -3.1754   20.5876 C.ar    1  UNL1        0.0006
     15 C         -13.6958   -4.6045   20.1341 C.ar    1  UNL1       -0.0021
     16 C         -13.1314   -4.9456   18.7868 C.ar    1  UNL1        0.0030
     17 C         -12.6145   -3.8576   17.8929 C.ar    1  UNL1        0.0093
     18 N         -11.7629   -7.0636   18.1619 N.ar    1  UNL1       -0.3023
     19 C         -10.5833   -6.9502   19.0816 C.ar    1  UNL1        0.0985
     20 C          -9.4806   -7.8036   18.5288 C.ar    1  UNL1        0.1193
     21 N          -9.9786   -8.4445   17.2673 N.ar    1  UNL1       -0.2223
     22 C         -11.3891   -7.9873   17.0406 C.ar    1  UNL1        0.1790
@<TRIPOS>BOND
     1    11    12    1
     2    12    13   ar
     3    13    14   ar
     4    14    15   ar
     5    15    16   ar
     6    16     1    1
     7     1     2    1
     8     2     3    2
     9     3     4    1
    10     4     5    2
    11     5     6    1
    12     6     7    2
    13     7     8    1
    14     8     9    2
    15     9    10    1
    16     1    18    1
    17    18    19   ar
    18    19    20   ar
    19    20    21   ar
    20    21    22   ar
    21    16    17   ar
    22    17    12   ar
    23    10     2    1
    24    22    18   ar
    25     9     5    1
