@<TRIPOS>MOLECULE
*****
 36 39 0 0 0
SMALL
GASTEIGER

@<TRIPOS>ATOM
      1 C          -4.7479  -19.7221   20.9189 C.3     1  UNL1        0.1380
      2 O          -5.7457  -20.6353   20.2706 O.3     1  UNL1       -0.3545
      3 C          -7.2060  -20.4936   20.5831 C.3     1  UNL1        0.1442
      4 C          -7.6683  -19.4388   21.5441 C.3     1  UNL1        0.0589
      5 C          -6.6705  -18.5256   22.1925 C.3     1  UNL1        0.1466
      6 C          -7.1328  -17.4707   23.1535 C.ar    1  UNL1        0.0618
      7 C          -8.5931  -17.3291   23.4661 C.ar    1  UNL1        0.1407
      8 F          -9.8298  -18.0480   23.0149 F       1  UNL1       -0.2043
      9 C          -9.0554  -16.2742   24.4271 C.ar    1  UNL1        0.0319
     10 C          -8.0576  -15.3610   25.0756 C.ar    1  UNL1        0.0351
     11 C          -6.5974  -15.5027   24.7630 C.ar    1  UNL1        0.1737
     12 F          -5.5995  -14.5896   25.4114 F       1  UNL1       -0.2010
     13 C          -6.1350  -16.5576   23.8019 C.ar    1  UNL1        0.1655
     14 O          -4.6748  -16.6993   23.4893 O.3     1  UNL1       -0.4732
     15 C          -4.2124  -17.7541   22.5284 C.3     1  UNL1        0.2099
     16 C          -5.2103  -18.6673   21.8799 C.3     1  UNL1        0.0971
     17 S          -8.1307  -18.3840   22.5051 S.O2    1  UNL1        0.0094
     18 O          -8.4339  -18.8341   23.0890 O.2     1  UNL1       -0.1684
     19 O          -8.6106  -17.3458   21.5346 O.2     1  UNL1       -0.1684
     20 C          -9.5909  -18.2423   22.8177 C.ar    1  UNL1        0.1059
     21 C         -10.4604  -17.3713   21.9600 C.ar    1  UNL1        0.0192
     22 C         -11.9207  -17.2297   22.2726 C.ar    1  UNL1        0.0127
     23 C         -12.5113  -17.9589   23.4428 C.ar    1  UNL1        0.0578
     24 CL        -13.9715  -17.8172   23.7554 Cl      1  UNL1       -0.0822
     25 C         -11.6418  -18.8298   24.3004 C.ar    1  UNL1        0.0127
     26 C         -10.1816  -18.9715   23.9878 C.ar    1  UNL1        0.0192
     27 C          -3.2877  -19.8638   20.6064 C.3     1  UNL1        0.1210
     28 N          -2.6692  -19.0340   19.5206 N.3     1  UNL1       -0.1735
     29 H          -2.5550  -19.6451   18.7119 H       1  UNL1        0.1488
     30 O          -1.3679  -17.8417   18.3438 O.2     1  UNL1       -0.1497
     31 S          -1.3457  -18.3661   19.7489 S.O2    1  UNL1        0.1272
     32 O          -1.3234  -18.8904   21.1541 O.2     1  UNL1       -0.1497
     33 C          -0.0221  -17.6981   19.9773 C.3     1  UNL1        0.5357
     34 F           0.6811  -18.9877   19.6732 F       1  UNL1       -0.1493
     35 F          -0.7254  -16.4085   20.2813 F       1  UNL1       -0.1493
     36 F           1.3014  -17.0301   20.2056 F       1  UNL1       -0.1493
@<TRIPOS>BOND
     1    30    31    2
     2    31    32    2
     3    31    28    1
     4    28    27    1
     5     1    27    1
     6     1     2    1
     7     2     3    1
     8     3     4    1
     9     4     5    1
    10     5    17    1
    11    17    18    2
    12    17    19    2
    13    17    20    1
    14    20    21   ar
    15    21    22   ar
    16    22    23   ar
    17    23    24    1
    18    23    25   ar
    19    25    26   ar
    20     5     6    1
    21     6     7   ar
    22     7     8    1
    23     7     9   ar
    24     9    10   ar
    25    10    11   ar
    26    11    12    1
    27    11    13   ar
    28    13    14    1
    29    14    15    1
    30    16    15    1
    31    31    33    1
    32    33    34    1
    33    33    35    1
    34    33    36    1
    35    16     1    1
    36    16     5    1
    37    26    20   ar
    38    13     6   ar
    39    28    29    1
@<TRIPOS>MOLECULE
*****
 36 39 0 0 0
SMALL
GASTEIGER

@<TRIPOS>ATOM
      1 C          -3.7857  -18.3501   22.6792 C.3     1  UNL1        0.1380
      2 O          -4.1102  -17.3187   23.7188 O.3     1  UNL1       -0.3545
      3 C          -5.5255  -16.8565   23.9008 C.3     1  UNL1        0.1442
      4 C          -6.6165  -17.4258   23.0431 C.3     1  UNL1        0.0589
      5 C          -6.2921  -18.4572   22.0034 C.3     1  UNL1        0.1466
      6 C          -7.3831  -19.0265   21.1456 C.ar    1  UNL1        0.0618
      7 C          -8.7985  -18.5643   21.3276 C.ar    1  UNL1        0.1407
      8 F          -9.4633  -17.5785   22.2420 F       1  UNL1       -0.2043
      9 C          -9.8894  -19.1336   20.4699 C.ar    1  UNL1        0.0319
     10 C          -9.5650  -20.1650   19.4302 C.ar    1  UNL1        0.0351
     11 C          -8.1496  -20.6272   19.2482 C.ar    1  UNL1        0.1737
     12 F          -7.8252  -21.6586   18.2086 F       1  UNL1       -0.2010
     13 C          -7.0587  -20.0579   20.1060 C.ar    1  UNL1        0.1655
     14 O          -5.6433  -20.5200   19.9240 O.3     1  UNL1       -0.4732
     15 C          -4.5523  -19.9508   20.7818 C.3     1  UNL1        0.2099
     16 C          -4.8767  -18.9193   21.8215 C.3     1  UNL1        0.0971
     17 S          -7.7075  -17.9950   22.1854 S.O2    1  UNL1        0.0094
     18 O          -8.2225  -18.4944   22.5329 O.2     1  UNL1       -0.1684
     19 O          -7.7153  -16.6121   21.6046 O.2     1  UNL1       -0.1684
     20 C          -9.1229  -17.5329   22.3673 C.ar    1  UNL1        0.1059
     21 C          -9.6432  -16.3767   21.5656 C.ar    1  UNL1        0.0192
     22 C         -11.0586  -15.9146   21.7476 C.ar    1  UNL1        0.0127
     23 C         -11.9536  -16.6086   22.7312 C.ar    1  UNL1        0.0578
     24 CL        -13.3690  -16.1464   22.9131 Cl      1  UNL1       -0.0822
     25 C         -11.4332  -17.7646   23.5328 C.ar    1  UNL1        0.0127
     26 C         -10.0178  -18.2268   23.3509 C.ar    1  UNL1        0.0192
     27 C          -2.3704  -18.8122   22.4972 C.3     1  UNL1        0.1210
     28 N          -1.3911  -17.9541   21.7526 N.3     1  UNL1       -0.1735
     29 H          -1.4639  -17.0155   22.1452 H       1  UNL1        0.1488
     30 O          -2.4517  -16.6645   20.4441 O.2     1  UNL1       -0.1497
     31 S          -1.5006  -17.8103   20.2635 S.O2    1  UNL1        0.1272
     32 O          -0.5495  -18.9561   20.0829 O.2     1  UNL1       -0.1497
     33 C          -1.6101  -17.6665   18.7744 C.3     1  UNL1        0.5357
     34 F          -3.1002  -17.5440   18.8959 F       1  UNL1       -0.1493
     35 F          -0.1201  -17.7891   18.6530 F       1  UNL1       -0.1493
     36 F          -1.7196  -17.5227   17.2854 F       1  UNL1       -0.1493
@<TRIPOS>BOND
     1    30    31    2
     2    31    32    2
     3    31    28    1
     4    28    27    1
     5     1    27    1
     6     1     2    1
     7     2     3    1
     8     3     4    1
     9     4     5    1
    10     5    17    1
    11    17    18    2
    12    17    19    2
    13    17    20    1
    14    20    21   ar
    15    21    22   ar
    16    22    23   ar
    17    23    24    1
    18    23    25   ar
    19    25    26   ar
    20     5     6    1
    21     6     7   ar
    22     7     8    1
    23     7     9   ar
    24     9    10   ar
    25    10    11   ar
    26    11    12    1
    27    11    13   ar
    28    13    14    1
    29    14    15    1
    30    16    15    1
    31    31    33    1
    32    33    34    1
    33    33    35    1
    34    33    36    1
    35    16     1    1
    36    16     5    1
    37    26    20   ar
    38    13     6   ar
    39    28    29    1
@<TRIPOS>MOLECULE
*****
 36 39 0 0 0
SMALL
GASTEIGER

@<TRIPOS>ATOM
      1 C          -5.5536  -16.5267   23.5846 C.3     1  UNL1        0.1380
      2 O          -6.1414  -15.9145   24.8214 O.3     1  UNL1       -0.3545
      3 C          -7.6030  -16.0773   25.1169 C.3     1  UNL1        0.1442
      4 C          -8.4767  -16.8523   24.1757 C.3     1  UNL1        0.0589
      5 C          -7.8889  -17.4645   22.9389 C.3     1  UNL1        0.1466
      6 C          -8.7626  -18.2395   21.9976 C.ar    1  UNL1        0.0618
      7 C         -10.2242  -18.4023   22.2932 C.ar    1  UNL1        0.1407
      8 F         -11.1207  -17.9393   23.4030 F       1  UNL1       -0.2043
      9 C         -11.0979  -19.1773   21.3519 C.ar    1  UNL1        0.0319
     10 C         -10.5101  -19.7896   20.1151 C.ar    1  UNL1        0.0351
     11 C          -9.0485  -19.6267   19.8195 C.ar    1  UNL1        0.1737
     12 F          -8.4607  -20.2389   18.5828 F       1  UNL1       -0.2010
     13 C          -8.1748  -18.8517   20.7608 C.ar    1  UNL1        0.1655
     14 O          -6.7133  -18.6889   20.4653 O.3     1  UNL1       -0.4732
     15 C          -5.8395  -17.9139   21.4065 C.3     1  UNL1        0.2099
     16 C          -6.4273  -17.3017   22.6434 C.3     1  UNL1        0.0971
     17 S          -9.3505  -17.6273   23.2345 S.O2    1  UNL1        0.0094
     18 O          -9.5883  -18.3018   23.5865 O.2     1  UNL1       -0.1684
     19 O          -9.9666  -16.3560   22.7304 O.2     1  UNL1       -0.1684
     20 C         -10.8120  -17.7901   23.5300 C.ar    1  UNL1        0.1059
     21 C         -11.8188  -16.9205   22.8370 C.ar    1  UNL1        0.0192
     22 C         -13.2803  -17.0833   23.1325 C.ar    1  UNL1        0.0127
     23 C         -13.7351  -18.1158   24.1211 C.ar    1  UNL1        0.0578
     24 CL        -15.1967  -18.2786   24.4167 Cl      1  UNL1       -0.0822
     25 C         -12.7284  -18.9853   24.8141 C.ar    1  UNL1        0.0127
     26 C         -11.2668  -18.8225   24.5186 C.ar    1  UNL1        0.0192
     27 C          -4.0921  -16.3639   23.2890 C.3     1  UNL1        0.1210
     28 N          -3.2305  -17.5733   23.0767 N.3     1  UNL1       -0.1735
     29 H          -2.6635  -17.6821   23.9176 H       1  UNL1        0.1488
     30 O          -2.1125  -19.1027   22.1223 O.2     1  UNL1       -0.1497
     31 S          -2.2897  -17.6284   21.9098 S.O2    1  UNL1        0.1272
     32 O          -2.4669  -16.1542   21.6973 O.2     1  UNL1       -0.1497
     33 C          -1.3489  -17.6836   20.7428 C.3     1  UNL1        0.5357
     34 F          -1.0531  -16.2228   20.9122 F       1  UNL1       -0.1493
     35 F          -1.6446  -19.1443   20.5734 F       1  UNL1       -0.1493
     36 F          -0.4080  -17.7387   19.5759 F       1  UNL1       -0.1493
@<TRIPOS>BOND
     1    30    31    2
     2    31    32    2
     3    31    28    1
     4    28    27    1
     5     1    27    1
     6     1     2    1
     7     2     3    1
     8     3     4    1
     9     4     5    1
    10     5    17    1
    11    17    18    2
    12    17    19    2
    13    17    20    1
    14    20    21   ar
    15    21    22   ar
    16    22    23   ar
    17    23    24    1
    18    23    25   ar
    19    25    26   ar
    20     5     6    1
    21     6     7   ar
    22     7     8    1
    23     7     9   ar
    24     9    10   ar
    25    10    11   ar
    26    11    12    1
    27    11    13   ar
    28    13    14    1
    29    14    15    1
    30    16    15    1
    31    31    33    1
    32    33    34    1
    33    33    35    1
    34    33    36    1
    35    16     1    1
    36    16     5    1
    37    26    20   ar
    38    13     6   ar
    39    28    29    1
