@<TRIPOS>MOLECULE
*****
 34 37 0 0 0
SMALL
GASTEIGER

@<TRIPOS>ATOM
      1 C          -6.9418  -20.2361   20.4488 C.3     1  UNL1        0.0071
      2 C          -7.3063  -20.1490   21.9012 C.3     1  UNL1        0.0177
      3 C          -8.6835  -19.7118   22.3038 C.3     1  UNL1        0.0721
      4 N          -9.6962  -19.3616   21.2541 N.3     1  UNL1       -0.2724
      5 C          -9.3316  -19.4487   19.8017 C.3     1  UNL1        0.0721
      6 C          -7.9545  -19.8859   19.3991 C.3     1  UNL1        0.0177
      7 C          -5.5646  -20.6734   20.0461 C.3     1  UNL1        0.0265
      8 C          -2.5138  -18.6281   21.5492 C.ar    1  UNL1        0.1445
      9 C          -3.6649  -19.5841   21.4441 C.ar    1  UNL1        0.0331
     10 C          -4.4135  -19.7174   20.1511 C.ar    1  UNL1       -0.0191
     11 C          -4.0110  -18.8948   18.9632 C.ar    1  UNL1       -0.0036
     12 C          -2.8598  -17.9388   19.0682 C.ar    1  UNL1        0.0094
     13 C          -2.1112  -17.8055   20.3612 C.ar    1  UNL1        0.0684
     14 BR         -0.9601  -16.8495   20.4662 Br      1  UNL1       -0.0458
     15 O          -1.7652  -18.4948   22.8422 O.3     1  UNL1       -0.4723
     16 C          -2.3922  -17.7784   24.0013 C.3     1  UNL1        0.2373
     17 C          -3.8815  -17.6106   24.0626 C.3     1  UNL1        0.1894
     18 C          -3.8320  -15.3973   22.7028 C.3     1  UNL1        0.1743
     19 O          -4.5629  -16.6246   23.1607 O.3     1  UNL1       -0.3471
     20 C         -11.0734  -18.9243   21.6569 C.3     1  UNL1        0.0768
     21 C         -11.2671  -17.6202   22.3721 C.3     1  UNL1        0.0437
     22 C         -10.0800  -16.8727   22.9034 C.ar    1  UNL1       -0.0205
     23 C          -9.2646  -16.0104   21.9861 C.ar    1  UNL1       -0.0011
     24 C          -8.0777  -15.2630   22.5175 C.ar    1  UNL1        0.0368
     25 C          -7.7061  -15.3778   23.9662 C.ar    1  UNL1        0.1440
     26 C          -8.5215  -16.2400   24.8835 C.ar    1  UNL1        0.0686
     27 C          -9.7085  -16.9875   24.3522 C.ar    1  UNL1        0.0017
     28 C          -8.1500  -16.3549   26.3322 C.2     1  UNL1        0.1823
     29 O          -8.9654  -17.2171   27.2496 O.2     1  UNL1       -0.2910
     30 C          -6.9630  -15.6074   26.8636 C.3     1  UNL1        0.1451
     31 C          -6.1475  -14.7451   25.9463 C.3     1  UNL1        0.2921
     32 O          -4.9606  -13.9976   26.4776 O.3     1  UNL1       -0.3498
     33 O          -6.5191  -14.6303   24.4975 O.3     1  UNL1       -0.4521
     34 H          -4.8610  -14.1805   27.4250 H       1  UNL1        0.2141
@<TRIPOS>BOND
     1    18    19    1
     2    19    17    1
     3    17    16    1
     4    16    15    1
     5    15     8    1
     6     8     9   ar
     7     9    10   ar
     8    10     7    1
     9     7     1    1
    10     1     2    1
    11     2     3    1
    12     3     4    1
    13     4    20    1
    14    20    21    1
    15    21    22    1
    16    22    23   ar
    17    23    24   ar
    18    24    25   ar
    19    25    26   ar
    20    26    27   ar
    21    26    28    1
    22    28    29    2
    23    28    30    1
    24    30    31    1
    25    31    32    1
    26    31    33    1
    27     4     5    1
    28     5     6    1
    29    10    11   ar
    30    11    12   ar
    31    12    13   ar
    32    13    14    1
    33    13     8   ar
    34     6     1    1
    35    27    22   ar
    36    33    25    1
    37    32    34    1
@<TRIPOS>MOLECULE
*****
 34 37 0 0 0
SMALL
GASTEIGER

@<TRIPOS>ATOM
      1 C           4.6706   -3.4499   20.5922 C.3     1  UNL1        0.0071
      2 C           5.9910   -3.8210   19.9849 C.3     1  UNL1        0.0177
      3 C           7.1303   -4.2404   20.8658 C.3     1  UNL1        0.0721
      4 N           6.9492   -4.2887   22.3540 N.3     1  UNL1       -0.2724
      5 C           5.6289   -3.9176   22.9614 C.3     1  UNL1        0.0721
      6 C           4.4896   -3.4982   22.0804 C.3     1  UNL1        0.0177
      7 C           3.5313   -3.0305   19.7113 C.3     1  UNL1        0.0265
      8 C           2.2452    0.7090   20.0459 C.ar    1  UNL1        0.1445
      9 C           2.4694   -0.7445   20.3410 C.ar    1  UNL1        0.0331
     10 C           3.3070   -1.5770   19.4162 C.ar    1  UNL1       -0.0191
     11 C           3.9204   -0.9561   18.1963 C.ar    1  UNL1       -0.0036
     12 C           3.6962    0.4974   17.9012 C.ar    1  UNL1        0.0094
     13 C           2.8586    1.3300   18.8260 C.ar    1  UNL1        0.0684
     14 BR          2.6344    2.7834   18.5309 Br      1  UNL1       -0.0458
     15 O           1.4076    1.5415   20.9707 O.3     1  UNL1       -0.4723
     16 C          -0.0888    1.4629   20.9027 C.3     1  UNL1        0.2373
     17 C          -0.8886    2.6818   20.5500 C.3     1  UNL1        0.1894
     18 C          -3.2974    3.4904   20.0079 C.3     1  UNL1        0.1743
     19 O          -2.3456    2.7500   20.9000 O.3     1  UNL1       -0.3471
     20 C           8.0886   -4.7081   23.2350 C.3     1  UNL1        0.0768
     21 C           8.0856   -6.0677   23.8686 C.3     1  UNL1        0.0437
     22 C           7.9486   -6.2015   25.3564 C.ar    1  UNL1       -0.0205
     23 C           8.3876   -7.4625   26.0396 C.ar    1  UNL1       -0.0011
     24 C           8.2505   -7.5963   27.5273 C.ar    1  UNL1        0.0368
     25 C           7.6744   -6.4689   28.3318 C.ar    1  UNL1        0.1440
     26 C           7.2354   -5.2078   27.6485 C.ar    1  UNL1        0.0686
     27 C           7.3725   -5.0741   26.1609 C.ar    1  UNL1        0.0017
     28 C           6.6593   -4.0804   28.4530 C.2     1  UNL1        0.1823
     29 O           6.2203   -2.8193   27.7698 O.2     1  UNL1       -0.2910
     30 C           6.5222   -4.2142   29.9407 C.3     1  UNL1        0.1451
     31 C           6.9612   -5.4753   30.6240 C.3     1  UNL1        0.2921
     32 O           6.8242   -5.6090   32.1117 O.3     1  UNL1       -0.3498
     33 O           7.5373   -6.6027   29.8196 O.3     1  UNL1       -0.4521
     34 H           6.4373   -4.7971   32.4750 H       1  UNL1        0.2141
@<TRIPOS>BOND
     1    18    19    1
     2    19    17    1
     3    17    16    1
     4    16    15    1
     5    15     8    1
     6     8     9   ar
     7     9    10   ar
     8    10     7    1
     9     7     1    1
    10     1     2    1
    11     2     3    1
    12     3     4    1
    13     4    20    1
    14    20    21    1
    15    21    22    1
    16    22    23   ar
    17    23    24   ar
    18    24    25   ar
    19    25    26   ar
    20    26    27   ar
    21    26    28    1
    22    28    29    2
    23    28    30    1
    24    30    31    1
    25    31    32    1
    26    31    33    1
    27     4     5    1
    28     5     6    1
    29    10    11   ar
    30    11    12   ar
    31    12    13   ar
    32    13    14    1
    33    13     8   ar
    34     6     1    1
    35    27    22   ar
    36    33    25    1
    37    32    34    1
@<TRIPOS>MOLECULE
*****
 34 37 0 0 0
SMALL
GASTEIGER

@<TRIPOS>ATOM
      1 C           6.9452   -3.9244   23.3003 C.3     1  UNL1        0.0071
      2 C           7.7714   -4.0010   22.0508 C.3     1  UNL1        0.0177
      3 C           7.1016   -4.0197   20.7088 C.3     1  UNL1        0.0721
      4 N           5.6056   -3.9617   20.6164 N.3     1  UNL1       -0.2724
      5 C           4.7793   -3.8851   21.8659 C.3     1  UNL1        0.0721
      6 C           5.4491   -3.8664   23.2079 C.3     1  UNL1        0.0177
      7 C           7.6149   -3.9057   24.6424 C.3     1  UNL1        0.0265
      8 C           8.0533   -6.4549   27.6522 C.ar    1  UNL1        0.1445
      9 C           7.8509   -5.1748   26.8971 C.ar    1  UNL1        0.0331
     10 C           7.8173   -5.1858   25.3975 C.ar    1  UNL1       -0.0191
     11 C           7.9861   -6.4770   24.6530 C.ar    1  UNL1       -0.0036
     12 C           8.1885   -7.7572   25.4081 C.ar    1  UNL1        0.0094
     13 C           8.2221   -7.7462   26.9077 C.ar    1  UNL1        0.0684
     14 BR          8.4245   -9.0263   27.6628 Br      1  UNL1       -0.0458
     15 O           8.0869   -6.4439   29.1518 O.3     1  UNL1       -0.4723
     16 C           7.0079   -5.7410   29.9210 C.3     1  UNL1        0.2373
     17 C           7.0361   -5.7385   31.4207 C.3     1  UNL1        0.1894
     18 C           7.5448   -3.2582   32.0033 C.3     1  UNL1        0.1743
     19 O           6.7006   -4.4861   32.1750 O.3     1  UNL1       -0.3471
     20 C           4.9358   -3.9804   19.2743 C.3     1  UNL1        0.0768
     21 C           3.5584   -3.4082   19.1154 C.3     1  UNL1        0.0437
     22 C           3.3779   -1.9332   18.9107 C.ar    1  UNL1       -0.0205
     23 C           4.3869   -1.1572   18.1171 C.ar    1  UNL1       -0.0011
     24 C           4.2064    0.3177   17.9124 C.ar    1  UNL1        0.0368
     25 C           3.0170    1.0167   18.5013 C.ar    1  UNL1        0.1440
     26 C           2.0081    0.2407   19.2949 C.ar    1  UNL1        0.0686
     27 C           2.1885   -1.2343   19.4996 C.ar    1  UNL1        0.0017
     28 C           0.8187    0.9396   19.8838 C.2     1  UNL1        0.1823
     29 O          -0.1903    0.1636   20.6774 O.2     1  UNL1       -0.2910
     30 C           0.6382    2.4146   19.6791 C.3     1  UNL1        0.1451
     31 C           1.6472    3.1906   18.8855 C.3     1  UNL1        0.2921
     32 O           1.4668    4.6656   18.6808 O.3     1  UNL1       -0.3498
     33 O           2.8366    2.4917   18.2966 O.3     1  UNL1       -0.4521
     34 H           0.6540    4.9564   19.1233 H       1  UNL1        0.2141
@<TRIPOS>BOND
     1    18    19    1
     2    19    17    1
     3    17    16    1
     4    16    15    1
     5    15     8    1
     6     8     9   ar
     7     9    10   ar
     8    10     7    1
     9     7     1    1
    10     1     2    1
    11     2     3    1
    12     3     4    1
    13     4    20    1
    14    20    21    1
    15    21    22    1
    16    22    23   ar
    17    23    24   ar
    18    24    25   ar
    19    25    26   ar
    20    26    27   ar
    21    26    28    1
    22    28    29    2
    23    28    30    1
    24    30    31    1
    25    31    32    1
    26    31    33    1
    27     4     5    1
    28     5     6    1
    29    10    11   ar
    30    11    12   ar
    31    12    13   ar
    32    13    14    1
    33    13     8   ar
    34     6     1    1
    35    27    22   ar
    36    33    25    1
    37    32    34    1
@<TRIPOS>MOLECULE
*****
 34 37 0 0 0
SMALL
GASTEIGER

@<TRIPOS>ATOM
      1 C           3.5150   -0.0577   24.3728 C.3     1  UNL1        0.0071
      2 C           3.5256    0.1644   25.8561 C.3     1  UNL1        0.0177
      3 C           2.3254    0.7553   26.5346 C.3     1  UNL1        0.0721
      4 N           1.1146    1.1240   25.7296 N.3     1  UNL1       -0.2724
      5 C           1.1040    0.9019   24.2463 C.3     1  UNL1        0.0721
      6 C           2.3042    0.3110   23.5678 C.3     1  UNL1        0.0177
      7 C           4.7152   -0.6486   23.6942 C.3     1  UNL1        0.0265
      8 C           4.2513   -2.0209   19.9994 C.ar    1  UNL1        0.1445
      9 C           4.4301   -1.0712   21.1467 C.ar    1  UNL1        0.0331
     10 C           4.5365   -1.5983   22.5470 C.ar    1  UNL1       -0.0191
     11 C           4.4641   -3.0750   22.8001 C.ar    1  UNL1       -0.0036
     12 C           4.2853   -4.0247   21.6528 C.ar    1  UNL1        0.0094
     13 C           4.1790   -3.4976   20.2525 C.ar    1  UNL1        0.0684
     14 BR          4.0002   -4.4473   19.1053 Br      1  UNL1       -0.0458
     15 O           4.1450   -1.4938   18.5991 O.3     1  UNL1       -0.4723
     16 C           3.6238   -0.1083   18.3568 C.3     1  UNL1        0.2373
     17 C           2.1504    0.1627   18.4326 C.3     1  UNL1        0.1894
     18 C           0.3267    0.6778   20.2098 C.3     1  UNL1        0.1743
     19 O           1.3759   -0.2382   19.6530 O.3     1  UNL1       -0.3471
     20 C          -0.0856    1.7150   26.4082 C.3     1  UNL1        0.0768
     21 C          -0.5212    3.1121   26.0791 C.3     1  UNL1        0.0437
     22 C          -1.9519    3.3872   25.7222 C.ar    1  UNL1       -0.0205
     23 C          -2.9348    3.7554   26.7938 C.ar    1  UNL1       -0.0011
     24 C          -4.3654    4.0305   26.4368 C.ar    1  UNL1        0.0368
     25 C          -4.8132    3.9375   25.0082 C.ar    1  UNL1        0.1440
     26 C          -3.8303    3.5693   23.9366 C.ar    1  UNL1        0.0686
     27 C          -2.3997    3.2942   24.2936 C.ar    1  UNL1        0.0017
     28 C          -4.2781    3.4763   22.5080 C.2     1  UNL1        0.1823
     29 O          -3.2953    3.1081   21.4364 O.2     1  UNL1       -0.2910
     30 C          -5.7088    3.7514   22.1510 C.3     1  UNL1        0.1451
     31 C          -6.6917    4.1196   23.2227 C.3     1  UNL1        0.2921
     32 O          -8.1224    4.3948   22.8657 O.3     1  UNL1       -0.3498
     33 O          -6.2440    4.2127   24.6512 O.3     1  UNL1       -0.4521
     34 H          -8.2424    4.2917   21.9087 H       1  UNL1        0.2141
@<TRIPOS>BOND
     1    18    19    1
     2    19    17    1
     3    17    16    1
     4    16    15    1
     5    15     8    1
     6     8     9   ar
     7     9    10   ar
     8    10     7    1
     9     7     1    1
    10     1     2    1
    11     2     3    1
    12     3     4    1
    13     4    20    1
    14    20    21    1
    15    21    22    1
    16    22    23   ar
    17    23    24   ar
    18    24    25   ar
    19    25    26   ar
    20    26    27   ar
    21    26    28    1
    22    28    29    2
    23    28    30    1
    24    30    31    1
    25    31    32    1
    26    31    33    1
    27     4     5    1
    28     5     6    1
    29    10    11   ar
    30    11    12   ar
    31    12    13   ar
    32    13    14    1
    33    13     8   ar
    34     6     1    1
    35    27    22   ar
    36    33    25    1
    37    32    34    1
@<TRIPOS>MOLECULE
*****
 34 37 0 0 0
SMALL
GASTEIGER

@<TRIPOS>ATOM
      1 C           4.6739   -3.4686   20.5334 C.3     1  UNL1        0.0071
      2 C           6.0432   -3.7233   19.9766 C.3     1  UNL1        0.0177
      3 C           7.1742   -4.0731   20.8977 C.3     1  UNL1        0.0721
      4 N           6.9359   -4.1682   22.3756 N.3     1  UNL1       -0.2724
      5 C           5.5666   -3.9135   22.9323 C.3     1  UNL1        0.0721
      6 C           4.4356   -3.5637   22.0113 C.3     1  UNL1        0.0177
      7 C           3.5428   -3.1188   19.6123 C.3     1  UNL1        0.0265
      8 C           1.9394    0.4665   20.1814 C.ar    1  UNL1        0.1445
      9 C           2.3127   -0.9699   20.3989 C.ar    1  UNL1        0.0331
     10 C           3.1695   -1.6824   19.3948 C.ar    1  UNL1       -0.0191
     11 C           3.6530   -0.9585   18.1733 C.ar    1  UNL1       -0.0036
     12 C           3.2797    0.4779   17.9557 C.ar    1  UNL1        0.0094
     13 C           2.4229    1.1905   18.9598 C.ar    1  UNL1        0.0684
     14 BR          2.0495    2.6269   18.7424 Br      1  UNL1       -0.0458
     15 O           1.0826    1.1791   21.1855 O.3     1  UNL1       -0.4723
     16 C           1.7201    1.9386   22.3110 C.3     1  UNL1        0.2373
     17 C           1.7563    1.3473   23.6890 C.3     1  UNL1        0.1894
     18 C           3.2268   -0.7475   24.1355 C.3     1  UNL1        0.1743
     19 O           3.0234    0.7368   24.2102 O.3     1  UNL1       -0.3471
     20 C           8.0669   -4.5180   23.2967 C.3     1  UNL1        0.0768
     21 C           8.3217   -3.6886   24.5202 C.3     1  UNL1        0.0437
     22 C           7.8779   -4.1809   25.8658 C.ar    1  UNL1       -0.0205
     23 C           6.9717   -5.3719   25.9673 C.ar    1  UNL1       -0.0011
     24 C           6.5279   -5.8641   27.3129 C.ar    1  UNL1        0.0368
     25 C           6.9903   -5.1653   28.5571 C.ar    1  UNL1        0.1440
     26 C           7.8965   -3.9743   28.4556 C.ar    1  UNL1        0.0686
     27 C           8.3403   -3.4821   27.1100 C.ar    1  UNL1        0.0017
     28 C           8.3588   -3.2756   29.6998 C.2     1  UNL1        0.1823
     29 O           9.2650   -2.0846   29.5983 O.2     1  UNL1       -0.2910
     30 C           7.9150   -3.7678   31.0454 C.3     1  UNL1        0.1451
     31 C           7.0088   -4.9588   31.1469 C.3     1  UNL1        0.2921
     32 O           6.5650   -5.4511   32.4925 O.3     1  UNL1       -0.3498
     33 O           6.5464   -5.6576   29.9027 O.3     1  UNL1       -0.4521
     34 H           6.9511   -4.8920   33.1848 H       1  UNL1        0.2141
@<TRIPOS>BOND
     1    18    19    1
     2    19    17    1
     3    17    16    1
     4    16    15    1
     5    15     8    1
     6     8     9   ar
     7     9    10   ar
     8    10     7    1
     9     7     1    1
    10     1     2    1
    11     2     3    1
    12     3     4    1
    13     4    20    1
    14    20    21    1
    15    21    22    1
    16    22    23   ar
    17    23    24   ar
    18    24    25   ar
    19    25    26   ar
    20    26    27   ar
    21    26    28    1
    22    28    29    2
    23    28    30    1
    24    30    31    1
    25    31    32    1
    26    31    33    1
    27     4     5    1
    28     5     6    1
    29    10    11   ar
    30    11    12   ar
    31    12    13   ar
    32    13    14    1
    33    13     8   ar
    34     6     1    1
    35    27    22   ar
    36    33    25    1
    37    32    34    1
@<TRIPOS>MOLECULE
*****
 34 37 0 0 0
SMALL
GASTEIGER

@<TRIPOS>ATOM
      1 C           1.9178   -0.2188   19.7785 C.3     1  UNL1        0.0071
      2 C           2.5696    0.8111   18.9042 C.3     1  UNL1        0.0177
      3 C           1.9081    2.1402   18.6900 C.3     1  UNL1        0.0721
      4 N           0.5948    2.4394   19.3501 N.3     1  UNL1       -0.2724
      5 C          -0.0570    1.4095   20.2244 C.3     1  UNL1        0.0721
      6 C           0.6045    0.0804   20.4386 C.3     1  UNL1        0.0177
      7 C           2.5793   -1.5479   19.9928 C.3     1  UNL1        0.0265
      8 C           5.1679   -3.1647   22.5295 C.ar    1  UNL1        0.1445
      9 C           4.3742   -2.9144   21.2816 C.ar    1  UNL1        0.0331
     10 C           3.3730   -1.7982   21.2407 C.ar    1  UNL1       -0.0191
     11 C           3.1655   -0.9322   22.4477 C.ar    1  UNL1       -0.0036
     12 C           3.9593   -1.1824   23.6957 C.ar    1  UNL1        0.0094
     13 C           4.9605   -2.2987   23.7366 C.ar    1  UNL1        0.0684
     14 BR          5.7542   -2.5489   24.9845 Br      1  UNL1       -0.0458
     15 O           6.1691   -4.2809   22.5704 O.3     1  UNL1       -0.4723
     16 C           7.5907   -4.0286   22.1637 C.3     1  UNL1        0.2373
     17 C           8.2346   -4.8870   21.1156 C.3     1  UNL1        0.1894
     18 C           8.8546   -6.7482   22.8191 C.3     1  UNL1        0.1743
     19 O           8.5517   -6.3226   21.4129 O.3     1  UNL1       -0.3471
     20 C          -0.0668    3.7685   19.1359 C.3     1  UNL1        0.0768
     21 C          -1.3155    3.8603   18.3100 C.3     1  UNL1        0.0437
     22 C          -2.6562    3.9135   18.9807 C.ar    1  UNL1       -0.0205
     23 C          -3.9004    4.0738   18.1584 C.ar    1  UNL1       -0.0011
     24 C          -5.2409    4.1270   18.8292 C.ar    1  UNL1        0.0368
     25 C          -5.3373    4.0200   20.3223 C.ar    1  UNL1        0.1440
     26 C          -4.0931    3.8597   21.1446 C.ar    1  UNL1        0.0686
     27 C          -2.7525    3.8065   20.4738 C.ar    1  UNL1        0.0017
     28 C          -4.1895    3.7527   22.6376 C.2     1  UNL1        0.1823
     29 O          -2.9453    3.5925   23.4599 O.2     1  UNL1       -0.2910
     30 C          -5.5301    3.8059   23.3084 C.3     1  UNL1        0.1451
     31 C          -6.7744    3.9662   22.4861 C.3     1  UNL1        0.2921
     32 O          -8.1149    4.0194   23.1568 O.3     1  UNL1       -0.3498
     33 O          -6.6780    4.0732   20.9930 O.3     1  UNL1       -0.4521
     34 H          -7.9999    3.9368   24.1164 H       1  UNL1        0.2141
@<TRIPOS>BOND
     1    18    19    1
     2    19    17    1
     3    17    16    1
     4    16    15    1
     5    15     8    1
     6     8     9   ar
     7     9    10   ar
     8    10     7    1
     9     7     1    1
    10     1     2    1
    11     2     3    1
    12     3     4    1
    13     4    20    1
    14    20    21    1
    15    21    22    1
    16    22    23   ar
    17    23    24   ar
    18    24    25   ar
    19    25    26   ar
    20    26    27   ar
    21    26    28    1
    22    28    29    2
    23    28    30    1
    24    30    31    1
    25    31    32    1
    26    31    33    1
    27     4     5    1
    28     5     6    1
    29    10    11   ar
    30    11    12   ar
    31    12    13   ar
    32    13    14    1
    33    13     8   ar
    34     6     1    1
    35    27    22   ar
    36    33    25    1
    37    32    34    1
@<TRIPOS>MOLECULE
*****
 34 37 0 0 0
SMALL
GASTEIGER

@<TRIPOS>ATOM
      1 C          -6.7007  -20.3769   20.2581 C.3     1  UNL1        0.0071
      2 C          -7.2617  -19.9111   21.5690 C.3     1  UNL1        0.0177
      3 C          -8.6618  -19.3773   21.6382 C.3     1  UNL1        0.0721
      4 N          -9.5008  -19.3092   20.3967 N.3     1  UNL1       -0.2724
      5 C          -8.9397  -19.7749   19.0859 C.3     1  UNL1        0.0721
      6 C          -7.5397  -20.3088   19.0166 C.3     1  UNL1        0.0177
      7 C          -5.3006  -20.9107   20.1888 C.3     1  UNL1        0.0265
      8 C          -2.4847  -18.5383   21.6694 C.ar    1  UNL1        0.1445
      9 C          -3.6506  -19.4791   21.5952 C.ar    1  UNL1        0.0331
     10 C          -4.1346  -19.9699   20.2630 C.ar    1  UNL1       -0.0191
     11 C          -3.4528  -19.5201   19.0050 C.ar    1  UNL1       -0.0036
     12 C          -2.2868  -18.5792   19.0791 C.ar    1  UNL1        0.0094
     13 C          -1.8027  -18.0884   20.4113 C.ar    1  UNL1        0.0684
     14 BR         -0.6368  -17.1476   20.4855 Br      1  UNL1       -0.0458
     15 O          -2.0006  -18.0474   23.0015 O.3     1  UNL1       -0.4723
     16 C          -2.9124  -18.0871   24.1919 C.3     1  UNL1        0.2373
     17 C          -3.9741  -17.0407   24.3587 C.3     1  UNL1        0.1894
     18 C          -5.0554  -14.8942   23.3723 C.3     1  UNL1        0.1743
     19 O          -4.4367  -16.2461   23.1736 O.3     1  UNL1       -0.3471
     20 C         -10.9009  -18.7753   20.4660 C.3     1  UNL1        0.0768
     21 C         -11.6349  -18.7628   21.7741 C.3     1  UNL1        0.0437
     22 C         -10.9081  -18.4119   23.0386 C.ar    1  UNL1       -0.0205
     23 C         -11.0305  -19.2962   24.2440 C.ar    1  UNL1       -0.0011
     24 C         -10.3038  -18.9453   25.5084 C.ar    1  UNL1        0.0368
     25 C          -9.4547  -17.7102   25.5674 C.ar    1  UNL1        0.1440
     26 C          -9.3322  -16.8260   24.3619 C.ar    1  UNL1        0.0686
     27 C         -10.0589  -17.1768   23.0976 C.ar    1  UNL1        0.0017
     28 C          -8.4831  -15.5909   24.4209 C.2     1  UNL1        0.1823
     29 O          -8.3606  -14.7067   23.2155 O.2     1  UNL1       -0.2910
     30 C          -7.7563  -15.2401   25.6853 C.3     1  UNL1        0.1451
     31 C          -7.8788  -16.1243   26.8908 C.3     1  UNL1        0.2921
     32 O          -7.1520  -15.7735   28.1552 O.3     1  UNL1       -0.3498
     33 O          -8.7279  -17.3594   26.8318 O.3     1  UNL1       -0.4521
     34 H          -6.6534  -14.9518   28.0242 H       1  UNL1        0.2141
@<TRIPOS>BOND
     1    18    19    1
     2    19    17    1
     3    17    16    1
     4    16    15    1
     5    15     8    1
     6     8     9   ar
     7     9    10   ar
     8    10     7    1
     9     7     1    1
    10     1     2    1
    11     2     3    1
    12     3     4    1
    13     4    20    1
    14    20    21    1
    15    21    22    1
    16    22    23   ar
    17    23    24   ar
    18    24    25   ar
    19    25    26   ar
    20    26    27   ar
    21    26    28    1
    22    28    29    2
    23    28    30    1
    24    30    31    1
    25    31    32    1
    26    31    33    1
    27     4     5    1
    28     5     6    1
    29    10    11   ar
    30    11    12   ar
    31    12    13   ar
    32    13    14    1
    33    13     8   ar
    34     6     1    1
    35    27    22   ar
    36    33    25    1
    37    32    34    1
@<TRIPOS>MOLECULE
*****
 34 37 0 0 0
SMALL
GASTEIGER

@<TRIPOS>ATOM
      1 C          -0.5445    3.1183   26.1282 C.3     1  UNL1        0.0071
      2 C          -0.5853    1.6353   25.9068 C.3     1  UNL1        0.0177
      3 C           0.6586    0.9036   25.4979 C.3     1  UNL1        0.0721
      4 N           1.9433    1.6549   25.3103 N.3     1  UNL1       -0.2724
      5 C           1.9840    3.1379   25.5317 C.3     1  UNL1        0.0721
      6 C           0.7401    3.8696   25.9406 C.3     1  UNL1        0.0177
      7 C          -1.7885    3.8501   26.5371 C.3     1  UNL1        0.0265
      8 C          -3.9532    3.7557   23.2122 C.ar    1  UNL1        0.1445
      9 C          -2.7734    3.7069   24.1372 C.ar    1  UNL1        0.0331
     10 C          -2.9683    3.8989   25.6121 C.ar    1  UNL1       -0.0191
     11 C          -4.3429    4.1395   26.1620 C.ar    1  UNL1       -0.0036
     12 C          -5.5228    4.1883   25.2370 C.ar    1  UNL1        0.0094
     13 C          -5.3280    3.9964   23.7621 C.ar    1  UNL1        0.0684
     14 BR         -6.5078    4.0451   22.8371 Br      1  UNL1       -0.0458
     15 O          -3.7584    3.5638   21.7374 O.3     1  UNL1       -0.4723
     16 C          -3.2655    4.7004   20.8918 C.3     1  UNL1        0.2373
     17 C          -3.7073    4.8191   19.4633 C.3     1  UNL1        0.1894
     18 C          -5.8141    3.3999   18.9177 C.3     1  UNL1        0.1743
     19 O          -4.3415    3.6472   18.7746 O.3     1  UNL1       -0.3471
     20 C           3.1872    0.9232   24.9014 C.3     1  UNL1        0.0768
     21 C           3.1042   -0.5071   24.4571 C.3     1  UNL1        0.0437
     22 C           3.3327   -0.8596   23.0171 C.ar    1  UNL1       -0.0205
     23 C           4.0460   -2.1299   22.6600 C.ar    1  UNL1       -0.0011
     24 C           4.2744   -2.4824   21.2200 C.ar    1  UNL1        0.0368
     25 C           3.7896   -1.5646   20.1372 C.ar    1  UNL1        0.1440
     26 C           3.0763   -0.2943   20.4943 C.ar    1  UNL1        0.0686
     27 C           2.8479    0.0582   21.9343 C.ar    1  UNL1        0.0017
     28 C           2.5915    0.6235   19.4114 C.2     1  UNL1        0.1823
     29 O           1.8782    1.8938   19.7686 O.2     1  UNL1       -0.2910
     30 C           2.8199    0.2710   17.9715 C.3     1  UNL1        0.1451
     31 C           3.5332   -0.9993   17.6143 C.3     1  UNL1        0.2921
     32 O           3.7617   -1.3518   16.1743 O.3     1  UNL1       -0.3498
     33 O           4.0181   -1.9171   18.6972 O.3     1  UNL1       -0.4521
     34 H           3.3892   -0.6575   15.6085 H       1  UNL1        0.2141
@<TRIPOS>BOND
     1    18    19    1
     2    19    17    1
     3    17    16    1
     4    16    15    1
     5    15     8    1
     6     8     9   ar
     7     9    10   ar
     8    10     7    1
     9     7     1    1
    10     1     2    1
    11     2     3    1
    12     3     4    1
    13     4    20    1
    14    20    21    1
    15    21    22    1
    16    22    23   ar
    17    23    24   ar
    18    24    25   ar
    19    25    26   ar
    20    26    27   ar
    21    26    28    1
    22    28    29    2
    23    28    30    1
    24    30    31    1
    25    31    32    1
    26    31    33    1
    27     4     5    1
    28     5     6    1
    29    10    11   ar
    30    11    12   ar
    31    12    13   ar
    32    13    14    1
    33    13     8   ar
    34     6     1    1
    35    27    22   ar
    36    33    25    1
    37    32    34    1
@<TRIPOS>MOLECULE
*****
 34 37 0 0 0
SMALL
GASTEIGER

@<TRIPOS>ATOM
      1 C           1.0117    1.7480   20.3303 C.3     1  UNL1        0.0071
      2 C           0.6015    3.1630   20.6121 C.3     1  UNL1        0.0177
      3 C           0.2996    3.5906   22.0177 C.3     1  UNL1        0.0721
      4 N           0.4080    2.6032   23.1417 N.3     1  UNL1       -0.2724
      5 C           0.8182    1.1882   22.8600 C.3     1  UNL1        0.0721
      6 C           1.1201    0.7606   21.4543 C.3     1  UNL1        0.0177
      7 C           1.3136    1.3203   18.9246 C.3     1  UNL1        0.0265
      8 C           4.7307   -0.2526   17.6600 C.ar    1  UNL1        0.1445
      9 C           3.3076   -0.1379   18.1198 C.ar    1  UNL1        0.0331
     10 C           2.7368    1.2057   18.4648 C.ar    1  UNL1       -0.0191
     11 C           3.5892    2.4346   18.3500 C.ar    1  UNL1       -0.0036
     12 C           5.0124    2.3200   17.8902 C.ar    1  UNL1        0.0094
     13 C           5.5832    0.9764   17.5452 C.ar    1  UNL1        0.0684
     14 BR          7.0063    0.8617   17.0854 Br      1  UNL1       -0.0458
     15 O           5.3015   -1.5961   17.3150 O.3     1  UNL1       -0.4723
     16 C           4.9618   -2.7929   18.1529 C.3     1  UNL1        0.2373
     17 C           5.7418   -3.0800   19.4016 C.3     1  UNL1        0.1894
     18 C           7.2518   -1.1628   20.2928 C.3     1  UNL1        0.1743
     19 O           7.1034   -2.4797   19.5901 O.3     1  UNL1       -0.3471
     20 C           0.1061    3.0308   24.5474 C.3     1  UNL1        0.0768
     21 C          -0.7883    2.1916   25.4110 C.3     1  UNL1        0.0437
     22 C          -0.2497    1.5652   26.6630 C.ar    1  UNL1       -0.0205
     23 C          -1.1514    1.3509   27.8423 C.ar    1  UNL1       -0.0011
     24 C          -0.6127    0.7245   29.0942 C.ar    1  UNL1        0.0368
     25 C           0.8278    0.3123   29.1668 C.ar    1  UNL1        0.1440
     26 C           1.7295    0.5266   27.9874 C.ar    1  UNL1        0.0686
     27 C           1.1908    1.1530   26.7355 C.ar    1  UNL1        0.0017
     28 C           3.1699    0.1144   28.0600 C.2     1  UNL1        0.1823
     29 O           4.0716    0.3286   26.8806 O.2     1  UNL1       -0.2910
     30 C           3.7086   -0.5121   29.3119 C.3     1  UNL1        0.1451
     31 C           2.8069   -0.7263   30.4913 C.3     1  UNL1        0.2921
     32 O           3.3456   -1.3528   31.7432 O.3     1  UNL1       -0.3498
     33 O           1.3665   -0.3142   30.4188 O.3     1  UNL1       -0.4521
     34 H           4.2862   -1.5575   31.6235 H       1  UNL1        0.2141
@<TRIPOS>BOND
     1    18    19    1
     2    19    17    1
     3    17    16    1
     4    16    15    1
     5    15     8    1
     6     8     9   ar
     7     9    10   ar
     8    10     7    1
     9     7     1    1
    10     1     2    1
    11     2     3    1
    12     3     4    1
    13     4    20    1
    14    20    21    1
    15    21    22    1
    16    22    23   ar
    17    23    24   ar
    18    24    25   ar
    19    25    26   ar
    20    26    27   ar
    21    26    28    1
    22    28    29    2
    23    28    30    1
    24    30    31    1
    25    31    32    1
    26    31    33    1
    27     4     5    1
    28     5     6    1
    29    10    11   ar
    30    11    12   ar
    31    12    13   ar
    32    13    14    1
    33    13     8   ar
    34     6     1    1
    35    27    22   ar
    36    33    25    1
    37    32    34    1
