@<TRIPOS>MOLECULE
*****
 31 33 0 0 0
SMALL
GASTEIGER

@<TRIPOS>ATOM
      1 N          -8.9380  -18.9702   21.5510 N.3     1  UNL1       -0.1591
      2 C          -8.7231  -19.3339   20.1117 C.3     1  UNL1        0.0991
      3 C          -7.4289  -19.9581   19.6812 C.3     1  UNL1        0.0627
      4 C          -6.3497  -20.2187   20.6899 C.3     1  UNL1        0.1688
      5 C          -6.5647  -19.8550   22.1291 C.3     1  UNL1        0.0627
      6 C          -7.8588  -19.2308   22.5597 C.3     1  UNL1        0.0991
      7 S         -10.2323  -18.3460   21.9816 S.O2    1  UNL1        0.0459
      8 O         -10.9004  -19.6875   21.9182 O.2     1  UNL1       -0.1572
      9 O          -9.5642  -17.0045   22.0451 O.2     1  UNL1       -0.1572
     10 C         -11.5264  -17.7218   22.4122 C.3     1  UNL1        0.1958
     11 C         -10.7266  -18.2437   24.1778 C.3     1  UNL1        0.0310
     12 C         -12.1489  -18.1122   23.7199 C.3     1  UNL1        0.1509
     13 N         -12.4740  -18.5301   25.1233 N.am    1  UNL1       -0.2825
     14 C         -13.9672  -18.5753   25.2594 C.2     1  UNL1        0.3068
     15 O         -14.7289  -18.9455   26.4974 O.2     1  UNL1       -0.2524
     16 N         -14.5649  -18.1853   23.9400 N.am    1  UNL1       -0.2383
     17 C         -13.4411  -17.8991   22.9886 C.2     1  UNL1        0.2469
     18 O         -13.5844  -17.4744   21.5572 O.2     1  UNL1       -0.2729
     19 H         -11.8219  -18.7383   25.8309 H       1  UNL1        0.1514
     20 H         -15.5260  -18.1273   23.7346 H       1  UNL1        0.1591
     21 O          -5.0555  -20.8429   20.2593 O.3     1  UNL1       -0.4791
     22 C          -3.8019  -20.0200   20.2212 C.ar    1  UNL1        0.1384
     23 C          -3.5024  -19.1643   19.0262 C.ar    1  UNL1        0.0368
     24 C          -2.2488  -18.3414   18.9882 C.ar    1  UNL1        0.0070
     25 C          -1.2948  -18.3742   20.1452 C.ar    1  UNL1        0.0716
     26 C          -1.5943  -19.2299   21.3403 C.ar    1  UNL1        0.0070
     27 C          -2.8478  -20.0528   21.3783 C.ar    1  UNL1        0.0368
     28 C          -0.0413  -17.5513   20.1072 C.3     1  UNL1        0.4186
     29 F           1.2123  -16.7284   20.0692 F       1  UNL1       -0.1659
     30 F          -0.8319  -16.3301   20.4723 F       1  UNL1       -0.1659
     31 F           0.7493  -18.7726   19.7421 F       1  UNL1       -0.1659
@<TRIPOS>BOND
     1    12    11    1
     2    12    10    1
     3    10     7    1
     4     7     8    2
     5     7     9    2
     6     7     1    1
     7     1     2    1
     8     2     3    1
     9     3     4    1
    10     4    21    1
    11    21    22    1
    12    22    23   ar
    13    23    24   ar
    14    24    25   ar
    15    25    28    1
    16    28    29    1
    17    28    30    1
    18    28    31    1
    19    25    26   ar
    20    26    27   ar
    21     4     5    1
    22     5     6    1
    23    12    13    1
    24    13    14   am
    25    14    15    2
    26    14    16   am
    27    16    17   am
    28    17    18    2
    29    17    12    1
    30     6     1    1
    31    27    22   ar
    32    13    19    1
    33    16    20    1
@<TRIPOS>MOLECULE
*****
 31 33 0 0 0
SMALL
GASTEIGER

@<TRIPOS>ATOM
      1 N          -8.5044  -17.2692   23.1097 N.3     1  UNL1       -0.1591
      2 C          -7.4064  -18.1306   22.5598 C.3     1  UNL1        0.0991
      3 C          -5.9754  -17.7050   22.7047 C.3     1  UNL1        0.0627
      4 C          -5.6424  -16.4180   23.3996 C.3     1  UNL1        0.1688
      5 C          -6.7404  -15.5567   23.9495 C.3     1  UNL1        0.0627
      6 C          -8.1714  -15.9823   23.8046 C.3     1  UNL1        0.0991
      7 S          -9.9355  -17.6949   22.9647 S.O2    1  UNL1        0.0459
      8 O          -9.4992  -18.8925   22.1740 O.2     1  UNL1       -0.1572
      9 O         -10.3718  -16.4972   23.7554 O.2     1  UNL1       -0.1572
     10 C         -11.3665  -18.1205   22.8197 C.3     1  UNL1        0.1958
     11 C         -10.8872  -19.1116   24.4983 C.3     1  UNL1        0.0310
     12 C         -12.1679  -18.4831   24.0347 C.3     1  UNL1        0.1509
     13 N         -12.7015  -18.9772   25.3466 N.am    1  UNL1       -0.2825
     14 C         -14.1445  -18.5782   25.4398 C.2     1  UNL1        0.3068
     15 O         -15.0674  -18.8689   26.5861 O.2     1  UNL1       -0.2524
     16 N         -14.5027  -17.8377   24.1855 N.am    1  UNL1       -0.2383
     17 C         -13.2810  -17.7789   23.3171 C.2     1  UNL1        0.2469
     18 O         -13.1888  -17.1298   21.9680 O.2     1  UNL1       -0.2729
     19 H         -12.1938  -19.4757   26.0270 H       1  UNL1        0.1514
     20 H         -15.3847  -17.4570   23.9701 H       1  UNL1        0.1591
     21 O          -4.2113  -15.9924   23.5446 O.3     1  UNL1       -0.4791
     22 C          -3.1513  -16.6227   22.6909 C.ar    1  UNL1        0.1384
     23 C          -2.8679  -18.0910   22.8091 C.ar    1  UNL1        0.0368
     24 C          -1.8077  -18.7213   21.9554 C.ar    1  UNL1        0.0070
     25 C          -1.0310  -17.8834   20.9835 C.ar    1  UNL1        0.0716
     26 C          -1.3144  -16.4152   20.8653 C.ar    1  UNL1        0.0070
     27 C          -2.3745  -15.7848   21.7190 C.ar    1  UNL1        0.0368
     28 C           0.0291  -18.5138   20.1298 C.3     1  UNL1        0.4186
     29 F           1.0892  -19.1442   19.2761 F       1  UNL1       -0.1659
     30 F           0.9629  -17.3866   20.4571 F       1  UNL1       -0.1659
     31 F          -0.9048  -19.6410   19.8025 F       1  UNL1       -0.1659
@<TRIPOS>BOND
     1    12    11    1
     2    12    10    1
     3    10     7    1
     4     7     8    2
     5     7     9    2
     6     7     1    1
     7     1     2    1
     8     2     3    1
     9     3     4    1
    10     4    21    1
    11    21    22    1
    12    22    23   ar
    13    23    24   ar
    14    24    25   ar
    15    25    28    1
    16    28    29    1
    17    28    30    1
    18    28    31    1
    19    25    26   ar
    20    26    27   ar
    21     4     5    1
    22     5     6    1
    23    12    13    1
    24    13    14   am
    25    14    15    2
    26    14    16   am
    27    16    17   am
    28    17    18    2
    29    17    12    1
    30     6     1    1
    31    27    22   ar
    32    13    19    1
    33    16    20    1
@<TRIPOS>MOLECULE
*****
 31 33 0 0 0
SMALL
GASTEIGER

@<TRIPOS>ATOM
      1 N           3.0581    0.4918   18.2366 N.3     1  UNL1       -0.1591
      2 C           1.5722    0.3440   18.3791 C.3     1  UNL1        0.0991
      3 C           0.7113    1.5595   18.5557 C.3     1  UNL1        0.0627
      4 C           1.3362    2.9228   18.5899 C.3     1  UNL1        0.1688
      5 C           2.8220    3.0705   18.4474 C.3     1  UNL1        0.0627
      6 C           3.6830    1.8550   18.2708 C.3     1  UNL1        0.0991
      7 S           3.9192   -0.7238   18.0600 S.O2    1  UNL1        0.0459
      8 O           4.3904   -0.5960   19.4783 O.2     1  UNL1       -0.1572
      9 O           3.4479   -0.8516   16.6417 O.2     1  UNL1       -0.1572
     10 C           4.7802   -1.9393   17.8835 C.3     1  UNL1        0.1958
     11 C           3.6715   -2.9669   19.2042 C.3     1  UNL1        0.0310
     12 C           5.1532   -2.7734   19.0730 C.3     1  UNL1        0.1509
     13 N           5.2163   -3.6480   20.2900 N.am    1  UNL1       -0.2825
     14 C           6.6592   -3.8207   20.6622 C.2     1  UNL1        0.3068
     15 O           7.1817   -4.6208   21.8184 O.2     1  UNL1       -0.2524
     16 N           7.4876   -3.0529   19.6753 N.am    1  UNL1       -0.2383
     17 C           6.5569   -2.4056   18.6931 C.2     1  UNL1        0.2469
     18 O           6.9592   -1.5421   17.5345 O.2     1  UNL1       -0.2729
     19 H           4.4461   -4.0399   20.7616 H       1  UNL1        0.1514
     20 H           8.4698   -2.9855   19.6727 H       1  UNL1        0.1591
     21 O           0.4751    4.1383   18.7665 O.3     1  UNL1       -0.4791
     22 C          -1.0185    4.0146   18.7058 C.ar    1  UNL1        0.1384
     23 C          -1.7269    4.1202   17.3878 C.ar    1  UNL1        0.0368
     24 C          -3.2206    3.9965   17.3272 C.ar    1  UNL1        0.0070
     25 C          -4.0059    3.7672   18.5844 C.ar    1  UNL1        0.0716
     26 C          -3.2975    3.6616   19.9024 C.ar    1  UNL1        0.0070
     27 C          -1.8038    3.7853   19.9631 C.ar    1  UNL1        0.0368
     28 C          -5.4995    3.6435   18.5237 C.3     1  UNL1        0.4186
     29 F          -6.9932    3.5198   18.4631 F       1  UNL1       -0.1659
     30 F          -5.5046    4.3532   17.2023 F       1  UNL1       -0.1659
     31 F          -5.4944    2.9338   19.8452 F       1  UNL1       -0.1659
@<TRIPOS>BOND
     1    12    11    1
     2    12    10    1
     3    10     7    1
     4     7     8    2
     5     7     9    2
     6     7     1    1
     7     1     2    1
     8     2     3    1
     9     3     4    1
    10     4    21    1
    11    21    22    1
    12    22    23   ar
    13    23    24   ar
    14    24    25   ar
    15    25    28    1
    16    28    29    1
    17    28    30    1
    18    28    31    1
    19    25    26   ar
    20    26    27   ar
    21     4     5    1
    22     5     6    1
    23    12    13    1
    24    13    14   am
    25    14    15    2
    26    14    16   am
    27    16    17   am
    28    17    18    2
    29    17    12    1
    30     6     1    1
    31    27    22   ar
    32    13    19    1
    33    16    20    1
@<TRIPOS>MOLECULE
*****
 31 33 0 0 0
SMALL
GASTEIGER

@<TRIPOS>ATOM
      1 N          -1.0497    3.2046   19.6413 N.3     1  UNL1       -0.1591
      2 C           0.0255    3.3308   18.6030 C.3     1  UNL1        0.0991
      3 C           1.3887    2.7611   18.8619 C.3     1  UNL1        0.0627
      4 C           1.6768    2.0653   20.1592 C.3     1  UNL1        0.1688
      5 C           0.6016    1.9392   21.1975 C.3     1  UNL1        0.0627
      6 C          -0.7616    2.5088   20.9385 C.3     1  UNL1        0.0991
      7 S          -2.4130    3.7743   19.3824 S.O2    1  UNL1        0.0459
      8 O          -1.8434    4.6467   18.3032 O.2     1  UNL1       -0.1572
      9 O          -2.9825    2.9020   20.4615 O.2     1  UNL1       -0.1572
     10 C          -3.7762    4.3440   19.1234 C.3     1  UNL1        0.1958
     11 C          -3.4422    5.4442   20.7689 C.3     1  UNL1        0.0310
     12 C          -4.6611    4.7239   20.2734 C.3     1  UNL1        0.1509
     13 N          -5.2912    5.2543   21.5270 N.am    1  UNL1       -0.2825
     14 C          -6.7146    4.7824   21.5659 C.2     1  UNL1        0.3068
     15 O          -7.7131    5.0803   22.6449 O.2     1  UNL1       -0.2524
     16 N          -6.9641    3.9603   20.3363 N.am    1  UNL1       -0.2383
     17 C          -5.6950    3.9241   19.5375 C.2     1  UNL1        0.2469
     18 O          -5.4949    3.2131   18.2320 O.2     1  UNL1       -0.2729
     19 H          -4.8484    5.8139   22.2053 H       1  UNL1        0.1514
     20 H          -7.8119    3.5215   20.0957 H       1  UNL1        0.1591
     21 O           3.0401    1.4956   20.4181 O.3     1  UNL1       -0.4791
     22 C           3.3641    0.0977   19.9814 C.ar    1  UNL1        0.1384
     23 C           3.6372   -0.1919   18.5352 C.ar    1  UNL1        0.0368
     24 C           3.9612   -1.5899   18.0984 C.ar    1  UNL1        0.0070
     25 C           4.0122   -2.6982   19.1079 C.ar    1  UNL1        0.0716
     26 C           3.7391   -2.4086   20.5541 C.ar    1  UNL1        0.0070
     27 C           3.4151   -1.0106   20.9909 C.ar    1  UNL1        0.0368
     28 C           4.3362   -4.0961   18.6712 C.3     1  UNL1        0.4186
     29 F           4.6602   -5.4941   18.2344 F       1  UNL1       -0.1659
     30 F           5.7445   -3.6759   18.3712 F       1  UNL1       -0.1659
     31 F           2.9279   -4.5163   18.9712 F       1  UNL1       -0.1659
@<TRIPOS>BOND
     1    12    11    1
     2    12    10    1
     3    10     7    1
     4     7     8    2
     5     7     9    2
     6     7     1    1
     7     1     2    1
     8     2     3    1
     9     3     4    1
    10     4    21    1
    11    21    22    1
    12    22    23   ar
    13    23    24   ar
    14    24    25   ar
    15    25    28    1
    16    28    29    1
    17    28    30    1
    18    28    31    1
    19    25    26   ar
    20    26    27   ar
    21     4     5    1
    22     5     6    1
    23    12    13    1
    24    13    14   am
    25    14    15    2
    26    14    16   am
    27    16    17   am
    28    17    18    2
    29    17    12    1
    30     6     1    1
    31    27    22   ar
    32    13    19    1
    33    16    20    1
@<TRIPOS>MOLECULE
*****
 31 33 0 0 0
SMALL
GASTEIGER

@<TRIPOS>ATOM
      1 N           2.1162    1.0432   31.5051 N.3     1  UNL1       -0.1591
      2 C           3.3160    0.4307   32.1649 C.3     1  UNL1        0.0991
      3 C           3.8260    0.9887   33.4604 C.3     1  UNL1        0.0627
      4 C           3.1363    2.1591   34.0962 C.3     1  UNL1        0.1688
      5 C           1.9365    2.7716   33.4365 C.3     1  UNL1        0.0627
      6 C           1.4265    2.2137   32.1410 C.3     1  UNL1        0.0991
      7 S           1.6061    0.4853   30.2095 S.O2    1  UNL1        0.0459
      8 O           1.9723   -0.8975   30.6609 O.2     1  UNL1       -0.1572
      9 O           1.2400    1.8681   29.7581 O.2     1  UNL1       -0.1572
     10 C           1.0961   -0.0726   28.9140 C.3     1  UNL1        0.1958
     11 C          -0.8259    0.3922   29.2597 C.3     1  UNL1        0.0310
     12 C           0.0893    0.6964   28.1108 C.3     1  UNL1        0.1509
     13 N          -1.1088    1.4018   27.5478 N.am    1  UNL1       -0.2825
     14 C          -0.7235    1.9811   26.2189 C.2     1  UNL1        0.3068
     15 O          -1.6175    2.7694   25.3082 O.2     1  UNL1       -0.2524
     16 N           0.7126    1.6337   25.9606 N.am    1  UNL1       -0.2383
     17 C           1.2150    0.8397   27.1298 C.2     1  UNL1        0.2469
     18 O           2.5999    0.2863   27.2900 O.2     1  UNL1       -0.2729
     19 H          -1.9928    1.4722   27.9754 H       1  UNL1        0.1514
     20 H           1.2340    1.8831   25.1636 H       1  UNL1        0.1591
     21 O           3.6464    2.7170   35.3919 O.3     1  UNL1       -0.4791
     22 C           2.9459    2.3894   36.6771 C.ar    1  UNL1        0.1384
     23 C           1.9644    3.3596   37.2648 C.ar    1  UNL1        0.0368
     24 C           1.2639    3.0319   38.5501 C.ar    1  UNL1        0.0070
     25 C           1.5448    1.7341   39.2476 C.ar    1  UNL1        0.0716
     26 C           2.5262    0.7638   38.6599 C.ar    1  UNL1        0.0070
     27 C           3.2268    1.0915   37.3747 C.ar    1  UNL1        0.0368
     28 C           0.8442    1.4064   40.5329 C.3     1  UNL1        0.4186
     29 F           0.1437    1.0788   41.8182 F       1  UNL1       -0.1659
     30 F           1.0371   -0.0568   40.2650 F       1  UNL1       -0.1659
     31 F           0.6514    2.8696   40.8007 F       1  UNL1       -0.1659
@<TRIPOS>BOND
     1    12    11    1
     2    12    10    1
     3    10     7    1
     4     7     8    2
     5     7     9    2
     6     7     1    1
     7     1     2    1
     8     2     3    1
     9     3     4    1
    10     4    21    1
    11    21    22    1
    12    22    23   ar
    13    23    24   ar
    14    24    25   ar
    15    25    28    1
    16    28    29    1
    17    28    30    1
    18    28    31    1
    19    25    26   ar
    20    26    27   ar
    21     4     5    1
    22     5     6    1
    23    12    13    1
    24    13    14   am
    25    14    15    2
    26    14    16   am
    27    16    17   am
    28    17    18    2
    29    17    12    1
    30     6     1    1
    31    27    22   ar
    32    13    19    1
    33    16    20    1
@<TRIPOS>MOLECULE
*****
 31 33 0 0 0
SMALL
GASTEIGER

@<TRIPOS>ATOM
      1 N           2.9860    1.2619   18.7129 N.3     1  UNL1       -0.1591
      2 C           3.4774    2.6747   18.6000 C.3     1  UNL1        0.0991
      3 C           2.5043    3.7899   18.3568 C.3     1  UNL1        0.0627
      4 C           1.0398    3.4925   18.2265 C.3     1  UNL1        0.1688
      5 C           0.5485    2.0798   18.3393 C.3     1  UNL1        0.0627
      6 C           1.5216    0.9645   18.5825 C.3     1  UNL1        0.0991
      7 S           3.9592    0.1466   18.9561 S.O2    1  UNL1        0.0459
      8 O           2.8691   -0.8561   18.7190 O.2     1  UNL1       -0.1572
      9 O           5.0492    1.1493   19.1932 O.2     1  UNL1       -0.1572
     10 C           4.9322   -0.9688   19.1993 C.3     1  UNL1        0.1958
     11 C           4.0738   -1.4674   20.9441 C.3     1  UNL1        0.0310
     12 C           4.4485   -2.2812   19.7410 C.3     1  UNL1        0.1509
     13 N           3.8865   -3.4235   20.5343 N.am    1  UNL1       -0.2825
     14 C           4.0150   -4.6690   19.7082 C.2     1  UNL1        0.3068
     15 O           3.5787   -6.0455   20.1146 O.2     1  UNL1       -0.2524
     16 N           4.6564   -4.2964   18.4045 N.am    1  UNL1       -0.2383
     17 C           4.9244   -2.8207   18.4247 C.2     1  UNL1        0.2469
     18 O           5.5570   -2.0243   17.3223 O.2     1  UNL1       -0.2729
     19 H           3.5010   -3.3660   21.4383 H       1  UNL1        0.1514
     20 H           4.8650   -4.9123   17.6652 H       1  UNL1        0.1591
     21 O           0.0667    4.6079   17.9832 O.3     1  UNL1       -0.4791
     22 C          -1.4067    4.3597   18.1148 C.ar    1  UNL1        0.1384
     23 C          -2.2560    4.2179   16.8866 C.ar    1  UNL1        0.0368
     24 C          -3.7295    3.9697   17.0182 C.ar    1  UNL1        0.0070
     25 C          -4.3537    3.8634   18.3780 C.ar    1  UNL1        0.0716
     26 C          -3.5043    4.0052   19.6063 C.ar    1  UNL1        0.0070
     27 C          -2.0309    4.2533   19.4747 C.ar    1  UNL1        0.0368
     28 C          -5.8271    3.6152   18.5096 C.3     1  UNL1        0.4186
     29 F          -7.3006    3.3671   18.6411 F       1  UNL1       -0.1659
     30 F          -5.5830    2.8317   19.7652 F       1  UNL1       -0.1659
     31 F          -6.0712    4.3987   17.2540 F       1  UNL1       -0.1659
@<TRIPOS>BOND
     1    12    11    1
     2    12    10    1
     3    10     7    1
     4     7     8    2
     5     7     9    2
     6     7     1    1
     7     1     2    1
     8     2     3    1
     9     3     4    1
    10     4    21    1
    11    21    22    1
    12    22    23   ar
    13    23    24   ar
    14    24    25   ar
    15    25    28    1
    16    28    29    1
    17    28    30    1
    18    28    31    1
    19    25    26   ar
    20    26    27   ar
    21     4     5    1
    22     5     6    1
    23    12    13    1
    24    13    14   am
    25    14    15    2
    26    14    16   am
    27    16    17   am
    28    17    18    2
    29    17    12    1
    30     6     1    1
    31    27    22   ar
    32    13    19    1
    33    16    20    1
@<TRIPOS>MOLECULE
*****
 31 33 0 0 0
SMALL
GASTEIGER

@<TRIPOS>ATOM
      1 N          -1.0377    3.1935   20.9305 N.3     1  UNL1       -0.1591
      2 C           0.1737    2.7852   21.7150 C.3     1  UNL1        0.0991
      3 C           1.4197    2.3533   21.0001 C.3     1  UNL1        0.0627
      4 C           1.4541    2.3297   19.5007 C.3     1  UNL1        0.1688
      5 C           0.2426    2.7381   18.7162 C.3     1  UNL1        0.0627
      6 C          -1.0033    3.1700   19.4311 C.3     1  UNL1        0.0991
      7 S          -2.2837    3.6255   21.6454 S.O2    1  UNL1        0.0459
      8 O          -1.4568    4.4438   22.5921 O.2     1  UNL1       -0.1572
      9 O          -3.1107    2.8071   20.6986 O.2     1  UNL1       -0.1572
     10 C          -3.5296    4.0574   22.3602 C.3     1  UNL1        0.1958
     11 C          -3.4736    5.5778   21.0507 C.3     1  UNL1        0.0310
     12 C          -4.6118    4.7783   21.6124 C.3     1  UNL1        0.1509
     13 N          -5.4559    5.6664   20.7471 N.am    1  UNL1       -0.2825
     14 C          -6.8896    5.2650   20.9304 C.2     1  UNL1        0.3068
     15 O          -8.0736    5.8900   20.2539 O.2     1  UNL1       -0.2524
     16 N          -6.9315    4.1289   21.9090 N.am    1  UNL1       -0.2383
     17 C          -5.5237    3.8281   22.3304 C.2     1  UNL1        0.2469
     18 O          -5.1019    2.7640   23.2998 O.2     1  UNL1       -0.2729
     19 H          -5.1269    6.3863   20.1617 H       1  UNL1        0.1514
     20 H          -7.7408    3.6626   22.2200 H       1  UNL1        0.1591
     21 O           2.7001    1.8978   18.7858 O.3     1  UNL1       -0.4791
     22 C           3.0871    0.4488   18.7622 C.ar    1  UNL1        0.1384
     23 C           2.5589   -0.4858   19.8098 C.ar    1  UNL1        0.0368
     24 C           2.9460   -1.9348   19.7861 C.ar    1  UNL1        0.0070
     25 C           3.8613   -2.4492   18.7149 C.ar    1  UNL1        0.0716
     26 C           4.3895   -1.5146   17.6672 C.ar    1  UNL1        0.0070
     27 C           4.0024   -0.0656   17.6909 C.ar    1  UNL1        0.0368
     28 C           4.2483   -3.8982   18.6912 C.3     1  UNL1        0.4186
     29 F           4.6354   -5.3472   18.6676 F       1  UNL1       -0.1659
     30 F           2.9351   -4.2592   19.3196 F       1  UNL1       -0.1659
     31 F           5.5616   -3.5371   18.0628 F       1  UNL1       -0.1659
@<TRIPOS>BOND
     1    12    11    1
     2    12    10    1
     3    10     7    1
     4     7     8    2
     5     7     9    2
     6     7     1    1
     7     1     2    1
     8     2     3    1
     9     3     4    1
    10     4    21    1
    11    21    22    1
    12    22    23   ar
    13    23    24   ar
    14    24    25   ar
    15    25    28    1
    16    28    29    1
    17    28    30    1
    18    28    31    1
    19    25    26   ar
    20    26    27   ar
    21     4     5    1
    22     5     6    1
    23    12    13    1
    24    13    14   am
    25    14    15    2
    26    14    16   am
    27    16    17   am
    28    17    18    2
    29    17    12    1
    30     6     1    1
    31    27    22   ar
    32    13    19    1
    33    16    20    1
@<TRIPOS>MOLECULE
*****
 31 33 0 0 0
SMALL
GASTEIGER

@<TRIPOS>ATOM
      1 N           1.2981    1.7633   19.0235 N.3     1  UNL1       -0.1591
      2 C           0.6585    1.4805   20.3504 C.3     1  UNL1        0.0991
      3 C          -0.5847    2.2156   20.7556 C.3     1  UNL1        0.0627
      4 C          -1.1882    3.2335   19.8338 C.3     1  UNL1        0.1688
      5 C          -0.5486    3.5163   18.5068 C.3     1  UNL1        0.0627
      6 C           0.6946    2.7812   18.1017 C.3     1  UNL1        0.0991
      7 S           2.5413    1.0282   18.6182 S.O2    1  UNL1        0.0459
      8 O           3.1756    2.3252   18.2117 O.2     1  UNL1       -0.1572
      9 O           1.9069   -0.2688   19.0248 O.2     1  UNL1       -0.1572
     10 C           3.7844    0.2931   18.2130 C.3     1  UNL1        0.1958
     11 C           4.1857    0.0688   20.1671 C.3     1  UNL1        0.0310
     12 C           4.2525   -0.8865   19.0126 C.3     1  UNL1        0.1509
     13 N           4.7066   -1.8665   20.0535 N.am    1  UNL1       -0.2825
     14 C           4.9562   -3.1809   19.3751 C.2     1  UNL1        0.3068
     15 O           5.4236   -4.4416   20.0401 O.2     1  UNL1       -0.2524
     16 N           4.6564   -3.0132   17.9149 N.am    1  UNL1       -0.2383
     17 C           4.2214   -1.5953   17.6909 C.2     1  UNL1        0.2469
     18 O           3.8251   -0.9920   16.3760 O.2     1  UNL1       -0.2729
     19 H           4.8208   -1.6798   21.0133 H       1  UNL1        0.1514
     20 H           4.7318   -3.7113   17.2248 H       1  UNL1        0.1591
     21 O          -2.4314    3.9686   20.2390 O.3     1  UNL1       -0.4791
     22 C          -2.8704    3.9659   21.6733 C.ar    1  UNL1        0.1384
     23 C          -2.0485    4.6719   22.7106 C.ar    1  UNL1        0.0368
     24 C          -2.4876    4.6692   24.1450 C.ar    1  UNL1        0.0070
     25 C          -3.7485    3.9605   24.5419 C.ar    1  UNL1        0.0716
     26 C          -4.5705    3.2544   23.5047 C.ar    1  UNL1        0.0070
     27 C          -4.1314    3.2571   22.0704 C.ar    1  UNL1        0.0368
     28 C          -4.1876    3.9578   25.9762 C.3     1  UNL1        0.4186
     29 F          -4.6267    3.9551   27.4106 F       1  UNL1       -0.1659
     30 F          -2.7741    3.7024   26.4084 F       1  UNL1       -0.1659
     31 F          -5.6010    4.2131   25.5440 F       1  UNL1       -0.1659
@<TRIPOS>BOND
     1    12    11    1
     2    12    10    1
     3    10     7    1
     4     7     8    2
     5     7     9    2
     6     7     1    1
     7     1     2    1
     8     2     3    1
     9     3     4    1
    10     4    21    1
    11    21    22    1
    12    22    23   ar
    13    23    24   ar
    14    24    25   ar
    15    25    28    1
    16    28    29    1
    17    28    30    1
    18    28    31    1
    19    25    26   ar
    20    26    27   ar
    21     4     5    1
    22     5     6    1
    23    12    13    1
    24    13    14   am
    25    14    15    2
    26    14    16   am
    27    16    17   am
    28    17    18    2
    29    17    12    1
    30     6     1    1
    31    27    22   ar
    32    13    19    1
    33    16    20    1
@<TRIPOS>MOLECULE
*****
 31 33 0 0 0
SMALL
GASTEIGER

@<TRIPOS>ATOM
      1 N           3.0539    0.4530   18.3099 N.3     1  UNL1       -0.1591
      2 C           3.6480    1.8298   18.3487 C.3     1  UNL1        0.0991
      3 C           2.7659    3.0210   18.5784 C.3     1  UNL1        0.0627
      4 C           1.2897    2.8355   18.7693 C.3     1  UNL1        0.1688
      5 C           0.6956    1.4587   18.7305 C.3     1  UNL1        0.0627
      6 C           1.5777    0.2675   18.5008 C.3     1  UNL1        0.0991
      7 S           3.9360   -0.7383   18.0803 S.O2    1  UNL1        0.0459
      8 O           3.4246   -0.8459   16.6743 O.2     1  UNL1       -0.1572
      9 O           4.4474   -0.6307   19.4863 O.2     1  UNL1       -0.1572
     10 C           4.8181   -1.9296   17.8506 C.3     1  UNL1        0.1958
     11 C           3.7475   -3.0488   19.1276 C.3     1  UNL1        0.0310
     12 C           5.2213   -2.7980   19.0052 C.3     1  UNL1        0.1509
     13 N           5.3164   -3.7189   20.1854 N.am    1  UNL1       -0.2825
     14 C           6.7648   -3.8556   20.5511 C.2     1  UNL1        0.3068
     15 O           7.3163   -4.6834   21.6738 O.2     1  UNL1       -0.2524
     16 N           7.5647   -3.0193   19.5968 N.am    1  UNL1       -0.2383
     17 C           6.6109   -2.3657   18.6414 C.2     1  UNL1        0.2469
     18 O           6.9814   -1.4419   17.5193 O.2     1  UNL1       -0.2729
     19 H           4.5609   -4.1566   20.6402 H       1  UNL1        0.1514
     20 H           8.5439   -2.9173   19.5974 H       1  UNL1        0.1591
     21 O           0.4075    4.0268   18.9989 O.3     1  UNL1       -0.4791
     22 C          -0.8774    3.8735   19.7574 C.ar    1  UNL1        0.1384
     23 C          -2.1861    3.8773   19.0243 C.ar    1  UNL1        0.0368
     24 C          -3.4711    3.7240   19.7829 C.ar    1  UNL1        0.0070
     25 C          -3.4474    3.5668   21.2744 C.ar    1  UNL1        0.0716
     26 C          -2.1387    3.5630   22.0075 C.ar    1  UNL1        0.0070
     27 C          -0.8538    3.7163   21.2490 C.ar    1  UNL1        0.0368
     28 C          -4.7324    3.4135   22.0328 C.3     1  UNL1        0.4186
     29 F          -6.0174    3.2601   22.7914 F       1  UNL1       -0.1659
     30 F          -5.5057    3.6186   20.7641 F       1  UNL1       -0.1659
     31 F          -3.9590    3.2084   23.3016 F       1  UNL1       -0.1659
@<TRIPOS>BOND
     1    12    11    1
     2    12    10    1
     3    10     7    1
     4     7     8    2
     5     7     9    2
     6     7     1    1
     7     1     2    1
     8     2     3    1
     9     3     4    1
    10     4    21    1
    11    21    22    1
    12    22    23   ar
    13    23    24   ar
    14    24    25   ar
    15    25    28    1
    16    28    29    1
    17    28    30    1
    18    28    31    1
    19    25    26   ar
    20    26    27   ar
    21     4     5    1
    22     5     6    1
    23    12    13    1
    24    13    14   am
    25    14    15    2
    26    14    16   am
    27    16    17   am
    28    17    18    2
    29    17    12    1
    30     6     1    1
    31    27    22   ar
    32    13    19    1
    33    16    20    1
