@<TRIPOS>MOLECULE
*****
 43 47 0 0 0
SMALL
GASTEIGER

@<TRIPOS>ATOM
      1 C           0.2174    3.1567   21.9742 C.2     1  UNL1        0.2435
      2 O           0.7732    3.3387   23.3555 O.2     1  UNL1       -0.2731
      3 N          -1.2269    3.4560   21.7015 N.am    1  UNL1       -0.2781
      4 C          -2.1154    3.9372   22.8101 C.3     1  UNL1        0.0956
      5 C          -3.5597    4.2365   22.5373 C.3     1  UNL1        0.0490
      6 C          -4.1155    4.0545   21.1560 C.3     1  UNL1        0.1377
      7 C          -3.2270    3.5732   20.0475 C.3     1  UNL1        0.0490
      8 C          -1.7828    3.2740   20.3202 C.3     1  UNL1        0.0956
      9 C          -4.8091    3.9206   19.8328 C.2     1  UNL1        0.2491
     10 O          -4.1801    3.4639   18.5499 O.2     1  UNL1       -0.2727
     11 N          -6.2422    4.3236   20.0176 N.am    1  UNL1       -0.2108
     12 C          -7.2977    4.3406   18.9520 C.3     1  UNL1        0.1245
     13 C          -6.4342    4.7065   21.4552 C.2     1  UNL1        0.3168
     14 O          -7.7155    5.1737   22.0795 O.2     1  UNL1       -0.2516
     15 N          -5.1199    4.5402   22.1587 N.am    1  UNL1       -0.2411
     16 C          -4.8563    4.8119   23.6101 C.2     1  UNL1        0.0376
     17 C          -4.9893    3.7074   24.6162 C.2     1  UNL1        0.0125
     18 C          -4.7256    3.9791   26.0676 C.2     1  UNL1        0.0216
     19 C          -4.3288    5.3555   26.5130 C.2     1  UNL1        0.1008
     20 N          -4.0073    5.9191   27.8654 N.2     1  UNL1       -0.1482
     21 N          -3.6755    7.3719   27.6951 N.2     1  UNL1       -0.1467
     22 C          -3.7920    7.7063   26.2375 C.2     1  UNL1        0.1198
     23 C          -4.1958    6.4600   25.5069 C.2     1  UNL1        0.0238
     24 C          -4.4595    6.1883   24.0555 C.3     1  UNL1        0.0710
     25 C           1.1059    2.6754   20.8656 C.3     1  UNL1        0.1489
     26 N           2.0711    1.5538   21.1113 N.am    1  UNL1       -0.2947
     27 C           1.6131    0.1304   20.9918 C.2     1  UNL1        0.2483
     28 O           0.1900   -0.1713   20.6265 O.2     1  UNL1       -0.2701
     29 H           3.0053    1.7519   21.3510 H       1  UNL1        0.1501
     30 C           2.5784   -0.9912   21.2375 C.ar    1  UNL1        0.0807
     31 C           2.9527   -1.9173   20.1183 C.ar    1  UNL1        0.0106
     32 C           3.9179   -3.0388   20.3640 C.ar    1  UNL1        0.0717
     33 C           4.5089   -3.2343   21.7288 C.ar    1  UNL1        0.0062
     34 C           4.1346   -2.3082   22.8479 C.ar    1  UNL1        0.0297
     35 C           3.1694   -1.1867   22.6022 C.ar    1  UNL1        0.1444
     36 F           2.7951   -0.2606   23.7212 F       1  UNL1       -0.2040
     37 C           4.2922   -3.9649   19.2450 C.3     1  UNL1        0.4186
     38 F           4.6665   -4.8910   18.1259 F       1  UNL1       -0.1659
     39 F           5.7379   -3.6154   19.4393 F       1  UNL1       -0.1659
     40 F           2.8465   -4.3144   19.0507 F       1  UNL1       -0.1659
     41 C           0.7187    2.4817   18.3039 C.3     1  UNL1        0.0022
     42 C           1.0292    3.3157   19.5113 C.3     1  UNL1        0.0269
     43 C           1.2629    4.7901   19.3644 C.3     1  UNL1        0.0022
@<TRIPOS>BOND
     1    41    42    1
     2    42    43    1
     3    42    25    1
     4    25    26    1
     5    26    27   am
     6    27    28    2
     7    27    30    1
     8    30    31   ar
     9    31    32   ar
    10    32    37    1
    11    37    38    1
    12    37    39    1
    13    37    40    1
    14    32    33   ar
    15    33    34   ar
    16    34    35   ar
    17    35    36    1
    18    25     1    1
    19     1     2    2
    20     1     3   am
    21     3     4    1
    22     4     5    1
    23     5     6    1
    24     6     7    1
    25     7     8    1
    26     6     9    1
    27     9    10    2
    28     9    11   am
    29    11    12    1
    30    11    13   am
    31    13    14    2
    32    13    15   am
    33    15    16    1
    34    16    17    2
    35    17    18    1
    36    18    19    2
    37    19    20    1
    38    20    21    2
    39    21    22    1
    40    22    23    2
    41    23    24    1
    42    35    30   ar
    43     8     3    1
    44    24    16    1
    45    15     6    1
    46    23    19    1
    47    26    29    1
@<TRIPOS>MOLECULE
*****
 43 47 0 0 0
SMALL
GASTEIGER

@<TRIPOS>ATOM
      1 C           2.1484    2.2894   22.5623 C.2     1  UNL1        0.2435
      2 O           3.2863    1.9694   23.4858 O.2     1  UNL1       -0.2731
      3 N           0.8043    2.6471   23.1243 N.am    1  UNL1       -0.2781
      4 C           0.5983    2.6849   24.6095 C.3     1  UNL1        0.0956
      5 C          -0.7457    3.0426   25.1714 C.3     1  UNL1        0.0490
      6 C          -1.8836    3.3626   24.2479 C.3     1  UNL1        0.1377
      7 C          -1.6776    3.3248   22.7627 C.3     1  UNL1        0.0490
      8 C          -0.3336    2.9671   22.2008 C.3     1  UNL1        0.0956
      9 C          -3.1089    3.7047   23.4531 C.2     1  UNL1        0.2491
     10 O          -3.2052    3.7491   21.9569 O.2     1  UNL1       -0.2727
     11 N          -4.2209    3.9946   24.4173 N.am    1  UNL1       -0.2108
     12 C          -5.6244    4.3797   24.0544 C.3     1  UNL1        0.1245
     13 C          -3.6828    3.8316   25.8080 C.2     1  UNL1        0.3168
     14 O          -4.4539    4.0252   27.0799 O.2     1  UNL1       -0.2516
     15 N          -2.2384    3.4410   25.7033 N.am    1  UNL1       -0.2411
     16 C          -1.3114    3.1755   26.8523 C.2     1  UNL1        0.0376
     17 C          -0.5692    4.3097   27.4948 C.2     1  UNL1        0.0125
     18 C           0.3578    4.0440   28.6437 C.2     1  UNL1        0.0216
     19 C           0.5427    2.6443   29.1502 C.2     1  UNL1        0.1008
     20 N           1.3826    2.0803   30.2577 N.2     1  UNL1       -0.1482
     21 N           1.1595    0.5977   30.2997 N.2     1  UNL1       -0.1467
     22 C           0.1817    0.2452   29.2181 C.2     1  UNL1        0.1198
     23 C          -0.1995    1.5101   28.5077 C.2     1  UNL1        0.0238
     24 C          -1.1265    1.7757   27.3588 C.3     1  UNL1        0.0710
     25 C           2.3544    2.2516   21.0771 C.3     1  UNL1        0.1489
     26 N           2.7231    0.9631   20.4035 N.am    1  UNL1       -0.2947
     27 C           4.1596    0.5366   20.3355 C.2     1  UNL1        0.2483
     28 O           5.2274    1.3986   20.9410 O.2     1  UNL1       -0.2701
     29 H           2.0222    0.3973   20.0061 H       1  UNL1        0.1501
     30 C           4.5283   -0.7520   19.6619 C.ar    1  UNL1        0.0807
     31 C           3.8975   -2.0382   20.1070 C.ar    1  UNL1        0.0106
     32 C           4.2662   -3.3267   19.4335 C.ar    1  UNL1        0.0717
     33 C           5.2656   -3.3292   18.3148 C.ar    1  UNL1        0.0062
     34 C           5.8963   -2.0430   17.8698 C.ar    1  UNL1        0.0297
     35 C           5.5276   -0.7545   18.5434 C.ar    1  UNL1        0.1444
     36 F           6.1583    0.5317   18.0983 F       1  UNL1       -0.2040
     37 C           3.6355   -4.6129   19.8785 C.3     1  UNL1        0.4186
     38 F           3.0048   -5.8991   20.3235 F       1  UNL1       -0.1659
     39 F           2.8256   -4.6523   18.6166 F       1  UNL1       -0.1659
     40 F           4.4455   -4.5734   21.1404 F       1  UNL1       -0.1659
     41 C           1.5610    3.4377   18.9060 C.3     1  UNL1        0.0022
     42 C           2.1918    3.5025   20.2653 C.3     1  UNL1        0.0269
     43 C           2.6601    4.8181   20.8129 C.3     1  UNL1        0.0022
@<TRIPOS>BOND
     1    41    42    1
     2    42    43    1
     3    42    25    1
     4    25    26    1
     5    26    27   am
     6    27    28    2
     7    27    30    1
     8    30    31   ar
     9    31    32   ar
    10    32    37    1
    11    37    38    1
    12    37    39    1
    13    37    40    1
    14    32    33   ar
    15    33    34   ar
    16    34    35   ar
    17    35    36    1
    18    25     1    1
    19     1     2    2
    20     1     3   am
    21     3     4    1
    22     4     5    1
    23     5     6    1
    24     6     7    1
    25     7     8    1
    26     6     9    1
    27     9    10    2
    28     9    11   am
    29    11    12    1
    30    11    13   am
    31    13    14    2
    32    13    15   am
    33    15    16    1
    34    16    17    2
    35    17    18    1
    36    18    19    2
    37    19    20    1
    38    20    21    2
    39    21    22    1
    40    22    23    2
    41    23    24    1
    42    35    30   ar
    43     8     3    1
    44    24    16    1
    45    15     6    1
    46    23    19    1
    47    26    29    1
@<TRIPOS>MOLECULE
*****
 43 47 0 0 0
SMALL
GASTEIGER

@<TRIPOS>ATOM
      1 C           5.9890   -0.0166   25.5260 C.2     1  UNL1        0.2435
      2 O           5.9805    0.9549   24.3831 O.2     1  UNL1       -0.2731
      3 N           6.4124   -1.4377   25.2993 N.am    1  UNL1       -0.2781
      4 C           6.8274   -1.8872   23.9298 C.3     1  UNL1        0.0956
      5 C           7.2508   -3.3082   23.7032 C.3     1  UNL1        0.0490
      6 C           7.2592   -4.2797   24.8460 C.3     1  UNL1        0.1377
      7 C           6.8442   -3.8301   26.2156 C.3     1  UNL1        0.0490
      8 C           6.4208   -2.4091   26.4422 C.3     1  UNL1        0.0956
      9 C           7.3182   -5.3587   25.8863 C.2     1  UNL1        0.2491
     10 O           6.9641   -5.2062   27.3359 O.2     1  UNL1       -0.2727
     11 N           7.7934   -6.6172   25.2225 N.am    1  UNL1       -0.2108
     12 C           7.9980   -7.9439   25.8918 C.3     1  UNL1        0.1245
     13 C           8.0282   -6.3158   23.7719 C.2     1  UNL1        0.3168
     14 O           8.5087   -7.2883   22.7360 O.2     1  UNL1       -0.2516
     15 N           7.6980   -4.8713   23.5392 N.am    1  UNL1       -0.2411
     16 C           7.7904   -4.1455   22.2298 C.2     1  UNL1        0.0376
     17 C           9.0795   -3.4963   21.8214 C.2     1  UNL1        0.0125
     18 C           9.1718   -2.7706   20.5119 C.2     1  UNL1        0.0216
     19 C           7.9751   -2.6941   19.6107 C.2     1  UNL1        0.1008
     20 N           7.7670   -2.0530   18.2707 N.2     1  UNL1       -0.1482
     21 N           6.3494   -2.3059   17.8510 N.2     1  UNL1       -0.1467
     22 C           5.6813   -3.1034   18.9315 C.2     1  UNL1        0.1198
     23 C           6.6860   -3.3433   20.0191 C.2     1  UNL1        0.0238
     24 C           6.5937   -4.0690   21.3286 C.3     1  UNL1        0.0710
     25 C           5.5740    0.4330   26.8955 C.3     1  UNL1        0.1489
     26 N           4.1632    0.8784   27.1432 N.am    1  UNL1       -0.2947
     27 C           3.0940   -0.1365   27.4204 C.2     1  UNL1        0.2483
     28 O           3.4355   -1.5967   27.4499 O.2     1  UNL1       -0.2701
     29 H           3.9391    1.8369   27.1239 H       1  UNL1        0.1501
     30 C           1.6832    0.3090   27.6682 C.ar    1  UNL1        0.0807
     31 C           0.9487    1.0911   26.6199 C.ar    1  UNL1        0.0106
     32 C          -0.4621    1.5366   26.8676 C.ar    1  UNL1        0.0717
     33 C          -1.1382    1.2000   28.1636 C.ar    1  UNL1        0.0062
     34 C          -0.4037    0.4179   29.2118 C.ar    1  UNL1        0.0297
     35 C           1.0071   -0.0276   28.9641 C.ar    1  UNL1        0.1444
     36 F           1.7416   -0.8096   30.0123 F       1  UNL1       -0.2040
     37 C          -1.1966    2.3187   25.8195 C.3     1  UNL1        0.4186
     38 F          -1.9312    3.1008   24.7712 F       1  UNL1       -0.1659
     39 F          -0.3181    1.7233   24.7595 F       1  UNL1       -0.1659
     40 F          -2.0752    2.9141   26.8794 F       1  UNL1       -0.1659
     41 C           7.9739    0.9038   27.7721 C.3     1  UNL1        0.0022
     42 C           6.5697    0.4370   28.0174 C.3     1  UNL1        0.0269
     43 C           6.1611   -0.0257   29.3845 C.3     1  UNL1        0.0022
@<TRIPOS>BOND
     1    41    42    1
     2    42    43    1
     3    42    25    1
     4    25    26    1
     5    26    27   am
     6    27    28    2
     7    27    30    1
     8    30    31   ar
     9    31    32   ar
    10    32    37    1
    11    37    38    1
    12    37    39    1
    13    37    40    1
    14    32    33   ar
    15    33    34   ar
    16    34    35   ar
    17    35    36    1
    18    25     1    1
    19     1     2    2
    20     1     3   am
    21     3     4    1
    22     4     5    1
    23     5     6    1
    24     6     7    1
    25     7     8    1
    26     6     9    1
    27     9    10    2
    28     9    11   am
    29    11    12    1
    30    11    13   am
    31    13    14    2
    32    13    15   am
    33    15    16    1
    34    16    17    2
    35    17    18    1
    36    18    19    2
    37    19    20    1
    38    20    21    2
    39    21    22    1
    40    22    23    2
    41    23    24    1
    42    35    30   ar
    43     8     3    1
    44    24    16    1
    45    15     6    1
    46    23    19    1
    47    26    29    1
@<TRIPOS>MOLECULE
*****
 43 47 0 0 0
SMALL
GASTEIGER

@<TRIPOS>ATOM
      1 C           4.6760   -1.2275   25.6802 C.2     1  UNL1        0.2435
      2 O           4.9278   -1.5737   27.1179 O.2     1  UNL1       -0.2731
      3 N           3.5234   -0.3405   25.3131 N.am    1  UNL1       -0.2781
      4 C           2.6226    0.2003   26.3836 C.3     1  UNL1        0.0956
      5 C           1.4700    1.0873   26.0165 C.3     1  UNL1        0.0490
      6 C           1.2183    1.4335   24.5788 C.3     1  UNL1        0.1377
      7 C           2.1191    0.8927   23.5083 C.3     1  UNL1        0.0490
      8 C           3.2717    0.0057   23.8755 C.3     1  UNL1        0.0956
      9 C           0.8440    1.8639   23.1915 C.2     1  UNL1        0.2491
     10 O           1.5566    1.4830   21.9278 O.2     1  UNL1       -0.2727
     11 N          -0.3680    2.7423   23.2898 N.am    1  UNL1       -0.2108
     12 C          -1.0802    3.3938   22.1416 C.3     1  UNL1        0.1245
     13 C          -0.7428    2.8546   24.7379 C.2     1  UNL1        0.3168
     14 O          -1.8955    3.6382   25.2921 O.2     1  UNL1       -0.2516
     15 N           0.2375    2.0458   25.5346 N.am    1  UNL1       -0.2411
     16 C           0.2373    1.8785   27.0252 C.2     1  UNL1        0.0376
     17 C          -0.5259    0.7502   27.6532 C.2     1  UNL1        0.0125
     18 C          -0.5261    0.5830   29.1439 C.2     1  UNL1        0.0216
     19 C           0.2370    1.5441   30.0065 C.2     1  UNL1        0.1008
     20 N           0.4200    1.6313   31.4928 N.2     1  UNL1       -0.1482
     21 N           1.2962    2.8135   31.7832 N.2     1  UNL1       -0.1467
     22 C           1.6548    3.4570   30.4766 C.2     1  UNL1        0.1198
     23 C           1.0002    2.6724   29.3785 C.2     1  UNL1        0.0238
     24 C           1.0003    2.8396   27.8879 C.3     1  UNL1        0.0710
     25 C           5.5769   -1.7683   24.6098 C.3     1  UNL1        0.1489
     26 N           5.3095   -1.4438   23.1699 N.am    1  UNL1       -0.2947
     27 C           4.7322   -2.4878   22.2605 C.2     1  UNL1        0.2483
     28 O           4.4223   -3.8561   22.7910 O.2     1  UNL1       -0.2701
     29 H           5.5129   -0.5456   22.8217 H       1  UNL1        0.1501
     30 C           4.4648   -2.1633   20.8207 C.ar    1  UNL1        0.0807
     31 C           3.3284   -1.2548   20.4551 C.ar    1  UNL1        0.0106
     32 C           3.0610   -0.9304   19.0152 C.ar    1  UNL1        0.0717
     33 C           3.9300   -1.5143   17.9409 C.ar    1  UNL1        0.0062
     34 C           5.0663   -2.4227   18.3065 C.ar    1  UNL1        0.0297
     35 C           5.3337   -2.7471   19.7464 C.ar    1  UNL1        0.1444
     36 F           6.4699   -3.6555   20.1120 F       1  UNL1       -0.2040
     37 C           1.9248   -0.0220   18.6496 C.3     1  UNL1        0.4186
     38 F           0.7885    0.8864   18.2840 F       1  UNL1       -0.1659
     39 F           2.7768    0.6192   17.5947 F       1  UNL1       -0.1659
     40 F           1.0728   -0.6631   19.7046 F       1  UNL1       -0.1659
     41 C           6.5289   -4.0756   25.3307 C.3     1  UNL1        0.0022
     42 C           6.7452   -2.6336   24.9791 C.3     1  UNL1        0.0269
     43 C           8.1298   -2.0568   24.9968 C.3     1  UNL1        0.0022
@<TRIPOS>BOND
     1    41    42    1
     2    42    43    1
     3    42    25    1
     4    25    26    1
     5    26    27   am
     6    27    28    2
     7    27    30    1
     8    30    31   ar
     9    31    32   ar
    10    32    37    1
    11    37    38    1
    12    37    39    1
    13    37    40    1
    14    32    33   ar
    15    33    34   ar
    16    34    35   ar
    17    35    36    1
    18    25     1    1
    19     1     2    2
    20     1     3   am
    21     3     4    1
    22     4     5    1
    23     5     6    1
    24     6     7    1
    25     7     8    1
    26     6     9    1
    27     9    10    2
    28     9    11   am
    29    11    12    1
    30    11    13   am
    31    13    14    2
    32    13    15   am
    33    15    16    1
    34    16    17    2
    35    17    18    1
    36    18    19    2
    37    19    20    1
    38    20    21    2
    39    21    22    1
    40    22    23    2
    41    23    24    1
    42    35    30   ar
    43     8     3    1
    44    24    16    1
    45    15     6    1
    46    23    19    1
    47    26    29    1
@<TRIPOS>MOLECULE
*****
 43 47 0 0 0
SMALL
GASTEIGER

@<TRIPOS>ATOM
      1 C           0.9339    2.3904   20.9322 C.2     1  UNL1        0.2435
      2 O           1.0590    2.2517   19.4438 O.2     1  UNL1       -0.2731
      3 N           1.7099    1.4809   21.8381 N.am    1  UNL1       -0.2781
      4 C           2.6109    0.4326   21.2557 C.3     1  UNL1        0.0956
      5 C           3.3868   -0.4769   22.1616 C.3     1  UNL1        0.0490
      6 C           3.2617   -0.3381   23.6499 C.3     1  UNL1        0.1377
      7 C           2.3606    0.7101   24.2323 C.3     1  UNL1        0.0490
      8 C           1.5847    1.6196   23.3264 C.3     1  UNL1        0.0956
      9 C           3.2385   -0.3183   25.1496 C.2     1  UNL1        0.2491
     10 O           2.4352    0.6145   26.0067 O.2     1  UNL1       -0.2727
     11 N           4.1596   -1.3951   25.6418 N.am    1  UNL1       -0.2108
     12 C           4.4391   -1.7281   27.0774 C.3     1  UNL1        0.1245
     13 C           4.7520   -2.0805   24.4462 C.2     1  UNL1        0.3168
     14 O           5.7280   -3.2191   24.4764 O.2     1  UNL1       -0.2516
     15 N           4.1971   -1.4272   23.2152 N.am    1  UNL1       -0.2411
     16 C           4.5208   -1.7979   21.7982 C.2     1  UNL1        0.0376
     17 C           3.6834   -2.8132   21.0786 C.2     1  UNL1        0.0125
     18 C           4.0072   -3.1839   19.6616 C.2     1  UNL1        0.0216
     19 C           5.1683   -2.5392   18.9642 C.2     1  UNL1        0.1008
     20 N           5.7248   -2.7025   17.5809 N.2     1  UNL1       -0.1482
     21 N           6.9060   -1.7881   17.4456 N.2     1  UNL1       -0.1467
     22 C           7.0796   -1.0596   18.7453 C.2     1  UNL1        0.1198
     23 C           6.0056   -1.5239   19.6839 C.2     1  UNL1        0.0238
     24 C           5.6819   -1.1532   21.1008 C.3     1  UNL1        0.0710
     25 C           0.0328    3.4387   21.5146 C.3     1  UNL1        0.1489
     26 N          -1.4490    3.3601   21.2952 N.am    1  UNL1       -0.2947
     27 C          -2.0884    4.1601   20.1992 C.2     1  UNL1        0.2483
     28 O          -1.2460    5.0387   19.3226 O.2     1  UNL1       -0.2701
     29 H          -2.0018    2.7834   21.8706 H       1  UNL1        0.1501
     30 C          -3.5702    4.0815   19.9799 C.ar    1  UNL1        0.0807
     31 C          -4.5104    4.2807   21.1316 C.ar    1  UNL1        0.0106
     32 C          -5.9922    4.2021   20.9122 C.ar    1  UNL1        0.0717
     33 C          -6.5338    3.9242   19.5412 C.ar    1  UNL1        0.0062
     34 C          -5.5935    3.7250   18.3896 C.ar    1  UNL1        0.0297
     35 C          -4.1117    3.8037   18.6090 C.ar    1  UNL1        0.1444
     36 F          -3.1715    3.6044   17.4574 F       1  UNL1       -0.2040
     37 C          -6.9325    4.4013   22.0638 C.3     1  UNL1        0.4186
     38 F          -7.8728    4.6006   23.2155 F       1  UNL1       -0.1659
     39 F          -7.6914    5.4213   21.2678 F       1  UNL1       -0.1659
     40 F          -6.1736    3.3813   22.8599 F       1  UNL1       -0.1659
     41 C          -0.1051    5.0687   23.5331 C.3     1  UNL1        0.0022
     42 C           0.6136    4.5656   22.3164 C.3     1  UNL1        0.0269
     43 C           1.9130    5.1895   21.9014 C.3     1  UNL1        0.0022
@<TRIPOS>BOND
     1    41    42    1
     2    42    43    1
     3    42    25    1
     4    25    26    1
     5    26    27   am
     6    27    28    2
     7    27    30    1
     8    30    31   ar
     9    31    32   ar
    10    32    37    1
    11    37    38    1
    12    37    39    1
    13    37    40    1
    14    32    33   ar
    15    33    34   ar
    16    34    35   ar
    17    35    36    1
    18    25     1    1
    19     1     2    2
    20     1     3   am
    21     3     4    1
    22     4     5    1
    23     5     6    1
    24     6     7    1
    25     7     8    1
    26     6     9    1
    27     9    10    2
    28     9    11   am
    29    11    12    1
    30    11    13   am
    31    13    14    2
    32    13    15   am
    33    15    16    1
    34    16    17    2
    35    17    18    1
    36    18    19    2
    37    19    20    1
    38    20    21    2
    39    21    22    1
    40    22    23    2
    41    23    24    1
    42    35    30   ar
    43     8     3    1
    44    24    16    1
    45    15     6    1
    46    23    19    1
    47    26    29    1
@<TRIPOS>MOLECULE
*****
 43 47 0 0 0
SMALL
GASTEIGER

@<TRIPOS>ATOM
      1 C           0.5469    2.7999   18.9286 C.2     1  UNL1        0.2435
      2 O          -0.0210    2.9098   17.5446 O.2     1  UNL1       -0.2731
      3 N          -0.3223    3.0750   20.1199 N.am    1  UNL1       -0.2781
      4 C          -1.7591    3.4600   19.9271 C.3     1  UNL1        0.0956
      5 C          -2.6282    3.7350   21.1183 C.3     1  UNL1        0.0490
      6 C          -2.0603    3.6252   22.5023 C.3     1  UNL1        0.1377
      7 C          -0.6235    3.2403   22.6951 C.3     1  UNL1        0.0490
      8 C           0.2456    2.9652   21.5039 C.3     1  UNL1        0.0956
      9 C          -1.6348    3.5558   23.9390 C.2     1  UNL1        0.2491
     10 O          -0.2655    3.1992   24.4367 O.2     1  UNL1       -0.2727
     11 N          -2.8190    3.9058   24.7907 N.am    1  UNL1       -0.2108
     12 C          -2.8418    3.9604   26.2895 C.3     1  UNL1        0.1245
     13 C          -3.9765    4.1914   23.8803 C.2     1  UNL1        0.3168
     14 O          -5.3598    4.5818   24.3089 O.2     1  UNL1       -0.2516
     15 N          -3.5076    4.0180   22.4660 N.am    1  UNL1       -0.2411
     16 C          -4.3398    4.2047   21.2321 C.2     1  UNL1        0.0376
     17 C          -5.0700    3.0377   20.6363 C.2     1  UNL1        0.0125
     18 C          -5.9021    3.2244   19.4023 C.2     1  UNL1        0.0216
     19 C          -6.0041    4.5781   18.7641 C.2     1  UNL1        0.1008
     20 N          -6.7427    5.0633   17.5521 N.2     1  UNL1       -0.1482
     21 N          -6.4690    6.5300   17.3988 N.2     1  UNL1       -0.1467
     22 C          -5.5612    6.9514   18.5161 C.2     1  UNL1        0.1198
     23 C          -5.2739    5.7451   19.3600 C.2     1  UNL1        0.0238
     24 C          -4.4418    5.5583   20.5939 C.3     1  UNL1        0.0710
     25 C           1.9837    2.4150   19.1214 C.3     1  UNL1        0.1489
     26 N           2.3394    1.0059   19.4927 N.am    1  UNL1       -0.2947
     27 C           3.2143    0.7418   20.6822 C.2     1  UNL1        0.2483
     28 O           3.7335    1.8868   21.5004 O.2     1  UNL1       -0.2701
     29 H           1.9986    0.2544   18.9557 H       1  UNL1        0.1501
     30 C           3.5699   -0.6674   21.0535 C.ar    1  UNL1        0.0807
     31 C           3.8052   -1.6890   19.9807 C.ar    1  UNL1        0.0106
     32 C           4.1608   -3.0982   20.3519 C.ar    1  UNL1        0.0717
     33 C           4.2812   -3.4856   21.7961 C.ar    1  UNL1        0.0062
     34 C           4.0460   -2.4640   22.8688 C.ar    1  UNL1        0.0297
     35 C           3.6904   -1.0548   22.4975 C.ar    1  UNL1        0.1444
     36 F           3.4551   -0.0332   23.5703 F       1  UNL1       -0.2040
     37 C           4.3960   -4.1198   19.2792 C.3     1  UNL1        0.4186
     38 F           4.6312   -5.1415   18.2064 F       1  UNL1       -0.1659
     39 F           2.9210   -4.3820   19.2054 F       1  UNL1       -0.1659
     40 F           5.8711   -3.8577   19.3530 F       1  UNL1       -0.1659
     41 C           4.2852    3.1088   18.1356 C.3     1  UNL1        0.0022
     42 C           3.0650    3.4393   18.9429 C.3     1  UNL1        0.0269
     43 C           2.9260    4.7940   19.5718 C.3     1  UNL1        0.0022
@<TRIPOS>BOND
     1    41    42    1
     2    42    43    1
     3    42    25    1
     4    25    26    1
     5    26    27   am
     6    27    28    2
     7    27    30    1
     8    30    31   ar
     9    31    32   ar
    10    32    37    1
    11    37    38    1
    12    37    39    1
    13    37    40    1
    14    32    33   ar
    15    33    34   ar
    16    34    35   ar
    17    35    36    1
    18    25     1    1
    19     1     2    2
    20     1     3   am
    21     3     4    1
    22     4     5    1
    23     5     6    1
    24     6     7    1
    25     7     8    1
    26     6     9    1
    27     9    10    2
    28     9    11   am
    29    11    12    1
    30    11    13   am
    31    13    14    2
    32    13    15   am
    33    15    16    1
    34    16    17    2
    35    17    18    1
    36    18    19    2
    37    19    20    1
    38    20    21    2
    39    21    22    1
    40    22    23    2
    41    23    24    1
    42    35    30   ar
    43     8     3    1
    44    24    16    1
    45    15     6    1
    46    23    19    1
    47    26    29    1
@<TRIPOS>MOLECULE
*****
 43 47 0 0 0
SMALL
GASTEIGER

@<TRIPOS>ATOM
      1 C           0.6569    3.8449   21.6778 C.2     1  UNL1        0.2435
      2 O           1.1883    4.0366   23.0673 O.2     1  UNL1       -0.2731
      3 N          -0.8184    3.9311   21.4205 N.am    1  UNL1       -0.2781
      4 C          -1.7622    4.2091   22.5527 C.3     1  UNL1        0.0956
      5 C          -3.2374    4.2954   22.2954 C.3     1  UNL1        0.0490
      6 C          -3.7689    4.1036   20.9059 C.3     1  UNL1        0.1377
      7 C          -2.8251    3.8256   19.7737 C.3     1  UNL1        0.0490
      8 C          -1.3499    3.7394   20.0310 C.3     1  UNL1        0.0956
      9 C          -4.4434    3.9349   19.5768 C.2     1  UNL1        0.2491
     10 O          -3.7612    3.6503   18.2716 O.2     1  UNL1       -0.2727
     11 N          -5.9201    4.1007   19.7820 N.am    1  UNL1       -0.2108
     12 C          -6.9737    4.0111   18.7181 C.3     1  UNL1        0.1245
     13 C          -6.1582    4.3719   21.2380 C.2     1  UNL1        0.3168
     14 O          -7.4915    4.6011   21.8856 O.2     1  UNL1       -0.2516
     15 N          -4.8287    4.3737   21.9326 N.am    1  UNL1       -0.2411
     16 C          -4.5992    4.6050   23.3967 C.2     1  UNL1        0.0376
     17 C          -4.5729    3.4427   24.3446 C.2     1  UNL1        0.0125
     18 C          -4.3434    3.6741   25.8087 C.2     1  UNL1        0.0216
     19 C          -4.1401    5.0677   26.3251 C.2     1  UNL1        0.1008
     20 N          -3.8943    5.6007   27.7055 N.2     1  UNL1       -0.1482
     21 N          -3.7687    7.0924   27.6108 N.2     1  UNL1       -0.1467
     22 C          -3.9368    7.4813   26.1718 C.2     1  UNL1        0.1198
     23 C          -4.1664    6.2299   25.3773 C.2     1  UNL1        0.0238
     24 C          -4.3959    5.9986   23.9131 C.3     1  UNL1        0.0710
     25 C           1.6006    3.5669   20.5455 C.3     1  UNL1        0.1489
     26 N           2.4238    2.3130   20.5459 N.am    1  UNL1       -0.2947
     27 C           1.8739    1.0547   19.9421 C.2     1  UNL1        0.2483
     28 O           0.5010    1.0504   19.3379 O.2     1  UNL1       -0.2701
     29 H           3.3249    2.3157   20.9424 H       1  UNL1        0.1501
     30 C           2.6971   -0.1993   19.9425 C.ar    1  UNL1        0.0807
     31 C           3.1005   -0.8312   21.2417 C.ar    1  UNL1        0.0106
     32 C           3.9236   -2.0852   21.2421 C.ar    1  UNL1        0.0717
     33 C           4.3434   -2.7072   19.9432 C.ar    1  UNL1        0.0062
     34 C           3.9399   -2.0753   18.6440 C.ar    1  UNL1        0.0297
     35 C           3.1168   -0.8213   18.6437 C.ar    1  UNL1        0.1444
     36 F           2.7134   -0.1894   17.3445 F       1  UNL1       -0.2040
     37 C           4.3271   -2.7171   22.5412 C.3     1  UNL1        0.4186
     38 F           4.7305   -3.3492   23.8404 F       1  UNL1       -0.1659
     39 F           5.0925   -3.7676   21.7926 F       1  UNL1       -0.1659
     40 F           3.5616   -1.6667   23.2899 F       1  UNL1       -0.1659
     41 C           1.7395    6.0167   19.6914 C.3     1  UNL1        0.0022
     42 C           1.7213    4.5429   19.4128 C.3     1  UNL1        0.0269
     43 C           1.8237    4.0451   18.0016 C.3     1  UNL1        0.0022
@<TRIPOS>BOND
     1    41    42    1
     2    42    43    1
     3    42    25    1
     4    25    26    1
     5    26    27   am
     6    27    28    2
     7    27    30    1
     8    30    31   ar
     9    31    32   ar
    10    32    37    1
    11    37    38    1
    12    37    39    1
    13    37    40    1
    14    32    33   ar
    15    33    34   ar
    16    34    35   ar
    17    35    36    1
    18    25     1    1
    19     1     2    2
    20     1     3   am
    21     3     4    1
    22     4     5    1
    23     5     6    1
    24     6     7    1
    25     7     8    1
    26     6     9    1
    27     9    10    2
    28     9    11   am
    29    11    12    1
    30    11    13   am
    31    13    14    2
    32    13    15   am
    33    15    16    1
    34    16    17    2
    35    17    18    1
    36    18    19    2
    37    19    20    1
    38    20    21    2
    39    21    22    1
    40    22    23    2
    41    23    24    1
    42    35    30   ar
    43     8     3    1
    44    24    16    1
    45    15     6    1
    46    23    19    1
    47    26    29    1
@<TRIPOS>MOLECULE
*****
 43 47 0 0 0
SMALL
GASTEIGER

@<TRIPOS>ATOM
      1 C          -0.1255    2.8271   19.5992 C.2     1  UNL1        0.2435
      2 O           0.1692    2.5272   18.1594 O.2     1  UNL1       -0.2731
      3 N           0.6346    2.1217   20.6831 N.am    1  UNL1       -0.2781
      4 C           1.6894    1.1164   20.3271 C.3     1  UNL1        0.0956
      5 C           2.4494    0.4110   21.4109 C.3     1  UNL1        0.0490
      6 C           2.1547    0.7109   22.8507 C.3     1  UNL1        0.1377
      7 C           1.0999    1.7162   23.2068 C.3     1  UNL1        0.0490
      8 C           0.3399    2.4216   22.1230 C.3     1  UNL1        0.0956
      9 C           1.9711    0.9059   24.3266 C.2     1  UNL1        0.2491
     10 O           0.9952    1.8406   24.9778 O.2     1  UNL1       -0.2727
     11 N           2.9348    0.0021   25.0371 N.am    1  UNL1       -0.2108
     12 C           3.0917   -0.1257   26.5233 C.3     1  UNL1        0.1245
     13 C           3.7139   -0.7515   24.0002 C.2     1  UNL1        0.3168
     14 O           4.7868   -1.7650   24.2675 O.2     1  UNL1       -0.2516
     15 N           3.2318   -0.3134   22.6490 N.am    1  UNL1       -0.2411
     16 C           3.7379   -0.8121   21.3280 C.2     1  UNL1        0.0376
     17 C           3.0600   -1.9672   20.6526 C.2     1  UNL1        0.0125
     18 C           3.5662   -2.4658   19.3315 C.2     1  UNL1        0.0216
     19 C           4.7503   -1.8093   18.6858 C.2     1  UNL1        0.1008
     20 N           5.4689   -2.0795   17.3971 N.2     1  UNL1       -0.1482
     21 N           6.5909   -1.0915   17.2761 N.2     1  UNL1       -0.1467
     22 C           6.5658   -0.2105   18.4899 C.2     1  UNL1        0.1198
     23 C           5.4282   -0.6542   19.3611 C.2     1  UNL1        0.0238
     24 C           4.9220   -0.1556   20.6822 C.3     1  UNL1        0.0710
     25 C          -1.1803    3.8324   19.9553 C.3     1  UNL1        0.1489
     26 N          -1.6109    3.9940   21.3830 N.am    1  UNL1       -0.2947
     27 C          -2.9097    3.4034   21.8461 C.2     1  UNL1        0.2483
     28 O          -3.7778    2.6512   20.8814 O.2     1  UNL1       -0.2701
     29 H          -1.0412    4.4877   22.0162 H       1  UNL1        0.1501
     30 C          -3.3404    3.5649   23.2738 C.ar    1  UNL1        0.0807
     31 C          -2.3140    3.6023   24.3671 C.ar    1  UNL1        0.0106
     32 C          -2.7447    3.7639   25.7949 C.ar    1  UNL1        0.0717
     33 C          -4.2017    3.8881   26.1293 C.ar    1  UNL1        0.0062
     34 C          -5.2280    3.8507   25.0360 C.ar    1  UNL1        0.0297
     35 C          -4.7973    3.6891   23.6082 C.ar    1  UNL1        0.1444
     36 F          -5.8236    3.6518   22.5150 F       1  UNL1       -0.2040
     37 C          -1.7184    3.8013   26.8881 C.3     1  UNL1        0.4186
     38 F          -0.6921    3.8386   27.9815 F       1  UNL1       -0.1659
     39 F          -1.5544    2.3139   26.7850 F       1  UNL1       -0.1659
     40 F          -1.8824    5.2887   26.9912 F       1  UNL1       -0.1659
     41 C          -2.9740    4.1534   18.1034 C.3     1  UNL1        0.0022
     42 C          -1.8045    4.6762   18.8836 C.3     1  UNL1        0.0269
     43 C          -1.2590    6.0428   18.5921 C.3     1  UNL1        0.0022
@<TRIPOS>BOND
     1    41    42    1
     2    42    43    1
     3    42    25    1
     4    25    26    1
     5    26    27   am
     6    27    28    2
     7    27    30    1
     8    30    31   ar
     9    31    32   ar
    10    32    37    1
    11    37    38    1
    12    37    39    1
    13    37    40    1
    14    32    33   ar
    15    33    34   ar
    16    34    35   ar
    17    35    36    1
    18    25     1    1
    19     1     2    2
    20     1     3   am
    21     3     4    1
    22     4     5    1
    23     5     6    1
    24     6     7    1
    25     7     8    1
    26     6     9    1
    27     9    10    2
    28     9    11   am
    29    11    12    1
    30    11    13   am
    31    13    14    2
    32    13    15   am
    33    15    16    1
    34    16    17    2
    35    17    18    1
    36    18    19    2
    37    19    20    1
    38    20    21    2
    39    21    22    1
    40    22    23    2
    41    23    24    1
    42    35    30   ar
    43     8     3    1
    44    24    16    1
    45    15     6    1
    46    23    19    1
    47    26    29    1
@<TRIPOS>MOLECULE
*****
 43 47 0 0 0
SMALL
GASTEIGER

@<TRIPOS>ATOM
      1 C          -0.2219    2.9632   20.9046 C.2     1  UNL1        0.2435
      2 O          -1.4374    2.3551   20.2699 O.2     1  UNL1       -0.2731
      3 N          -0.3621    3.8073   22.1367 N.am    1  UNL1       -0.2781
      4 C          -1.7177    4.0432   22.7340 C.3     1  UNL1        0.0956
      5 C          -1.8578    4.8872   23.9660 C.3     1  UNL1        0.0490
      6 C          -0.6424    5.4954   24.6007 C.3     1  UNL1        0.1377
      7 C           0.7132    5.2595   24.0035 C.3     1  UNL1        0.0490
      8 C           0.8533    4.4154   22.7715 C.3     1  UNL1        0.0956
      9 C           0.4761    6.1654   25.3424 C.2     1  UNL1        0.2491
     10 O           1.9311    6.1090   24.9823 O.2     1  UNL1       -0.2727
     11 N          -0.1159    6.9018   26.5076 N.am    1  UNL1       -0.2108
     12 C           0.6432    7.7109   27.5170 C.3     1  UNL1        0.1245
     13 C          -1.6003    6.6868   26.4859 C.2     1  UNL1        0.3168
     14 O          -2.5862    7.2433   27.4699 O.2     1  UNL1       -0.2516
     15 N          -1.9257    5.8177   25.3075 N.am    1  UNL1       -0.2411
     16 C          -3.2941    5.3524   24.9061 C.2     1  UNL1        0.0376
     17 C          -3.8388    4.0658   25.4517 C.2     1  UNL1        0.0125
     18 C          -5.2072    3.6006   25.0504 C.2     1  UNL1        0.0216
     19 C          -6.0309    4.4221   24.1033 C.2     1  UNL1        0.1008
     20 N          -7.4028    4.2201   23.5316 N.2     1  UNL1       -0.1482
     21 N          -7.7060    5.3819   22.6326 N.2     1  UNL1       -0.1467
     22 C          -6.5214    6.3019   22.6488 C.2     1  UNL1        0.1198
     23 C          -5.4861    5.7087   23.5577 C.2     1  UNL1        0.0238
     24 C          -4.1178    6.1739   23.9591 C.3     1  UNL1        0.0710
     25 C           1.1336    2.7273   20.3074 C.3     1  UNL1        0.1489
     26 N           1.9769    1.5842   20.7892 N.am    1  UNL1       -0.2947
     27 C           1.7931    0.2166   20.2010 C.2     1  UNL1        0.2483
     28 O           0.7661   -0.0079   19.1311 O.2     1  UNL1       -0.2701
     29 H           2.6510    1.7315   21.4914 H       1  UNL1        0.1501
     30 C           2.6364   -0.9266   20.6828 C.ar    1  UNL1        0.0807
     31 C           3.0526   -2.0061   19.7281 C.ar    1  UNL1        0.0106
     32 C           3.8959   -3.1492   20.2099 C.ar    1  UNL1        0.0717
     33 C           4.3229   -3.2128   21.6465 C.ar    1  UNL1        0.0062
     34 C           3.9067   -2.1333   22.6011 C.ar    1  UNL1        0.0297
     35 C           3.0634   -0.9902   22.1193 C.ar    1  UNL1        0.1444
     36 F           2.6472    0.0893   23.0740 F       1  UNL1       -0.2040
     37 C           4.3121   -4.2287   19.2552 C.3     1  UNL1        0.4186
     38 F           4.7284   -5.3082   18.3005 F       1  UNL1       -0.1659
     39 F           5.7402   -4.0527   19.6789 F       1  UNL1       -0.1659
     40 F           2.8840   -4.4046   18.8316 F       1  UNL1       -0.1659
     41 C           3.0146    3.4185   18.6538 C.3     1  UNL1        0.0022
     42 C           1.6460    3.6346   19.2282 C.3     1  UNL1        0.0269
     43 C           0.7896    4.7579   18.7235 C.3     1  UNL1        0.0022
@<TRIPOS>BOND
     1    41    42    1
     2    42    43    1
     3    42    25    1
     4    25    26    1
     5    26    27   am
     6    27    28    2
     7    27    30    1
     8    30    31   ar
     9    31    32   ar
    10    32    37    1
    11    37    38    1
    12    37    39    1
    13    37    40    1
    14    32    33   ar
    15    33    34   ar
    16    34    35   ar
    17    35    36    1
    18    25     1    1
    19     1     2    2
    20     1     3   am
    21     3     4    1
    22     4     5    1
    23     5     6    1
    24     6     7    1
    25     7     8    1
    26     6     9    1
    27     9    10    2
    28     9    11   am
    29    11    12    1
    30    11    13   am
    31    13    14    2
    32    13    15   am
    33    15    16    1
    34    16    17    2
    35    17    18    1
    36    18    19    2
    37    19    20    1
    38    20    21    2
    39    21    22    1
    40    22    23    2
    41    23    24    1
    42    35    30   ar
    43     8     3    1
    44    24    16    1
    45    15     6    1
    46    23    19    1
    47    26    29    1
