@<TRIPOS>MOLECULE
*****
 19 21 0 0 0
SMALL
GASTEIGER

@<TRIPOS>ATOM
      1 C         -10.6156  -19.1770   22.8545 C.ar    1  UNL1        0.1296
      2 N         -11.0454  -20.0421   21.7069 N.ar    1  UNL1       -0.2293
      3 C         -10.3045  -19.9824   20.4041 C.ar    1  UNL1        0.1018
      4 C          -9.1338  -19.0576   20.2488 C.ar    1  UNL1        0.0398
      5 C          -8.7039  -18.1925   21.3964 C.ar    1  UNL1        0.0852
      6 N          -7.5961  -17.1913   21.5386 N.2     1  UNL1       -0.2455
      7 C          -7.6523  -16.6322   22.9294 C.2     1  UNL1        0.0777
      8 C          -6.8108  -15.6108   23.6353 C.2     1  UNL1        0.0185
      9 C          -7.1118  -15.2450   25.0585 C.2     1  UNL1       -0.0027
     10 C          -8.2544  -15.9007   25.7758 C.2     1  UNL1       -0.0213
     11 C          -9.0960  -16.9222   25.0699 C.3     1  UNL1        0.0540
     12 C          -8.7949  -17.2879   23.6467 C.2     1  UNL1        0.0040
     13 C          -9.4448  -18.2522   22.6992 C.ar    1  UNL1        0.0468
     14 N         -11.3566  -19.2367   24.1574 N.pl3   1  UNL1       -0.3181
     15 H         -11.0241  -19.8080   24.8871 H       1  UNL1        0.1482
     16 C         -12.6041  -18.4260   24.3485 C.3     1  UNL1        0.0882
     17 C         -13.2320  -17.7289   23.1782 C.3     1  UNL1        0.0212
     18 C         -12.2977  -16.3809   21.1632 C.3     1  UNL1        0.0001
     19 C         -12.6101  -16.4802   22.6270 C.3     1  UNL1        0.0017
@<TRIPOS>BOND
     1    18    19    1
     2    19    17    1
     3    17    16    1
     4    16    14    1
     5    14     1    1
     6     1     2   ar
     7     2     3   ar
     8     3     4   ar
     9     4     5   ar
    10     5     6    2
    11     6     7    1
    12     7     8    2
    13     8     9    1
    14     9    10    2
    15    10    11    1
    16    11    12    1
    17    12    13    2
    18    13     1   ar
    19    13     5   ar
    20    12     7    1
    21    14    15    1
@<TRIPOS>MOLECULE
*****
 19 21 0 0 0
SMALL
GASTEIGER

@<TRIPOS>ATOM
      1 C          -7.1070  -16.9174   22.6628 C.ar    1  UNL1        0.1296
      2 N          -5.7322  -17.5172   22.6764 N.ar    1  UNL1       -0.2293
      3 C          -5.5352  -18.9504   22.2800 C.ar    1  UNL1        0.1018
      4 C          -6.7131  -19.7838   21.8701 C.ar    1  UNL1        0.0398
      5 C          -8.0879  -19.1840   21.8566 C.ar    1  UNL1        0.0852
      6 N          -9.4287  -19.7551   21.5016 N.2     1  UNL1       -0.2455
      7 C         -10.4543  -18.6749   21.6785 C.2     1  UNL1        0.0777
      8 C         -11.9406  -18.6592   21.4767 C.2     1  UNL1        0.0185
      9 C         -12.7198  -17.4047   21.7394 C.2     1  UNL1       -0.0027
     10 C         -12.0129  -16.1660   22.2037 C.2     1  UNL1       -0.0213
     11 C         -10.5266  -16.1817   22.4055 C.3     1  UNL1        0.0540
     12 C          -9.7473  -17.4361   22.1428 C.2     1  UNL1        0.0040
     13 C          -8.2848  -17.7508   22.2529 C.ar    1  UNL1        0.0468
     14 N          -7.3038  -15.4841   23.0592 N.pl3   1  UNL1       -0.3181
     15 H          -7.4471  -14.7975   22.3683 H       1  UNL1        0.1482
     16 C          -7.2824  -15.0970   24.5082 C.3     1  UNL1        0.0882
     17 C          -8.4359  -15.4559   25.3974 C.3     1  UNL1        0.0212
     18 C          -6.9221  -15.9242   27.4564 C.3     1  UNL1        0.0001
     19 C          -8.2468  -15.5143   26.8843 C.3     1  UNL1        0.0017
@<TRIPOS>BOND
     1    18    19    1
     2    19    17    1
     3    17    16    1
     4    16    14    1
     5    14     1    1
     6     1     2   ar
     7     2     3   ar
     8     3     4   ar
     9     4     5   ar
    10     5     6    2
    11     6     7    1
    12     7     8    2
    13     8     9    1
    14     9    10    2
    15    10    11    1
    16    11    12    1
    17    12    13    2
    18    13     1   ar
    19    13     5   ar
    20    12     7    1
    21    14    15    1
@<TRIPOS>MOLECULE
*****
 19 21 0 0 0
SMALL
GASTEIGER

@<TRIPOS>ATOM
      1 C         -11.0639  -18.6830   23.7985 C.ar    1  UNL1        0.1296
      2 N         -12.4556  -18.1620   24.0029 N.ar    1  UNL1       -0.2293
      3 C         -13.2811  -17.7443   22.8222 C.ar    1  UNL1        0.1018
      4 C         -12.7148  -17.8477   21.4370 C.ar    1  UNL1        0.0398
      5 C         -11.3232  -18.3688   21.2326 C.ar    1  UNL1        0.0852
      6 N         -10.5031  -18.5826   19.9949 N.2     1  UNL1       -0.2455
      7 C          -9.1709  -19.1324   20.4108 C.2     1  UNL1        0.0777
      8 C          -7.9605  -19.5346   19.6215 C.2     1  UNL1        0.0185
      9 C          -6.7467  -20.0627   20.3269 C.2     1  UNL1       -0.0027
     10 C          -6.7433  -20.1887   21.8216 C.2     1  UNL1       -0.0213
     11 C          -7.9537  -19.7865   22.6109 C.3     1  UNL1        0.0540
     12 C          -9.1676  -19.2584   21.9054 C.2     1  UNL1        0.0040
     13 C         -10.4977  -18.7864   22.4134 C.ar    1  UNL1        0.0468
     14 N         -10.2385  -19.1007   24.9794 N.pl3   1  UNL1       -0.3181
     15 H         -10.2376  -20.0409   25.2715 H       1  UNL1        0.1482
     16 C          -9.4144  -18.0859   25.7150 C.3     1  UNL1        0.0882
     17 C          -9.0880  -16.7730   25.0672 C.3     1  UNL1        0.0212
     18 C          -8.2337  -15.7864   27.3137 C.3     1  UNL1        0.0001
     19 C          -8.2924  -15.7448   25.8154 C.3     1  UNL1        0.0017
@<TRIPOS>BOND
     1    18    19    1
     2    19    17    1
     3    17    16    1
     4    16    14    1
     5    14     1    1
     6     1     2   ar
     7     2     3   ar
     8     3     4   ar
     9     4     5   ar
    10     5     6    2
    11     6     7    1
    12     7     8    2
    13     8     9    1
    14     9    10    2
    15    10    11    1
    16    11    12    1
    17    12    13    2
    18    13     1   ar
    19    13     5   ar
    20    12     7    1
    21    14    15    1
@<TRIPOS>MOLECULE
*****
 19 21 0 0 0
SMALL
GASTEIGER

@<TRIPOS>ATOM
      1 C          -8.3690  -18.5790   20.8546 C.ar    1  UNL1        0.1296
      2 N          -9.2548  -19.4632   20.0277 N.ar    1  UNL1       -0.2293
      3 C         -10.6560  -19.7530   20.4781 C.ar    1  UNL1        0.1018
      4 C         -11.1713  -19.1586   21.7552 C.ar    1  UNL1        0.0398
      5 C         -10.2854  -18.2745   22.5821 C.ar    1  UNL1        0.0852
      6 N         -10.5150  -17.5522   23.8765 N.2     1  UNL1       -0.2455
      7 C          -9.2557  -16.8160   24.2262 C.2     1  UNL1        0.0777
      8 C          -8.8965  -15.9368   25.3872 C.2     1  UNL1        0.0185
      9 C          -7.5295  -15.3248   25.4698 C.2     1  UNL1       -0.0027
     10 C          -6.5217  -15.5921   24.3914 C.2     1  UNL1       -0.0213
     11 C          -6.8809  -16.4714   23.2304 C.3     1  UNL1        0.0540
     12 C          -8.2479  -17.0833   23.1478 C.2     1  UNL1        0.0040
     13 C          -8.8843  -17.9847   22.1317 C.ar    1  UNL1        0.0468
     14 N          -6.9678  -18.2893   20.4041 N.pl3   1  UNL1       -0.3181
     15 H          -6.7587  -17.4327   19.9661 H       1  UNL1        0.1482
     16 C          -5.8852  -19.3046   20.6212 C.3     1  UNL1        0.0882
     17 C          -5.4245  -19.6238   22.0125 C.3     1  UNL1        0.0212
     18 C          -3.6587  -18.0788   23.1283 C.3     1  UNL1        0.0001
     19 C          -4.0051  -19.3513   22.4136 C.3     1  UNL1        0.0017
@<TRIPOS>BOND
     1    18    19    1
     2    19    17    1
     3    17    16    1
     4    16    14    1
     5    14     1    1
     6     1     2   ar
     7     2     3   ar
     8     3     4   ar
     9     4     5   ar
    10     5     6    2
    11     6     7    1
    12     7     8    2
    13     8     9    1
    14     9    10    2
    15    10    11    1
    16    11    12    1
    17    12    13    2
    18    13     1   ar
    19    13     5   ar
    20    12     7    1
    21    14    15    1
@<TRIPOS>MOLECULE
*****
 19 21 0 0 0
SMALL
GASTEIGER

@<TRIPOS>ATOM
      1 C          -9.7842  -16.5374   22.5839 C.ar    1  UNL1        0.1296
      2 N         -11.2110  -16.1117   22.4012 N.ar    1  UNL1       -0.2293
      3 C         -12.0748  -16.7998   21.3861 C.ar    1  UNL1        0.1018
      4 C         -11.5120  -17.9134   20.5538 C.ar    1  UNL1        0.0398
      5 C         -10.0853  -18.3391   20.7365 C.ar    1  UNL1        0.0852
      6 N          -9.2597  -19.3970   20.0661 N.2     1  UNL1       -0.2455
      7 C          -7.8857  -19.3627   20.6668 C.2     1  UNL1        0.0777
      8 C          -6.6531  -20.1747   20.3998 C.2     1  UNL1        0.0185
      9 C          -5.3967  -19.9076   21.1745 C.2     1  UNL1       -0.0027
     10 C          -5.3730  -18.8285   22.2162 C.2     1  UNL1       -0.0213
     11 C          -6.6057  -18.0166   22.4832 C.3     1  UNL1        0.0540
     12 C          -7.8620  -18.2837   21.7084 C.2     1  UNL1        0.0040
     13 C          -9.2214  -17.6511   21.7515 C.ar    1  UNL1        0.0468
     14 N          -8.9204  -15.8493   23.5990 N.pl3   1  UNL1       -0.3181
     15 H          -8.4261  -15.0341   23.3532 H       1  UNL1        0.1482
     16 C          -8.8096  -16.4033   24.9885 C.3     1  UNL1        0.0882
     17 C          -8.4010  -15.5096   26.1218 C.3     1  UNL1        0.0212
     18 C          -5.8107  -15.3124   26.0773 C.3     1  UNL1        0.0001
     19 C          -7.0717  -15.7046   26.7889 C.3     1  UNL1        0.0017
@<TRIPOS>BOND
     1    18    19    1
     2    19    17    1
     3    17    16    1
     4    16    14    1
     5    14     1    1
     6     1     2   ar
     7     2     3   ar
     8     3     4   ar
     9     4     5   ar
    10     5     6    2
    11     6     7    1
    12     7     8    2
    13     8     9    1
    14     9    10    2
    15    10    11    1
    16    11    12    1
    17    12    13    2
    18    13     1   ar
    19    13     5   ar
    20    12     7    1
    21    14    15    1
@<TRIPOS>MOLECULE
*****
 19 21 0 0 0
SMALL
GASTEIGER

@<TRIPOS>ATOM
      1 C          -6.3858  -18.1009   22.4732 C.ar    1  UNL1        0.1296
      2 N          -5.1490  -17.3883   22.9343 N.ar    1  UNL1       -0.2293
      3 C          -5.2649  -16.1660   23.7960 C.ar    1  UNL1        0.1018
      4 C          -6.6175  -15.6563   24.1966 C.ar    1  UNL1        0.0398
      5 C          -7.8543  -16.3688   23.7354 C.ar    1  UNL1        0.0852
      6 N          -9.3120  -16.1025   23.9684 N.2     1  UNL1       -0.2455
      7 C         -10.0970  -17.1602   23.2507 C.2     1  UNL1        0.0777
      8 C         -11.5717  -17.4043   23.1258 C.2     1  UNL1        0.0185
      9 C         -12.0739  -18.5686   22.3244 C.2     1  UNL1       -0.0027
     10 C         -11.1014  -19.4886   21.6478 C.2     1  UNL1       -0.0213
     11 C          -9.6267  -19.2444   21.7727 C.3     1  UNL1        0.0540
     12 C          -9.1245  -18.0802   22.5741 C.2     1  UNL1        0.0040
     13 C          -7.7385  -17.5911   22.8737 C.ar    1  UNL1        0.0468
     14 N          -6.2699  -19.3233   21.6114 N.pl3   1  UNL1       -0.3181
     15 H          -6.4797  -20.2100   21.9841 H       1  UNL1        0.1482
     16 C          -5.8343  -19.1944   20.1818 C.3     1  UNL1        0.0882
     17 C          -4.3737  -19.1916   19.8403 C.3     1  UNL1        0.0212
     18 C          -2.6344  -19.6177   21.7228 C.3     1  UNL1        0.0001
     19 C          -3.4344  -20.1165   20.5559 C.3     1  UNL1        0.0017
@<TRIPOS>BOND
     1    18    19    1
     2    19    17    1
     3    17    16    1
     4    16    14    1
     5    14     1    1
     6     1     2   ar
     7     2     3   ar
     8     3     4   ar
     9     4     5   ar
    10     5     6    2
    11     6     7    1
    12     7     8    2
    13     8     9    1
    14     9    10    2
    15    10    11    1
    16    11    12    1
    17    12    13    2
    18    13     1   ar
    19    13     5   ar
    20    12     7    1
    21    14    15    1
@<TRIPOS>MOLECULE
*****
 19 21 0 0 0
SMALL
GASTEIGER

@<TRIPOS>ATOM
      1 C          -6.5246  -16.8102   23.4498 C.ar    1  UNL1        0.1296
      2 N          -6.2910  -15.9045   24.6224 N.ar    1  UNL1       -0.2293
      3 C          -7.4563  -15.2846   25.3351 C.ar    1  UNL1        0.1018
      4 C          -8.8551  -15.5705   24.8751 C.ar    1  UNL1        0.0398
      5 C          -9.0886  -16.4762   23.7024 C.ar    1  UNL1        0.0852
      6 N         -10.3450  -16.9390   23.0261 N.2     1  UNL1       -0.2455
      7 C          -9.9562  -17.8448   21.8955 C.2     1  UNL1        0.0777
      8 C         -10.7716  -18.5938   20.8835 C.2     1  UNL1        0.0185
      9 C         -10.0904  -19.4398   19.8491 C.2     1  UNL1       -0.0027
     10 C          -8.5937  -19.5369   19.8266 C.2     1  UNL1       -0.0213
     11 C          -7.7783  -18.7879   20.8386 C.3     1  UNL1        0.0540
     12 C          -8.4595  -17.9419   21.8730 C.2     1  UNL1        0.0040
     13 C          -7.9233  -17.0961   22.9897 C.ar    1  UNL1        0.0468
     14 N          -5.3592  -17.4300   22.7371 N.pl3   1  UNL1       -0.3181
     15 H          -5.4757  -17.8001   21.8322 H       1  UNL1        0.1482
     16 C          -4.0163  -17.4860   23.4031 C.3     1  UNL1        0.0882
     17 C          -2.7673  -17.3341   22.5865 C.3     1  UNL1        0.0212
     18 C          -2.7907  -19.7007   21.5145 C.3     1  UNL1        0.0001
     19 C          -2.0319  -18.5505   22.1075 C.3     1  UNL1        0.0017
@<TRIPOS>BOND
     1    18    19    1
     2    19    17    1
     3    17    16    1
     4    16    14    1
     5    14     1    1
     6     1     2   ar
     7     2     3   ar
     8     3     4   ar
     9     4     5   ar
    10     5     6    2
    11     6     7    1
    12     7     8    2
    13     8     9    1
    14     9    10    2
    15    10    11    1
    16    11    12    1
    17    12    13    2
    18    13     1   ar
    19    13     5   ar
    20    12     7    1
    21    14    15    1
@<TRIPOS>MOLECULE
*****
 19 21 0 0 0
SMALL
GASTEIGER

@<TRIPOS>ATOM
      1 C         -12.1464   -6.8658   19.0057 C.ar    1  UNL1        0.1296
      2 N         -10.6925   -7.1679   18.7939 N.ar    1  UNL1       -0.2293
      3 C          -9.6941   -6.0497   18.7403 C.ar    1  UNL1        0.1018
      4 C         -10.1497   -4.6293   18.8985 C.ar    1  UNL1        0.0398
      5 C         -11.6036   -4.3272   19.1103 C.ar    1  UNL1        0.0852
      6 N         -12.3436   -3.0359   19.2969 N.2     1  UNL1       -0.2455
      7 C         -13.7993   -3.3560   19.4659 C.2     1  UNL1        0.0777
      8 C         -15.0000   -2.4839   19.6839 C.2     1  UNL1        0.0185
      9 C         -16.3604   -3.1010   19.8198 C.2     1  UNL1       -0.0027
     10 C         -16.5201   -4.5902   19.7376 C.2     1  UNL1       -0.0213
     11 C         -15.3194   -5.4623   19.5195 C.3     1  UNL1        0.0540
     12 C         -13.9590   -4.8452   19.3837 C.2     1  UNL1        0.0040
     13 C         -12.6020   -5.4454   19.1639 C.ar    1  UNL1        0.0468
     14 N         -13.1447   -7.9841   19.0593 N.pl3   1  UNL1       -0.3181
     15 H         -13.2987   -8.4665   19.9036 H       1  UNL1        0.1482
     16 C         -13.9085   -8.3673   17.8264 C.3     1  UNL1        0.0882
     17 C         -15.0477   -9.3384   17.9216 C.3     1  UNL1        0.0212
     18 C         -16.5162   -9.0040   20.0387 C.3     1  UNL1        0.0001
     19 C         -16.3421   -8.9166   18.5513 C.3     1  UNL1        0.0017
@<TRIPOS>BOND
     1    18    19    1
     2    19    17    1
     3    17    16    1
     4    16    14    1
     5    14     1    1
     6     1     2   ar
     7     2     3   ar
     8     3     4   ar
     9     4     5   ar
    10     5     6    2
    11     6     7    1
    12     7     8    2
    13     8     9    1
    14     9    10    2
    15    10    11    1
    16    11    12    1
    17    12    13    2
    18    13     1   ar
    19    13     5   ar
    20    12     7    1
    21    14    15    1
@<TRIPOS>MOLECULE
*****
 19 21 0 0 0
SMALL
GASTEIGER

@<TRIPOS>ATOM
      1 C          -4.4180  -18.4657   22.6447 C.ar    1  UNL1        0.1296
      2 N          -3.0399  -18.9244   22.2701 N.ar    1  UNL1       -0.2293
      3 C          -2.8433  -19.8118   21.0769 C.ar    1  UNL1        0.1018
      4 C          -4.0248  -20.2405   20.2582 C.ar    1  UNL1        0.0398
      5 C          -5.4030  -19.7817   20.6328 C.ar    1  UNL1        0.0852
      6 N          -6.7477  -20.0394   20.0203 N.2     1  UNL1       -0.2455
      7 C          -7.7754  -19.3113   20.8349 C.2     1  UNL1        0.0777
      8 C          -9.2657  -19.2013   20.7047 C.2     1  UNL1        0.0185
      9 C         -10.0463  -18.3835   21.6905 C.2     1  UNL1       -0.0027
     10 C          -9.3367  -17.6758   22.8066 C.2     1  UNL1       -0.0213
     11 C          -7.8464  -17.7858   22.9368 C.3     1  UNL1        0.0540
     12 C          -7.0658  -18.6036   21.9510 C.2     1  UNL1        0.0040
     13 C          -5.5996  -18.8943   21.8261 C.ar    1  UNL1        0.0468
     14 N          -4.6146  -17.5782   23.8380 N.pl3   1  UNL1       -0.3181
     15 H          -4.6232  -17.9653   24.7432 H       1  UNL1        0.1482
     16 C          -4.7980  -16.1011   23.6521 C.3     1  UNL1        0.0882
     17 C          -5.2314  -15.2480   24.8072 C.3     1  UNL1        0.0212
     18 C          -6.6204  -15.5184   26.9862 C.3     1  UNL1        0.0001
     19 C          -6.5406  -15.5166   25.4882 C.3     1  UNL1        0.0017
@<TRIPOS>BOND
     1    18    19    1
     2    19    17    1
     3    17    16    1
     4    16    14    1
     5    14     1    1
     6     1     2   ar
     7     2     3   ar
     8     3     4   ar
     9     4     5   ar
    10     5     6    2
    11     6     7    1
    12     7     8    2
    13     8     9    1
    14     9    10    2
    15    10    11    1
    16    11    12    1
    17    12    13    2
    18    13     1   ar
    19    13     5   ar
    20    12     7    1
    21    14    15    1
