@<TRIPOS>MOLECULE
*****
 29 32 0 0 0
SMALL
GASTEIGER

@<TRIPOS>ATOM
      1 O           6.4443   -4.7861   20.4871 O.2     1  UNL1       -0.1683
      2 S           7.2816   -3.6235   20.9312 S.O2    1  UNL1        0.0129
      3 O           8.1189   -2.4609   21.3754 O.2     1  UNL1       -0.1683
      4 C           6.1355   -2.6945   20.6603 C.ar    1  UNL1        0.1060
      5 C           4.7711   -3.2496   20.3766 C.ar    1  UNL1        0.0184
      6 C           3.6251   -2.3206   20.1056 C.ar    1  UNL1        0.0013
      7 C           3.8432   -0.8366   20.1183 C.ar    1  UNL1        0.0001
      8 C           5.2076   -0.2815   20.4020 C.ar    1  UNL1        0.0013
      9 C           6.3537   -1.2105   20.6730 C.ar    1  UNL1        0.0184
     10 C           2.6972    0.0924   19.8473 C.ar    1  UNL1        0.0001
     11 C           2.8786    1.2560   18.9182 C.ar    1  UNL1        0.0023
     12 C           1.7326    2.1852   18.6472 C.ar    1  UNL1        0.0296
     13 C           0.4052    1.9507   19.3053 C.ar    1  UNL1        0.1401
     14 F          -0.7409    2.8798   19.0342 F       1  UNL1       -0.2042
     15 C           0.2238    0.7870   20.2344 C.ar    1  UNL1        0.0296
     16 C           1.3698   -0.1420   20.5053 C.ar    1  UNL1        0.0023
     17 C           8.4277   -4.5525   21.2022 C.3     1  UNL1        0.1822
     18 C           8.4350   -5.3919   22.4453 C.ar    1  UNL1        0.0014
     19 C           9.1815   -6.6927   22.4675 C.ar    1  UNL1       -0.0029
     20 C           9.1888   -7.5322   23.7107 C.ar    1  UNL1       -0.0048
     21 C           8.4494   -7.0707   24.9316 C.ar    1  UNL1       -0.0247
     22 C           7.7029   -5.7700   24.9093 C.ar    1  UNL1       -0.0250
     23 C           7.6956   -4.9305   23.6662 C.ar    1  UNL1       -0.0071
     24 C           6.9070   -5.1295   26.0077 C.3     1  UNL1        0.0431
     25 C           6.6611   -5.6318   27.3996 C.3     1  UNL1        0.0733
     26 N           7.1503   -6.8984   28.0367 N.3     1  UNL1       -0.2969
     27 C           8.0063   -7.9758   27.4396 C.3     1  UNL1        0.0733
     28 C           8.5845   -8.0525   26.0576 C.3     1  UNL1        0.0431
     29 H           6.3012   -7.3807   28.3314 H       1  UNL1        0.1233
@<TRIPOS>BOND
     1     1     2    2
     2     2     3    2
     3     2    17    1
     4    17    18    1
     5    18    19   ar
     6    19    20   ar
     7    20    21   ar
     8    21    22   ar
     9    22    23   ar
    10    22    24    1
    11    24    25    1
    12    25    26    1
    13    26    27    1
    14    27    28    1
    15     2     4    1
    16     4     5   ar
    17     5     6   ar
    18     6     7   ar
    19     7    10    1
    20    10    11   ar
    21    11    12   ar
    22    12    13   ar
    23    13    14    1
    24    13    15   ar
    25    15    16   ar
    26     7     8   ar
    27     8     9   ar
    28    23    18   ar
    29     9     4   ar
    30    28    21    1
    31    16    10   ar
    32    26    29    1
@<TRIPOS>MOLECULE
*****
 29 32 0 0 0
SMALL
GASTEIGER

@<TRIPOS>ATOM
      1 O          -0.4042    1.2040   25.2517 O.2     1  UNL1       -0.1683
      2 S           0.1605    2.3711   24.4974 S.O2    1  UNL1        0.0129
      3 O           0.7252    3.5382   23.7430 O.2     1  UNL1       -0.1683
      4 C           0.9105    1.4297   23.6023 C.ar    1  UNL1        0.1060
      5 C           0.5492    1.3277   22.1500 C.ar    1  UNL1        0.0184
      6 C           1.2993    0.3862   21.2550 C.ar    1  UNL1        0.0013
      7 C           2.4105   -0.4533   21.8121 C.ar    1  UNL1        0.0001
      8 C           2.7718   -0.3513   23.2644 C.ar    1  UNL1        0.0013
      9 C           2.0218    0.5902   24.1595 C.ar    1  UNL1        0.0184
     10 C           3.1606   -1.3947   20.9171 C.ar    1  UNL1        0.0001
     11 C           3.9110   -2.5521   21.5066 C.ar    1  UNL1        0.0023
     12 C           4.6610   -3.4936   20.6117 C.ar    1  UNL1        0.0296
     13 C           4.6607   -3.2778   19.1272 C.ar    1  UNL1        0.1401
     14 F           5.4108   -4.2193   18.2323 F       1  UNL1       -0.2042
     15 C           3.9103   -2.1204   18.5378 C.ar    1  UNL1        0.0296
     16 C           3.1603   -1.1790   19.4327 C.ar    1  UNL1        0.0023
     17 C          -0.5895    3.3126   25.3925 C.3     1  UNL1        0.1822
     18 C          -2.0487    3.5684   25.1575 C.ar    1  UNL1        0.0014
     19 C          -2.9652    3.8066   26.3208 C.ar    1  UNL1       -0.0029
     20 C          -4.4245    4.0625   26.0858 C.ar    1  UNL1       -0.0048
     21 C          -4.9672    4.0801   24.6875 C.ar    1  UNL1       -0.0247
     22 C          -4.0507    3.8418   23.5243 C.ar    1  UNL1       -0.0250
     23 C          -2.5915    3.5860   23.7592 C.ar    1  UNL1       -0.0071
     24 C          -4.3829    3.8167   22.0617 C.3     1  UNL1        0.0431
     25 C          -5.7138    4.0236   21.4012 C.3     1  UNL1        0.0733
     26 N          -7.0409    4.3068   22.0402 N.3     1  UNL1       -0.2969
     27 C          -7.3652    4.4529   23.4974 C.3     1  UNL1        0.0733
     28 C          -6.4423    4.3521   24.6756 C.3     1  UNL1        0.0431
     29 H          -7.6458    3.5512   21.7184 H       1  UNL1        0.1233
@<TRIPOS>BOND
     1     1     2    2
     2     2     3    2
     3     2    17    1
     4    17    18    1
     5    18    19   ar
     6    19    20   ar
     7    20    21   ar
     8    21    22   ar
     9    22    23   ar
    10    22    24    1
    11    24    25    1
    12    25    26    1
    13    26    27    1
    14    27    28    1
    15     2     4    1
    16     4     5   ar
    17     5     6   ar
    18     6     7   ar
    19     7    10    1
    20    10    11   ar
    21    11    12   ar
    22    12    13   ar
    23    13    14    1
    24    13    15   ar
    25    15    16   ar
    26     7     8   ar
    27     8     9   ar
    28    23    18   ar
    29     9     4   ar
    30    28    21    1
    31    16    10   ar
    32    26    29    1
@<TRIPOS>MOLECULE
*****
 29 32 0 0 0
SMALL
GASTEIGER

@<TRIPOS>ATOM
      1 O           0.6284    3.8333   21.0898 O.2     1  UNL1       -0.1683
      2 S          -0.0052    2.4997   20.8252 S.O2    1  UNL1        0.0129
      3 O          -0.6388    1.1660   20.5607 O.2     1  UNL1       -0.1683
      4 C          -1.2808    2.9817   21.4501 C.ar    1  UNL1        0.1060
      5 C          -2.5264    3.0933   20.6217 C.ar    1  UNL1        0.0184
      6 C          -3.8019    3.5754   21.2467 C.ar    1  UNL1        0.0013
      7 C          -3.8321    3.9458   22.6999 C.ar    1  UNL1        0.0001
      8 C          -2.5865    3.8342   23.5283 C.ar    1  UNL1        0.0013
      9 C          -1.3109    3.3521   22.9034 C.ar    1  UNL1        0.0184
     10 C          -5.1076    4.4278   23.3249 C.ar    1  UNL1        0.0001
     11 C          -6.4278    4.0543   22.7184 C.ar    1  UNL1        0.0023
     12 C          -7.7034    4.5363   23.3433 C.ar    1  UNL1        0.0296
     13 C          -7.6589    5.3919   24.5747 C.ar    1  UNL1        0.1401
     14 F          -8.9345    5.8739   25.1996 F       1  UNL1       -0.2042
     15 C          -6.3386    5.7654   25.1810 C.ar    1  UNL1        0.0296
     16 C          -5.0632    5.2834   24.5561 C.ar    1  UNL1        0.0023
     17 C           1.2704    2.0176   20.2004 C.3     1  UNL1        0.1822
     18 C           2.0110    0.8613   20.8040 C.ar    1  UNL1        0.0014
     19 C           2.4110    0.8991   22.2492 C.ar    1  UNL1       -0.0029
     20 C           3.1516   -0.2573   22.8529 C.ar    1  UNL1       -0.0048
     21 C           3.4921   -1.4514   22.0113 C.ar    1  UNL1       -0.0247
     22 C           3.0921   -1.4892   20.5662 C.ar    1  UNL1       -0.0250
     23 C           2.3515   -0.3329   19.9625 C.ar    1  UNL1       -0.0071
     24 C           3.3306   -2.5737   19.5578 C.3     1  UNL1        0.0431
     25 C           4.0282   -3.8884   19.7455 C.3     1  UNL1        0.0733
     26 N           4.6594   -4.4430   20.9880 N.3     1  UNL1       -0.2969
     27 C           4.7491   -3.8202   22.3496 C.3     1  UNL1        0.0733
     28 C           4.2296   -2.4888   22.8051 C.3     1  UNL1        0.0431
     29 H           5.6285   -4.6216   20.7244 H       1  UNL1        0.1233
@<TRIPOS>BOND
     1     1     2    2
     2     2     3    2
     3     2    17    1
     4    17    18    1
     5    18    19   ar
     6    19    20   ar
     7    20    21   ar
     8    21    22   ar
     9    22    23   ar
    10    22    24    1
    11    24    25    1
    12    25    26    1
    13    26    27    1
    14    27    28    1
    15     2     4    1
    16     4     5   ar
    17     5     6   ar
    18     6     7   ar
    19     7    10    1
    20    10    11   ar
    21    11    12   ar
    22    12    13   ar
    23    13    14    1
    24    13    15   ar
    25    15    16   ar
    26     7     8   ar
    27     8     9   ar
    28    23    18   ar
    29     9     4   ar
    30    28    21    1
    31    16    10   ar
    32    26    29    1
@<TRIPOS>MOLECULE
*****
 29 32 0 0 0
SMALL
GASTEIGER

@<TRIPOS>ATOM
      1 O           0.3325    1.1632   24.3369 O.2     1  UNL1       -0.1683
      2 S           0.6487    2.3417   23.4645 S.O2    1  UNL1        0.0129
      3 O           0.9649    3.5203   22.5921 O.2     1  UNL1       -0.1683
      4 C          -0.7637    2.8263   23.6072 C.ar    1  UNL1        0.1060
      5 C          -1.5317    3.2664   22.3962 C.ar    1  UNL1        0.0184
      6 C          -2.9440    3.7510   22.5390 C.ar    1  UNL1        0.0013
      7 C          -3.5884    3.7956   23.8928 C.ar    1  UNL1        0.0001
      8 C          -2.8205    3.3555   25.1038 C.ar    1  UNL1        0.0013
      9 C          -1.4081    2.8709   24.9611 C.ar    1  UNL1        0.0184
     10 C          -5.0008    4.2802   24.0356 C.ar    1  UNL1        0.0001
     11 C          -6.0126    3.9654   22.9740 C.ar    1  UNL1        0.0023
     12 C          -7.4250    4.4499   23.1168 C.ar    1  UNL1        0.0296
     13 C          -7.8256    5.2494   24.3212 C.ar    1  UNL1        0.1401
     14 F          -9.2379    5.7339   24.4640 F       1  UNL1       -0.2042
     15 C          -6.8136    5.5642   25.3828 C.ar    1  UNL1        0.0296
     16 C          -5.4013    5.0796   25.2400 C.ar    1  UNL1        0.0023
     17 C           2.0610    1.8571   23.3217 C.3     1  UNL1        0.1822
     18 C           2.3694    0.7011   22.4169 C.ar    1  UNL1        0.0014
     19 C           1.8373    0.6837   21.0146 C.ar    1  UNL1       -0.0029
     20 C           2.1456   -0.4722   20.1097 C.ar    1  UNL1       -0.0048
     21 C           2.9861   -1.6108   20.6072 C.ar    1  UNL1       -0.0247
     22 C           3.5181   -1.5933   22.0095 C.ar    1  UNL1       -0.0250
     23 C           3.2098   -0.4374   22.9144 C.ar    1  UNL1       -0.0071
     24 C           4.3684   -2.6181   22.7000 C.3     1  UNL1        0.0431
     25 C           4.8966   -3.9135   22.1586 C.3     1  UNL1        0.0733
     26 N           4.7050   -4.5039   20.7932 N.3     1  UNL1       -0.2969
     27 C           3.9378   -3.9449   19.6317 C.3     1  UNL1        0.0733
     28 C           3.1728   -2.6573   19.5490 C.3     1  UNL1        0.0431
     29 H           4.2793   -5.4146   20.9661 H       1  UNL1        0.1233
@<TRIPOS>BOND
     1     1     2    2
     2     2     3    2
     3     2    17    1
     4    17    18    1
     5    18    19   ar
     6    19    20   ar
     7    20    21   ar
     8    21    22   ar
     9    22    23   ar
    10    22    24    1
    11    24    25    1
    12    25    26    1
    13    26    27    1
    14    27    28    1
    15     2     4    1
    16     4     5   ar
    17     5     6   ar
    18     6     7   ar
    19     7    10    1
    20    10    11   ar
    21    11    12   ar
    22    12    13   ar
    23    13    14    1
    24    13    15   ar
    25    15    16   ar
    26     7     8   ar
    27     8     9   ar
    28    23    18   ar
    29     9     4   ar
    30    28    21    1
    31    16    10   ar
    32    26    29    1
@<TRIPOS>MOLECULE
*****
 29 32 0 0 0
SMALL
GASTEIGER

@<TRIPOS>ATOM
      1 O           7.5244   -2.1643   20.4959 O.2     1  UNL1       -0.1683
      2 S           6.6055   -3.2997   20.1545 S.O2    1  UNL1        0.0129
      3 O           5.6866   -4.4351   19.8131 O.2     1  UNL1       -0.1683
      4 C           6.9850   -3.9905   21.4307 C.ar    1  UNL1        0.1060
      5 C           8.1523   -4.9322   21.4554 C.ar    1  UNL1        0.0184
      6 C           8.5317   -5.6230   22.7317 C.ar    1  UNL1        0.0013
      7 C           7.7438   -5.3722   23.9832 C.ar    1  UNL1        0.0001
      8 C           6.5764   -4.4306   23.9585 C.ar    1  UNL1        0.0013
      9 C           6.1970   -3.7398   22.6823 C.ar    1  UNL1        0.0184
     10 C           8.1232   -6.0631   25.2595 C.ar    1  UNL1        0.0001
     11 C           8.5156   -5.2556   26.4612 C.ar    1  UNL1        0.0023
     12 C           8.8950   -5.9464   27.7375 C.ar    1  UNL1        0.0296
     13 C           8.8820   -7.4445   27.8121 C.ar    1  UNL1        0.1401
     14 F           9.2614   -8.1352   29.0884 F       1  UNL1       -0.2042
     15 C           8.4895   -8.2518   26.6103 C.ar    1  UNL1        0.0296
     16 C           8.1102   -7.5611   25.3341 C.ar    1  UNL1        0.0023
     17 C           6.2261   -2.6088   18.8783 C.3     1  UNL1        0.1822
     18 C           5.0121   -1.7289   18.8341 C.ar    1  UNL1        0.0014
     19 C           4.5136   -1.2041   17.5202 C.ar    1  UNL1       -0.0029
     20 C           3.2996   -0.3242   17.4760 C.ar    1  UNL1       -0.0048
     21 C           2.5841    0.0309   18.7457 C.ar    1  UNL1       -0.0247
     22 C           3.0825   -0.4938   20.0594 C.ar    1  UNL1       -0.0250
     23 C           4.2965   -1.3737   20.1037 C.ar    1  UNL1       -0.0071
     24 C           2.5224   -0.2636   21.4318 C.3     1  UNL1        0.0431
     25 C           1.3253    0.5484   21.8291 C.3     1  UNL1        0.0733
     26 N           0.3929    1.3306   20.9524 N.3     1  UNL1       -0.2969
     27 C           0.4271    1.4940   19.4617 C.3     1  UNL1        0.0733
     28 C           1.4023    0.9156   18.4796 C.3     1  UNL1        0.0431
     29 H           0.4397    2.2828   21.3149 H       1  UNL1        0.1233
@<TRIPOS>BOND
     1     1     2    2
     2     2     3    2
     3     2    17    1
     4    17    18    1
     5    18    19   ar
     6    19    20   ar
     7    20    21   ar
     8    21    22   ar
     9    22    23   ar
    10    22    24    1
    11    24    25    1
    12    25    26    1
    13    26    27    1
    14    27    28    1
    15     2     4    1
    16     4     5   ar
    17     5     6   ar
    18     6     7   ar
    19     7    10    1
    20    10    11   ar
    21    11    12   ar
    22    12    13   ar
    23    13    14    1
    24    13    15   ar
    25    15    16   ar
    26     7     8   ar
    27     8     9   ar
    28    23    18   ar
    29     9     4   ar
    30    28    21    1
    31    16    10   ar
    32    26    29    1
@<TRIPOS>MOLECULE
*****
 29 32 0 0 0
SMALL
GASTEIGER

@<TRIPOS>ATOM
      1 O           7.0309   -1.8579   22.1830 O.2     1  UNL1       -0.1683
      2 S           6.2800   -3.1485   22.0399 S.O2    1  UNL1        0.0129
      3 O           5.5291   -4.4391   21.8968 O.2     1  UNL1       -0.1683
      4 C           6.3660   -3.3629   23.5221 C.ar    1  UNL1        0.1060
      5 C           5.8224   -2.3282   24.4623 C.ar    1  UNL1        0.0184
      6 C           5.9085   -2.5427   25.9444 C.ar    1  UNL1        0.0013
      7 C           6.5380   -3.7916   26.4863 C.ar    1  UNL1        0.0001
      8 C           7.0816   -4.8263   25.5460 C.ar    1  UNL1        0.0013
      9 C           6.9956   -4.6119   24.0639 C.ar    1  UNL1        0.0184
     10 C           6.6241   -4.0061   27.9684 C.ar    1  UNL1        0.0001
     11 C           6.5262   -2.8364   28.9023 C.ar    1  UNL1        0.0023
     12 C           6.6122   -3.0507   30.3844 C.ar    1  UNL1        0.0296
     13 C           6.7961   -4.4349   30.9326 C.ar    1  UNL1        0.1401
     14 F           6.8822   -4.6492   32.4147 F       1  UNL1       -0.2042
     15 C           6.8940   -5.6046   29.9986 C.ar    1  UNL1        0.0296
     16 C           6.8079   -5.3901   28.5166 C.ar    1  UNL1        0.0023
     17 C           6.1940   -2.9341   20.5578 C.3     1  UNL1        0.1822
     18 C           5.2737   -1.8872   20.0037 C.ar    1  UNL1        0.0014
     19 C           5.7399   -0.9891   18.8964 C.ar    1  UNL1       -0.0029
     20 C           4.8196    0.0579   18.3422 C.ar    1  UNL1       -0.0048
     21 C           3.4332    0.2066   18.8953 C.ar    1  UNL1       -0.0247
     22 C           2.9672   -0.6915   20.0025 C.ar    1  UNL1       -0.0250
     23 C           3.8874   -1.7384   20.5567 C.ar    1  UNL1       -0.0071
     24 C           1.6353   -0.7119   20.6924 C.3     1  UNL1        0.0431
     25 C           0.4407    0.1611   20.4454 C.3     1  UNL1        0.0733
     26 N           0.2829    1.2697   19.4475 N.3     1  UNL1       -0.2969
     27 C           1.2806    1.7794   18.4501 C.3     1  UNL1        0.0733
     28 C           2.6827    1.3063   18.2044 C.3     1  UNL1        0.0431
     29 H           0.0428    2.0866   20.0091 H       1  UNL1        0.1233
@<TRIPOS>BOND
     1     1     2    2
     2     2     3    2
     3     2    17    1
     4    17    18    1
     5    18    19   ar
     6    19    20   ar
     7    20    21   ar
     8    21    22   ar
     9    22    23   ar
    10    22    24    1
    11    24    25    1
    12    25    26    1
    13    26    27    1
    14    27    28    1
    15     2     4    1
    16     4     5   ar
    17     5     6   ar
    18     6     7   ar
    19     7    10    1
    20    10    11   ar
    21    11    12   ar
    22    12    13   ar
    23    13    14    1
    24    13    15   ar
    25    15    16   ar
    26     7     8   ar
    27     8     9   ar
    28    23    18   ar
    29     9     4   ar
    30    28    21    1
    31    16    10   ar
    32    26    29    1
@<TRIPOS>MOLECULE
*****
 29 32 0 0 0
SMALL
GASTEIGER

@<TRIPOS>ATOM
      1 O           2.1302    3.1392   20.3430 O.2     1  UNL1       -0.1683
      2 S           1.1105    2.1874   19.7915 S.O2    1  UNL1        0.0129
      3 O           0.0907    1.2356   19.2399 O.2     1  UNL1       -0.1683
      4 C           0.1614    2.5684   20.8888 C.ar    1  UNL1        0.1060
      5 C           0.5994    2.4869   22.3211 C.ar    1  UNL1        0.0184
      6 C          -0.3497    2.8679   23.4184 C.ar    1  UNL1        0.0013
      7 C          -1.7368    3.3303   23.0835 C.ar    1  UNL1        0.0001
      8 C          -2.1748    3.4118   21.6511 C.ar    1  UNL1        0.0013
      9 C          -1.2257    3.0308   20.5538 C.ar    1  UNL1        0.0184
     10 C          -2.6859    3.7113   24.1807 C.ar    1  UNL1        0.0001
     11 C          -4.1587    3.4824   24.0114 C.ar    1  UNL1        0.0023
     12 C          -5.1079    3.8634   25.1086 C.ar    1  UNL1        0.0296
     13 C          -4.5844    4.4733   26.3751 C.ar    1  UNL1        0.1401
     14 F          -5.5336    4.8543   27.4723 F       1  UNL1       -0.2042
     15 C          -3.1116    4.7022   26.5443 C.ar    1  UNL1        0.0296
     16 C          -2.1625    4.3212   25.4472 C.ar    1  UNL1        0.0023
     17 C           2.0595    1.8064   18.6941 C.3     1  UNL1        0.1822
     18 C           2.7952    0.5008   18.7586 C.ar    1  UNL1        0.0014
     19 C           3.3115   -0.1320   17.5004 C.ar    1  UNL1       -0.0029
     20 C           4.0473   -1.4376   17.5648 C.ar    1  UNL1       -0.0048
     21 C           4.2666   -2.1104   18.8875 C.ar    1  UNL1       -0.0247
     22 C           3.7504   -1.4776   20.1455 C.ar    1  UNL1       -0.0250
     23 C           3.0147   -0.1720   20.0812 C.ar    1  UNL1       -0.0071
     24 C           3.8596   -1.9761   21.5561 C.3     1  UNL1        0.0431
     25 C           4.5121   -3.2305   22.0568 C.3     1  UNL1        0.0733
     26 N           5.2165   -4.2962   21.2707 N.3     1  UNL1       -0.2969
     27 C           5.4424   -4.3707   19.7897 C.3     1  UNL1        0.0733
     28 C           5.0197   -3.3980   18.7290 C.3     1  UNL1        0.0431
     29 H           4.7134   -5.1544   21.4960 H       1  UNL1        0.1233
@<TRIPOS>BOND
     1     1     2    2
     2     2     3    2
     3     2    17    1
     4    17    18    1
     5    18    19   ar
     6    19    20   ar
     7    20    21   ar
     8    21    22   ar
     9    22    23   ar
    10    22    24    1
    11    24    25    1
    12    25    26    1
    13    26    27    1
    14    27    28    1
    15     2     4    1
    16     4     5   ar
    17     5     6   ar
    18     6     7   ar
    19     7    10    1
    20    10    11   ar
    21    11    12   ar
    22    12    13   ar
    23    13    14    1
    24    13    15   ar
    25    15    16   ar
    26     7     8   ar
    27     8     9   ar
    28    23    18   ar
    29     9     4   ar
    30    28    21    1
    31    16    10   ar
    32    26    29    1
@<TRIPOS>MOLECULE
*****
 29 32 0 0 0
SMALL
GASTEIGER

@<TRIPOS>ATOM
      1 O           1.9420    3.4028   20.4233 O.2     1  UNL1       -0.1683
      2 S           1.2715    2.5885   19.3568 S.O2    1  UNL1        0.0129
      3 O           0.6011    1.7742   18.2903 O.2     1  UNL1       -0.1683
      4 C          -0.0649    2.8875   19.9687 C.ar    1  UNL1        0.1060
      5 C          -0.2491    2.7875   21.4540 C.ar    1  UNL1        0.0184
      6 C          -1.5856    3.0865   22.0658 C.ar    1  UNL1        0.0013
      7 C          -2.7379    3.4856   21.1924 C.ar    1  UNL1        0.0001
      8 C          -2.5538    3.5857   19.7071 C.ar    1  UNL1        0.0013
      9 C          -1.2173    3.2867   19.0952 C.ar    1  UNL1        0.0184
     10 C          -4.0745    3.7847   21.8042 C.ar    1  UNL1        0.0001
     11 C          -4.2675    3.6523   23.2859 C.ar    1  UNL1        0.0023
     12 C          -5.6040    3.9513   23.8977 C.ar    1  UNL1        0.0296
     13 C          -6.7474    4.3828   23.0279 C.ar    1  UNL1        0.1401
     14 F          -8.0839    4.6818   23.6398 F       1  UNL1       -0.2042
     15 C          -6.5543    4.5152   21.5463 C.ar    1  UNL1        0.0296
     16 C          -5.2179    4.2161   20.9345 C.ar    1  UNL1        0.0023
     17 C           2.6080    2.2895   18.7449 C.3     1  UNL1        0.1822
     18 C           3.1516    0.8918   18.7768 C.ar    1  UNL1        0.0014
     19 C           3.5806    0.2248   17.5035 C.ar    1  UNL1       -0.0029
     20 C           4.1242   -1.1729   17.5353 C.ar    1  UNL1       -0.0048
     21 C           4.2386   -1.9036   18.8404 C.ar    1  UNL1       -0.0247
     22 C           3.8096   -1.2366   20.1134 C.ar    1  UNL1       -0.0250
     23 C           3.2661    0.1610   20.0817 C.ar    1  UNL1       -0.0071
     24 C           3.8391   -1.7815   21.5107 C.3     1  UNL1        0.0431
     25 C           4.3050   -3.1280   21.9798 C.3     1  UNL1        0.0733
     26 N           4.8563   -4.2620   21.1676 N.3     1  UNL1       -0.2969
     27 C           5.0781   -4.3299   19.6856 C.3     1  UNL1        0.0733
     28 C           4.8032   -3.2803   18.6499 C.3     1  UNL1        0.0431
     29 H           4.2358   -5.0461   21.3692 H       1  UNL1        0.1233
@<TRIPOS>BOND
     1     1     2    2
     2     2     3    2
     3     2    17    1
     4    17    18    1
     5    18    19   ar
     6    19    20   ar
     7    20    21   ar
     8    21    22   ar
     9    22    23   ar
    10    22    24    1
    11    24    25    1
    12    25    26    1
    13    26    27    1
    14    27    28    1
    15     2     4    1
    16     4     5   ar
    17     5     6   ar
    18     6     7   ar
    19     7    10    1
    20    10    11   ar
    21    11    12   ar
    22    12    13   ar
    23    13    14    1
    24    13    15   ar
    25    15    16   ar
    26     7     8   ar
    27     8     9   ar
    28    23    18   ar
    29     9     4   ar
    30    28    21    1
    31    16    10   ar
    32    26    29    1
@<TRIPOS>MOLECULE
*****
 29 32 0 0 0
SMALL
GASTEIGER

@<TRIPOS>ATOM
      1 O           1.5744    0.5731   26.4703 O.2     1  UNL1       -0.1683
      2 S           1.9906    1.6108   25.4703 S.O2    1  UNL1        0.0129
      3 O           2.4068    2.6485   24.4703 O.2     1  UNL1       -0.1683
      4 C           0.6124    2.2016   25.5098 C.ar    1  UNL1        0.1060
      5 C          -0.1423    2.2586   26.8049 C.ar    1  UNL1        0.0184
      6 C          -1.5205    2.8494   26.8442 C.ar    1  UNL1        0.0013
      7 C          -2.1440    3.3832   25.5887 C.ar    1  UNL1        0.0001
      8 C          -1.3892    3.3262   24.2937 C.ar    1  UNL1        0.0013
      9 C          -0.0110    2.7354   24.2542 C.ar    1  UNL1        0.0184
     10 C          -3.5222    3.9740   25.6281 C.ar    1  UNL1        0.0001
     11 C          -3.9415    4.8222   26.7921 C.ar    1  UNL1        0.0023
     12 C          -5.3197    5.4130   26.8316 C.ar    1  UNL1        0.0296
     13 C          -6.2785    5.1557   25.7071 C.ar    1  UNL1        0.1401
     14 F          -7.6567    5.7466   25.7465 F       1  UNL1       -0.2042
     15 C          -5.8591    4.3075   24.5431 C.ar    1  UNL1        0.0296
     16 C          -4.4810    3.7167   24.5037 C.ar    1  UNL1        0.0023
     17 C           3.3688    1.0200   25.4308 C.3     1  UNL1        0.1822
     18 C           3.6619   -0.1400   24.5261 C.ar    1  UNL1        0.0014
     19 C           4.4679   -1.2999   25.0310 C.ar    1  UNL1       -0.0029
     20 C           4.7610   -2.4600   24.1262 C.ar    1  UNL1       -0.0048
     21 C           4.2480   -2.4599   22.7166 C.ar    1  UNL1       -0.0247
     22 C           3.4421   -1.3000   22.2118 C.ar    1  UNL1       -0.0250
     23 C           3.1490   -0.1400   23.1165 C.ar    1  UNL1       -0.0071
     24 C           2.8403   -1.1004   20.8523 C.3     1  UNL1        0.0431
     25 C           2.8959   -2.0115   19.6620 C.3     1  UNL1        0.0733
     26 N           3.5670   -3.3471   19.5372 N.3     1  UNL1       -0.2969
     27 C           4.3483   -4.1017   20.5717 C.3     1  UNL1        0.0733
     28 C           4.6514   -3.7068   21.9867 C.3     1  UNL1        0.0431
     29 H           4.2160   -3.2351   18.7583 H       1  UNL1        0.1233
@<TRIPOS>BOND
     1     1     2    2
     2     2     3    2
     3     2    17    1
     4    17    18    1
     5    18    19   ar
     6    19    20   ar
     7    20    21   ar
     8    21    22   ar
     9    22    23   ar
    10    22    24    1
    11    24    25    1
    12    25    26    1
    13    26    27    1
    14    27    28    1
    15     2     4    1
    16     4     5   ar
    17     5     6   ar
    18     6     7   ar
    19     7    10    1
    20    10    11   ar
    21    11    12   ar
    22    12    13   ar
    23    13    14    1
    24    13    15   ar
    25    15    16   ar
    26     7     8   ar
    27     8     9   ar
    28    23    18   ar
    29     9     4   ar
    30    28    21    1
    31    16    10   ar
    32    26    29    1
