@<TRIPOS>MOLECULE
*****
 29 32 0 0 0
SMALL
GASTEIGER

@<TRIPOS>ATOM
      1 C          -7.5891  -19.2957   21.8172 C.2     1  UNL1        0.2551
      2 O          -8.3450  -20.0140   22.8955 O.2     1  UNL1       -0.2696
      3 N          -8.0104  -17.9192   21.3956 N.am    1  UNL1       -0.2656
      4 H          -7.5143  -17.4477   20.6879 H       1  UNL1        0.1566
      5 C          -2.8641  -18.1167   21.8316 C.ar    1  UNL1        0.1318
      6 C          -2.0246  -19.0667   21.0299 C.ar    1  UNL1        0.0548
      7 C          -2.6663  -20.2294   20.3325 C.ar    1  UNL1        0.1049
      8 N          -4.1474  -20.4421   20.4368 N.ar    1  UNL1       -0.2104
      9 N          -5.0536  -21.4909   19.8634 N.ar    1  UNL1       -0.1619
     10 C          -6.4532  -21.1891   20.3107 C.ar    1  UNL1        0.1281
     11 C          -6.4120  -19.9538   21.1605 C.ar    1  UNL1        0.1103
     12 C          -4.9869  -19.4921   21.2384 C.ar    1  UNL1        0.1710
     13 N          -4.3452  -18.3294   21.9359 N.ar    1  UNL1       -0.2118
     14 C          -1.7270  -15.7827   21.7336 C.3     1  UNL1        0.1096
     15 N          -2.2224  -16.9540   22.5290 N.pl3   1  UNL1       -0.3166
     16 H          -2.1264  -16.9596   23.5088 H       1  UNL1        0.1482
     17 C          -9.1875  -17.2610   22.0522 C.ar    1  UNL1        0.1370
     18 C         -10.6143  -17.3507   21.5982 C.ar    1  UNL1        0.0509
     19 C         -11.4532  -16.5427   22.5435 C.ar    1  UNL1        0.0822
     20 C         -12.9396  -16.3565   22.4644 C.3     1  UNL1        0.0540
     21 N         -10.5448  -15.9536   23.5815 N.ar    1  UNL1       -0.1683
     22 N          -9.1445  -16.3975   23.2779 N.ar    1  UNL1       -0.2162
     23 C          -7.9168  -16.0406   24.0624 C.ar    1  UNL1        0.0850
     24 C          -6.6052  -15.8538   23.3588 C.ar    1  UNL1        0.0193
     25 C          -5.3776  -15.4969   24.1432 C.ar    1  UNL1        0.0024
     26 C          -5.4614  -15.3268   25.6312 C.ar    1  UNL1        0.0115
     27 C          -6.7730  -15.5135   26.3348 C.ar    1  UNL1        0.0592
     28 CL         -6.8568  -15.3434   27.8227 Cl      1  UNL1       -0.0822
     29 C          -8.0006  -15.8705   25.5503 C.ar    1  UNL1        0.0306
@<TRIPOS>BOND
     1    14    15    1
     2    15     5    1
     3     5     6   ar
     4     6     7   ar
     5     7     8   ar
     6     8     9   ar
     7     9    10   ar
     8    10    11   ar
     9    11     1    1
    10     1     2    2
    11     1     3   am
    12     3    17    1
    13    17    18   ar
    14    18    19   ar
    15    19    20    1
    16    19    21   ar
    17    21    22   ar
    18    22    23    1
    19    23    24   ar
    20    24    25   ar
    21    25    26   ar
    22    26    27   ar
    23    27    28    1
    24    27    29   ar
    25    11    12   ar
    26    12    13   ar
    27    13     5   ar
    28    12     8   ar
    29    22    17   ar
    30    29    23   ar
    31    15    16    1
    32     3     4    1
@<TRIPOS>MOLECULE
*****
 29 32 0 0 0
SMALL
GASTEIGER

@<TRIPOS>ATOM
      1 C          -7.3704  -18.7477   22.5555 C.2     1  UNL1        0.2551
      2 O          -8.4016  -19.4847   23.3578 O.2     1  UNL1       -0.2696
      3 N          -7.0761  -17.3076   22.8546 N.am    1  UNL1       -0.2656
      4 H          -6.3993  -16.8239   22.3280 H       1  UNL1        0.1566
      5 C          -2.7738  -18.3034   21.0097 C.ar    1  UNL1        0.1318
      6 C          -2.4546  -19.2157   19.8626 C.ar    1  UNL1        0.0548
      7 C          -3.5090  -20.1332   19.3181 C.ar    1  UNL1        0.1049
      8 N          -4.8826  -20.1384   19.9207 N.ar    1  UNL1       -0.2104
      9 N          -6.1172  -20.9269   19.5982 N.ar    1  UNL1       -0.1619
     10 C          -7.1994  -20.5019   20.5460 C.ar    1  UNL1        0.1281
     11 C          -6.6337  -19.4507   21.4542 C.ar    1  UNL1        0.1103
     12 C          -5.2018  -19.2261   21.0678 C.ar    1  UNL1        0.1710
     13 N          -4.1474  -18.3086   21.6122 N.ar    1  UNL1       -0.2118
     14 C          -2.0607  -15.9630   21.8836 C.3     1  UNL1        0.1096
     15 N          -1.7194  -17.3859   21.5541 N.pl3   1  UNL1       -0.3166
     16 H          -0.8033  -17.7177   21.6952 H       1  UNL1        0.1482
     17 C          -7.8128  -16.6044   23.9558 C.ar    1  UNL1        0.1370
     18 C          -7.2157  -16.1087   25.2395 C.ar    1  UNL1        0.0509
     19 C          -8.3098  -15.4715   26.0439 C.ar    1  UNL1        0.0822
     20 C          -8.1573  -14.8427   27.3973 C.3     1  UNL1        0.0540
     21 N          -9.5829  -15.5733   25.2573 N.ar    1  UNL1       -0.1683
     22 N          -9.2757  -16.2735   23.9668 N.ar    1  UNL1       -0.2162
     23 C         -10.2590  -16.5877   22.8784 C.ar    1  UNL1        0.0850
     24 C         -11.3212  -17.6226   23.1031 C.ar    1  UNL1        0.0193
     25 C         -12.3044  -17.9367   22.0147 C.ar    1  UNL1        0.0024
     26 C         -12.2254  -17.2159   20.7017 C.ar    1  UNL1        0.0115
     27 C         -11.1630  -16.1809   20.4769 C.ar    1  UNL1        0.0592
     28 CL        -11.0840  -15.4601   19.1638 Cl      1  UNL1       -0.0822
     29 C         -10.1799  -15.8668   21.5654 C.ar    1  UNL1        0.0306
@<TRIPOS>BOND
     1    14    15    1
     2    15     5    1
     3     5     6   ar
     4     6     7   ar
     5     7     8   ar
     6     8     9   ar
     7     9    10   ar
     8    10    11   ar
     9    11     1    1
    10     1     2    2
    11     1     3   am
    12     3    17    1
    13    17    18   ar
    14    18    19   ar
    15    19    20    1
    16    19    21   ar
    17    21    22   ar
    18    22    23    1
    19    23    24   ar
    20    24    25   ar
    21    25    26   ar
    22    26    27   ar
    23    27    28    1
    24    27    29   ar
    25    11    12   ar
    26    12    13   ar
    27    13     5   ar
    28    12     8   ar
    29    22    17   ar
    30    29    23   ar
    31    15    16    1
    32     3     4    1
@<TRIPOS>MOLECULE
*****
 29 32 0 0 0
SMALL
GASTEIGER

@<TRIPOS>ATOM
      1 C          -7.6702  -19.3725   21.8473 C.2     1  UNL1        0.2551
      2 O          -8.3486  -20.0897   22.9767 O.2     1  UNL1       -0.2696
      3 N          -8.1861  -18.0415   21.3866 N.am    1  UNL1       -0.2656
      4 H          -7.7408  -17.5708   20.6453 H       1  UNL1        0.1566
      5 C          -2.9941  -18.0129   21.8070 C.ar    1  UNL1        0.1318
      6 C          -2.1277  -18.9317   20.9976 C.ar    1  UNL1        0.0548
      7 C          -2.7319  -20.1196   20.3093 C.ar    1  UNL1        0.1049
      8 N          -4.2025  -20.3889   20.4305 N.ar    1  UNL1       -0.2104
      9 N          -5.0741  -21.4729   19.8690 N.ar    1  UNL1       -0.1619
     10 C          -6.4792  -21.2241   20.3314 C.ar    1  UNL1        0.1281
     11 C          -6.4760  -19.9863   21.1787 C.ar    1  UNL1        0.1103
     12 C          -5.0689  -19.4701   21.2399 C.ar    1  UNL1        0.1710
     13 N          -4.4647  -18.2822   21.9281 N.ar    1  UNL1       -0.2118
     14 C          -1.5537  -15.8526   21.7173 C.3     1  UNL1        0.1096
     15 N          -2.3899  -16.8250   22.4952 N.pl3   1  UNL1       -0.3166
     16 H          -2.5422  -16.6835   23.4576 H       1  UNL1        0.1482
     17 C          -9.3803  -17.4276   22.0551 C.ar    1  UNL1        0.1370
     18 C         -10.8087  -17.5833   21.6246 C.ar    1  UNL1        0.0509
     19 C         -11.6670  -16.8022   22.5750 C.ar    1  UNL1        0.0822
     20 C         -13.1610  -16.6808   22.5175 C.3     1  UNL1        0.0540
     21 N         -10.7690  -16.1638   23.5928 N.ar    1  UNL1       -0.1683
     22 N          -9.3557  -16.5503   23.2716 N.ar    1  UNL1       -0.2162
     23 C          -8.1326  -16.1328   24.0330 C.ar    1  UNL1        0.0850
     24 C          -8.1390  -16.1549   25.5328 C.ar    1  UNL1        0.0193
     25 C          -6.9160  -15.7374   26.2942 C.ar    1  UNL1        0.0024
     26 C          -5.6866  -15.2979   25.5559 C.ar    1  UNL1        0.0115
     27 C          -5.6801  -15.2758   24.0560 C.ar    1  UNL1        0.0592
     28 CL         -4.4506  -14.8363   23.3177 Cl      1  UNL1       -0.0822
     29 C          -6.9032  -15.6933   23.2946 C.ar    1  UNL1        0.0306
@<TRIPOS>BOND
     1    14    15    1
     2    15     5    1
     3     5     6   ar
     4     6     7   ar
     5     7     8   ar
     6     8     9   ar
     7     9    10   ar
     8    10    11   ar
     9    11     1    1
    10     1     2    2
    11     1     3   am
    12     3    17    1
    13    17    18   ar
    14    18    19   ar
    15    19    20    1
    16    19    21   ar
    17    21    22   ar
    18    22    23    1
    19    23    24   ar
    20    24    25   ar
    21    25    26   ar
    22    26    27   ar
    23    27    28    1
    24    27    29   ar
    25    11    12   ar
    26    12    13   ar
    27    13     5   ar
    28    12     8   ar
    29    22    17   ar
    30    29    23   ar
    31    15    16    1
    32     3     4    1
@<TRIPOS>MOLECULE
*****
 29 32 0 0 0
SMALL
GASTEIGER

@<TRIPOS>ATOM
      1 C          -8.0554  -19.1052   20.7060 C.2     1  UNL1        0.2551
      2 O          -9.2232  -19.9596   20.3107 O.2     1  UNL1       -0.2696
      3 N          -8.2794  -17.6957   21.1676 N.am    1  UNL1       -0.2656
      4 H          -7.5129  -17.1350   21.4270 H       1  UNL1        0.1566
      5 C          -3.9511  -17.6824   22.9076 C.ar    1  UNL1        0.1318
      6 C          -2.7719  -18.5375   22.5497 C.ar    1  UNL1        0.0548
      7 C          -2.9401  -19.6888   21.6030 C.ar    1  UNL1        0.1049
      8 N          -4.2875  -19.9850   21.0142 N.ar    1  UNL1       -0.2104
      9 N          -4.7554  -21.0440   20.0605 N.ar    1  UNL1       -0.1619
     10 C          -6.2238  -20.8433   19.8289 C.ar    1  UNL1        0.1281
     11 C          -6.6635  -19.6603   20.6395 C.ar    1  UNL1        0.1103
     12 C          -5.4667  -19.1298   21.3721 C.ar    1  UNL1        0.1710
     13 N          -5.2985  -17.9785   22.3188 N.ar    1  UNL1       -0.2118
     14 C          -4.9407  -15.6222   24.1430 C.3     1  UNL1        0.1096
     15 N          -3.7829  -16.5311   23.8543 N.pl3   1  UNL1       -0.3166
     16 H          -2.9126  -16.3719   24.2861 H       1  UNL1        0.1482
     17 C          -9.6713  -17.1406   21.2341 C.ar    1  UNL1        0.1370
     18 C         -10.5412  -16.7990   20.0608 C.ar    1  UNL1        0.0509
     19 C         -11.8452  -16.2768   20.5870 C.ar    1  UNL1        0.0822
     20 C         -13.0089  -15.8166   19.7599 C.3     1  UNL1        0.0540
     21 N         -11.7812  -16.2956   22.0855 N.ar    1  UNL1       -0.1683
     22 N         -10.4376  -16.8294   22.4854 N.ar    1  UNL1       -0.2162
     23 C          -9.9467  -17.0189   23.8901 C.ar    1  UNL1        0.0850
     24 C         -10.2951  -18.2677   24.6444 C.ar    1  UNL1        0.0193
     25 C          -9.8042  -18.4571   26.0490 C.ar    1  UNL1        0.0024
     26 C          -8.9647  -17.3977   26.6994 C.ar    1  UNL1        0.0115
     27 C          -8.6162  -16.1488   25.9450 C.ar    1  UNL1        0.0592
     28 CL         -7.7767  -15.0895   26.5954 Cl      1  UNL1       -0.0822
     29 C          -9.1072  -15.9595   24.5404 C.ar    1  UNL1        0.0306
@<TRIPOS>BOND
     1    14    15    1
     2    15     5    1
     3     5     6   ar
     4     6     7   ar
     5     7     8   ar
     6     8     9   ar
     7     9    10   ar
     8    10    11   ar
     9    11     1    1
    10     1     2    2
    11     1     3   am
    12     3    17    1
    13    17    18   ar
    14    18    19   ar
    15    19    20    1
    16    19    21   ar
    17    21    22   ar
    18    22    23    1
    19    23    24   ar
    20    24    25   ar
    21    25    26   ar
    22    26    27   ar
    23    27    28    1
    24    27    29   ar
    25    11    12   ar
    26    12    13   ar
    27    13     5   ar
    28    12     8   ar
    29    22    17   ar
    30    29    23   ar
    31    15    16    1
    32     3     4    1
@<TRIPOS>MOLECULE
*****
 29 32 0 0 0
SMALL
GASTEIGER

@<TRIPOS>ATOM
      1 C          -7.5371  -18.4657   21.9675 C.2     1  UNL1        0.2551
      2 O          -7.4051  -17.0692   21.4361 O.2     1  UNL1       -0.2696
      3 N          -6.3499  -19.3825   21.9702 N.am    1  UNL1       -0.2656
      4 H          -6.4366  -20.2990   22.3190 H       1  UNL1        0.1566
      5 C         -12.0812  -17.0273   20.9683 C.ar    1  UNL1        0.1318
      6 C         -13.1166  -17.7926   21.7379 C.ar    1  UNL1        0.0548
      7 C         -12.6967  -18.8707   22.6926 C.ar    1  UNL1        0.1049
      8 N         -11.2414  -19.1835   22.8777 N.ar    1  UNL1       -0.2104
      9 N         -10.5316  -20.1837   23.7413 N.ar    1  UNL1       -0.1619
     10 C          -9.0576  -20.0365   23.5054 C.ar    1  UNL1        0.1281
     11 C          -8.8563  -18.9454   22.4961 C.ar    1  UNL1        0.1103
     12 C         -10.2060  -18.4182   22.1081 C.ar    1  UNL1        0.1710
     13 N         -10.6260  -17.3401   21.1534 N.ar    1  UNL1       -0.2118
     14 C         -11.5299  -15.4284   18.9961 C.3     1  UNL1        0.1096
     15 N         -12.5012  -15.9492   20.0137 N.pl3   1  UNL1       -0.3166
     16 H         -13.4142  -15.5834   20.0550 H       1  UNL1        0.1482
     17 C          -5.0306  -18.9028   21.4416 C.ar    1  UNL1        0.1370
     18 C          -4.4453  -19.2335   20.1008 C.ar    1  UNL1        0.0509
     19 C          -3.1179  -18.5434   19.9915 C.ar    1  UNL1        0.0822
     20 C          -2.1887  -18.6004   18.8153 C.3     1  UNL1        0.0540
     21 N          -2.8830  -17.7862   21.2649 N.ar    1  UNL1       -0.1683
     22 N          -4.0651  -18.0083   22.1611 N.ar    1  UNL1       -0.2162
     23 C          -4.2493  -17.4364   23.5355 C.ar    1  UNL1        0.0850
     24 C          -3.4187  -17.9442   24.6767 C.ar    1  UNL1        0.0193
     25 C          -3.6029  -17.3723   26.0510 C.ar    1  UNL1        0.0024
     26 C          -4.6177  -16.2926   26.2842 C.ar    1  UNL1        0.0115
     27 C          -5.4484  -15.7848   25.1430 C.ar    1  UNL1        0.0592
     28 CL         -6.4632  -14.7051   25.3763 Cl      1  UNL1       -0.0822
     29 C          -5.2641  -16.3568   23.7687 C.ar    1  UNL1        0.0306
@<TRIPOS>BOND
     1    14    15    1
     2    15     5    1
     3     5     6   ar
     4     6     7   ar
     5     7     8   ar
     6     8     9   ar
     7     9    10   ar
     8    10    11   ar
     9    11     1    1
    10     1     2    2
    11     1     3   am
    12     3    17    1
    13    17    18   ar
    14    18    19   ar
    15    19    20    1
    16    19    21   ar
    17    21    22   ar
    18    22    23    1
    19    23    24   ar
    20    24    25   ar
    21    25    26   ar
    22    26    27   ar
    23    27    28    1
    24    27    29   ar
    25    11    12   ar
    26    12    13   ar
    27    13     5   ar
    28    12     8   ar
    29    22    17   ar
    30    29    23   ar
    31    15    16    1
    32     3     4    1
@<TRIPOS>MOLECULE
*****
 29 32 0 0 0
SMALL
GASTEIGER

@<TRIPOS>ATOM
      1 C          -8.3657  -18.6907   21.5929 C.2     1  UNL1        0.2551
      2 O          -8.1924  -19.6642   22.7208 O.2     1  UNL1       -0.2696
      3 N          -7.1630  -18.0659   20.9500 N.am    1  UNL1       -0.2656
      4 H          -7.2768  -17.4270   20.2097 H       1  UNL1        0.1566
      5 C         -12.6154  -18.4669   23.9607 C.ar    1  UNL1        0.1318
      6 C         -13.7567  -18.0702   23.0721 C.ar    1  UNL1        0.0548
      7 C         -13.5137  -17.7918   21.6183 C.ar    1  UNL1        0.1049
      8 N         -12.1293  -17.9103   21.0532 N.ar    1  UNL1       -0.2104
      9 N         -11.5884  -17.6999   19.6700 N.ar    1  UNL1       -0.1619
     10 C         -10.1127  -17.9666   19.7039 C.ar    1  UNL1        0.1281
     11 C          -9.7416  -18.3418   21.1079 C.ar    1  UNL1        0.1103
     12 C         -10.9880  -18.3070   21.9418 C.ar    1  UNL1        0.1710
     13 N         -11.2310  -18.5854   23.3956 N.ar    1  UNL1       -0.2118
     14 C         -14.2149  -18.5047   26.0077 C.3     1  UNL1        0.1096
     15 N         -12.8584  -18.7453   25.4145 N.pl3   1  UNL1       -0.3166
     16 H         -12.1275  -19.0858   25.9794 H       1  UNL1        0.1482
     17 C          -5.7871  -18.4147   21.4350 C.ar    1  UNL1        0.1370
     18 C          -4.8274  -19.3525   20.7645 C.ar    1  UNL1        0.0509
     19 C          -3.5765  -19.4043   21.5907 C.ar    1  UNL1        0.0822
     20 C          -2.3536  -20.2190   21.2887 C.3     1  UNL1        0.0540
     21 N          -3.7631  -18.4986   22.7716 N.ar    1  UNL1       -0.1683
     22 N          -5.1294  -17.8869   22.6754 N.ar    1  UNL1       -0.2162
     23 C          -5.7320  -16.9177   23.6488 C.ar    1  UNL1        0.0850
     24 C          -4.8526  -16.1792   24.6138 C.ar    1  UNL1        0.0193
     25 C          -5.4552  -15.2101   25.5871 C.ar    1  UNL1        0.0024
     26 C          -6.9373  -14.9793   25.5955 C.ar    1  UNL1        0.0115
     27 C          -7.8168  -15.7179   24.6305 C.ar    1  UNL1        0.0592
     28 CL         -9.2990  -15.4872   24.6390 Cl      1  UNL1       -0.0822
     29 C          -7.2141  -16.6871   23.6572 C.ar    1  UNL1        0.0306
@<TRIPOS>BOND
     1    14    15    1
     2    15     5    1
     3     5     6   ar
     4     6     7   ar
     5     7     8   ar
     6     8     9   ar
     7     9    10   ar
     8    10    11   ar
     9    11     1    1
    10     1     2    2
    11     1     3   am
    12     3    17    1
    13    17    18   ar
    14    18    19   ar
    15    19    20    1
    16    19    21   ar
    17    21    22   ar
    18    22    23    1
    19    23    24   ar
    20    24    25   ar
    21    25    26   ar
    22    26    27   ar
    23    27    28    1
    24    27    29   ar
    25    11    12   ar
    26    12    13   ar
    27    13     5   ar
    28    12     8   ar
    29    22    17   ar
    30    29    23   ar
    31    15    16    1
    32     3     4    1
@<TRIPOS>MOLECULE
*****
 29 32 0 0 0
SMALL
GASTEIGER

@<TRIPOS>ATOM
      1 C          -6.6849  -18.8968   20.6294 C.2     1  UNL1        0.2551
      2 O          -5.9544  -18.4157   19.4108 O.2     1  UNL1       -0.2696
      3 N          -5.9596  -19.0277   21.9358 N.am    1  UNL1       -0.2656
      4 H          -6.4391  -19.3435   22.7355 H       1  UNL1        0.1566
      5 C         -10.1329  -19.0645   24.0645 C.ar    1  UNL1        0.1318
      6 C         -11.4725  -19.4701   23.5253 C.ar    1  UNL1        0.0548
      7 C         -11.6330  -19.7723   22.0649 C.ar    1  UNL1        0.1049
      8 N         -10.4539  -19.6689   21.1436 N.ar    1  UNL1       -0.2104
      9 N         -10.3085  -19.9034   19.6692 N.ar    1  UNL1       -0.1619
     10 C          -8.8789  -19.6427   19.2971 C.ar    1  UNL1        0.1281
     11 C          -8.1408  -19.2471   20.5415 C.ar    1  UNL1        0.1103
     12 C          -9.1142  -19.2633   21.6827 C.ar    1  UNL1        0.1710
     13 N          -8.9537  -18.9611   23.1432 N.ar    1  UNL1       -0.2118
     14 C          -9.2251  -17.5365   25.9594 C.3     1  UNL1        0.1096
     15 N          -9.9724  -18.7623   25.5249 N.pl3   1  UNL1       -0.3166
     16 H         -10.3575  -19.3685   26.1983 H       1  UNL1        0.1482
     17 C          -4.5037  -18.6774   22.0237 C.ar    1  UNL1        0.1370
     18 C          -3.4083  -19.2401   21.1674 C.ar    1  UNL1        0.0509
     19 C          -2.1152  -18.6134   21.5978 C.ar    1  UNL1        0.0822
     20 C          -0.7632  -18.8885   21.0092 C.3     1  UNL1        0.0540
     21 N          -2.4116  -17.6635   22.7202 N.ar    1  UNL1       -0.1683
     22 N          -3.8877  -17.7030   22.9834 N.ar    1  UNL1       -0.2162
     23 C          -4.6194  -16.9078   24.0237 C.ar    1  UNL1        0.0850
     24 C          -4.1279  -16.8947   25.4409 C.ar    1  UNL1        0.0193
     25 C          -4.8596  -16.0995   26.4811 C.ar    1  UNL1        0.0024
     26 C          -6.0828  -15.3173   26.1043 C.ar    1  UNL1        0.0115
     27 C          -6.5743  -15.3304   24.6871 C.ar    1  UNL1        0.0592
     28 CL         -7.7975  -14.5482   24.3103 Cl      1  UNL1       -0.0822
     29 C          -5.8426  -16.1257   23.6469 C.ar    1  UNL1        0.0306
@<TRIPOS>BOND
     1    14    15    1
     2    15     5    1
     3     5     6   ar
     4     6     7   ar
     5     7     8   ar
     6     8     9   ar
     7     9    10   ar
     8    10    11   ar
     9    11     1    1
    10     1     2    2
    11     1     3   am
    12     3    17    1
    13    17    18   ar
    14    18    19   ar
    15    19    20    1
    16    19    21   ar
    17    21    22   ar
    18    22    23    1
    19    23    24   ar
    20    24    25   ar
    21    25    26   ar
    22    26    27   ar
    23    27    28    1
    24    27    29   ar
    25    11    12   ar
    26    12    13   ar
    27    13     5   ar
    28    12     8   ar
    29    22    17   ar
    30    29    23   ar
    31    15    16    1
    32     3     4    1
@<TRIPOS>MOLECULE
*****
 29 32 0 0 0
SMALL
GASTEIGER

@<TRIPOS>ATOM
      1 C           6.4275   -3.5326   20.2986 C.2     1  UNL1        0.2551
      2 O           5.5501   -4.7472   20.3693 O.2     1  UNL1       -0.2696
      3 N           7.5420   -3.3538   21.2865 N.am    1  UNL1       -0.2656
      4 H           8.1178   -2.5566   21.2400 H       1  UNL1        0.1566
      5 C           2.5227   -0.7799   19.3545 C.ar    1  UNL1        0.1318
      6 C           2.7251    0.1356   18.1837 C.ar    1  UNL1        0.0548
      7 C           4.0303    0.1305   17.4445 C.ar    1  UNL1        0.1049
      8 N           5.1331   -0.7900   17.8761 N.ar    1  UNL1       -0.2104
      9 N           6.5179   -1.0154   17.3455 N.ar    1  UNL1       -0.1619
     10 C           7.1713   -2.0702   18.1883 C.ar    1  UNL1        0.1281
     11 C           6.1904   -2.4967   19.2399 C.ar    1  UNL1        0.1103
     12 C           4.9307   -1.7055   19.0469 C.ar    1  UNL1        0.1710
     13 N           3.6255   -1.7004   19.7861 N.ar    1  UNL1       -0.2118
     14 C           0.4076    0.4850   20.1769 C.3     1  UNL1        0.1096
     15 N           1.2175   -0.7748   20.0937 N.pl3   1  UNL1       -0.3166
     16 H           0.8924   -1.5984   20.5242 H       1  UNL1        0.1482
     17 C           7.7791   -4.3896   22.3452 C.ar    1  UNL1        0.1370
     18 C           8.6553   -5.6000   22.2138 C.ar    1  UNL1        0.0509
     19 C           8.5995   -6.3554   23.5086 C.ar    1  UNL1        0.0822
     20 C           9.3267   -7.6305   23.8174 C.3     1  UNL1        0.0540
     21 N           7.6889   -5.6117   24.4401 N.ar    1  UNL1       -0.1683
     22 N           7.1819   -4.3968   23.7211 N.ar    1  UNL1       -0.2162
     23 C           6.2425   -3.3695   24.2800 C.ar    1  UNL1        0.0850
     24 C           6.3841   -2.9196   25.7039 C.ar    1  UNL1        0.0193
     25 C           5.4448   -1.8923   26.2627 C.ar    1  UNL1        0.0024
     26 C           4.3639   -1.3150   25.3976 C.ar    1  UNL1        0.0115
     27 C           4.2223   -1.7649   23.9737 C.ar    1  UNL1        0.0592
     28 CL          3.1414   -1.1876   23.1086 Cl      1  UNL1       -0.0822
     29 C           5.1617   -2.7923   23.4149 C.ar    1  UNL1        0.0306
@<TRIPOS>BOND
     1    14    15    1
     2    15     5    1
     3     5     6   ar
     4     6     7   ar
     5     7     8   ar
     6     8     9   ar
     7     9    10   ar
     8    10    11   ar
     9    11     1    1
    10     1     2    2
    11     1     3   am
    12     3    17    1
    13    17    18   ar
    14    18    19   ar
    15    19    20    1
    16    19    21   ar
    17    21    22   ar
    18    22    23    1
    19    23    24   ar
    20    24    25   ar
    21    25    26   ar
    22    26    27   ar
    23    27    28    1
    24    27    29   ar
    25    11    12   ar
    26    12    13   ar
    27    13     5   ar
    28    12     8   ar
    29    22    17   ar
    30    29    23   ar
    31    15    16    1
    32     3     4    1
@<TRIPOS>MOLECULE
*****
 29 32 0 0 0
SMALL
GASTEIGER

@<TRIPOS>ATOM
      1 C           4.2173   -0.8944   24.9790 C.2     1  UNL1        0.2551
      2 O           5.0298    0.3404   25.2345 O.2     1  UNL1       -0.2696
      3 N           3.7366   -1.7274   26.1300 N.am    1  UNL1       -0.2656
      4 H           3.2033   -2.5378   25.9623 H       1  UNL1        0.1566
      5 C           1.0164    0.9565   21.8096 C.ar    1  UNL1        0.1318
      6 C           1.0149    0.2343   20.4949 C.ar    1  UNL1        0.0548
      7 C           1.9400   -0.9258   20.2754 C.ar    1  UNL1        0.1049
      8 N           2.8667   -1.3638   21.3705 N.ar    1  UNL1       -0.2104
      9 N           3.8830   -2.4645   21.4451 N.ar    1  UNL1       -0.1619
     10 C           4.5127   -2.4226   22.8059 C.ar    1  UNL1        0.1281
     11 C           3.8855   -1.2961   23.5724 C.ar    1  UNL1        0.1103
     12 C           2.8682   -0.6417   22.6852 C.ar    1  UNL1        0.1710
     13 N           1.9430    0.5185   22.9047 N.ar    1  UNL1       -0.2118
     14 C          -0.7456    2.6333   20.8966 C.3     1  UNL1        0.1096
     15 N           0.0913    2.1166   22.0291 N.pl3   1  UNL1       -0.3166
     16 H           0.0333    2.5389   22.9165 H       1  UNL1        0.1482
     17 C           4.0683   -1.3258   27.5366 C.ar    1  UNL1        0.1370
     18 C           5.3026   -1.7127   28.2961 C.ar    1  UNL1        0.0509
     19 C           5.2212   -1.0928   29.6596 C.ar    1  UNL1        0.0822
     20 C           6.2448   -1.2205   30.7488 C.3     1  UNL1        0.0540
     21 N           3.9367   -0.3228   29.7428 N.ar    1  UNL1       -0.1683
     22 N           3.2241   -0.4668   28.4307 N.ar    1  UNL1       -0.2162
     23 C           1.8999    0.1415   28.0752 C.ar    1  UNL1        0.0850
     24 C           1.8032    1.1168   26.9397 C.ar    1  UNL1        0.0193
     25 C           0.4790    1.7249   26.5841 C.ar    1  UNL1        0.0024
     26 C          -0.7486    1.3579   27.3641 C.ar    1  UNL1        0.0115
     27 C          -0.6519    0.3825   28.4996 C.ar    1  UNL1        0.0592
     28 CL         -1.8795    0.0155   29.2796 Cl      1  UNL1       -0.0822
     29 C           0.6724   -0.2256   28.8551 C.ar    1  UNL1        0.0306
@<TRIPOS>BOND
     1    14    15    1
     2    15     5    1
     3     5     6   ar
     4     6     7   ar
     5     7     8   ar
     6     8     9   ar
     7     9    10   ar
     8    10    11   ar
     9    11     1    1
    10     1     2    2
    11     1     3   am
    12     3    17    1
    13    17    18   ar
    14    18    19   ar
    15    19    20    1
    16    19    21   ar
    17    21    22   ar
    18    22    23    1
    19    23    24   ar
    20    24    25   ar
    21    25    26   ar
    22    26    27   ar
    23    27    28    1
    24    27    29   ar
    25    11    12   ar
    26    12    13   ar
    27    13     5   ar
    28    12     8   ar
    29    22    17   ar
    30    29    23   ar
    31    15    16    1
    32     3     4    1
