@<TRIPOS>MOLECULE
*****
 38 40 0 0 0
SMALL
GASTEIGER

@<TRIPOS>ATOM
      1 C          -9.3058  -19.0909   20.4092 C.3     1  UNL1        0.1811
      2 O          -8.6938  -18.6609   21.7094 O.3     1  UNL1       -0.3784
      3 H          -7.8818  -19.1674   21.8677 H       1  UNL1        0.2106
      4 C          -9.9179  -19.5208   19.1090 C.3     1  UNL1        0.4197
      5 F         -10.5299  -19.9507   17.8088 F       1  UNL1       -0.1676
      6 F         -10.5755  -18.1794   18.9750 F       1  UNL1       -0.1676
      7 F          -9.2602  -20.8622   19.2429 F       1  UNL1       -0.1676
      8 C          -8.1904  -20.0736   20.2091 C.3     1  UNL1        0.0807
      9 C          -2.0423  -18.2261   20.8350 C.2     1  UNL1        0.1857
     10 C          -3.1498  -18.4031   19.8390 C.2     1  UNL1        0.0359
     11 C          -4.4888  -18.9087   20.2881 C.2     1  UNL1        0.0095
     12 C          -5.7606  -19.1820   19.5412 C.2     1  UNL1        0.0124
     13 C          -6.7779  -19.6794   20.5248 C.2     1  UNL1        0.0568
     14 N          -6.1350  -19.7136   21.8796 N.2     1  UNL1       -0.2661
     15 C          -4.7201  -19.2372   21.7333 C.3     1  UNL1        0.1661
     16 C          -3.6126  -19.0601   22.7293 C.2     1  UNL1        0.1025
     17 N          -2.2737  -18.5546   22.2802 N.2     1  UNL1       -0.2281
     18 S          -0.7035  -17.7205   20.3858 S.O2    1  UNL1        0.0250
     19 O          -1.0558  -16.3487   20.8797 O.2     1  UNL1       -0.1672
     20 O          -0.3511  -19.0924   19.8919 O.2     1  UNL1       -0.1672
     21 C           1.8740  -17.6003   20.6899 C.3     1  UNL1        0.0276
     22 C           0.6355  -17.2148   19.9366 C.3     1  UNL1        0.1577
     23 C         -10.4212  -18.1082   20.6093 C.3     1  UNL1        0.0398
     24 C         -11.3019  -18.2094   21.8194 C.3     1  UNL1        0.0216
     25 C         -11.4079  -19.6920   21.6182 C.3     1  UNL1        0.0045
     26 C         -11.1959  -16.7267   22.0206 C.3     1  UNL1        0.0045
     27 C         -12.1826  -18.3107   23.0294 C.ar    1  UNL1       -0.0182
     28 C         -13.6629  -18.1066   22.8988 C.ar    1  UNL1       -0.0018
     29 C         -14.5435  -18.2079   24.1088 C.ar    1  UNL1        0.0293
     30 C         -13.9439  -18.5132   25.4495 C.ar    1  UNL1        0.1403
     31 F         -14.8245  -18.6144   26.6595 F       1  UNL1       -0.2042
     32 C         -12.4636  -18.7172   25.5801 C.ar    1  UNL1        0.0338
     33 C         -11.5829  -18.6159   24.3700 C.ar    1  UNL1        0.0514
     34 C         -10.1026  -18.8200   24.5005 C.2     1  UNL1        0.2425
     35 N          -9.1995  -17.6422   24.7182 N.am    1  UNL1       -0.3253
     36 O          -9.5254  -20.2017   24.4134 O.2     1  UNL1       -0.2704
     37 H          -9.5783  -16.7353   24.7754 H       1  UNL1        0.1453
     38 H          -8.2279  -17.7761   24.8039 H       1  UNL1        0.1453
@<TRIPOS>BOND
     1    21    22    1
     2    22    18    1
     3    18    19    2
     4    18    20    2
     5    18     9    1
     6     9    10    2
     7    10    11    1
     8    11    12    2
     9    12    13    1
    10    13     8    1
    11     8     1    1
    12     1     2    1
    13     1    23    1
    14    23    24    1
    15    24    25    1
    16    24    26    1
    17    24    27    1
    18    27    28   ar
    19    28    29   ar
    20    29    30   ar
    21    30    31    1
    22    30    32   ar
    23    32    33   ar
    24    33    34    1
    25    34    35   am
    26    34    36    2
    27     1     4    1
    28     4     5    1
    29     4     6    1
    30     4     7    1
    31    13    14    2
    32    14    15    1
    33    15    16    1
    34    16    17    2
    35    17     9    1
    36    15    11    1
    37    33    27   ar
    38     2     3    1
    39    35    37    1
    40    35    38    1
@<TRIPOS>MOLECULE
*****
 38 40 0 0 0
SMALL
GASTEIGER

@<TRIPOS>ATOM
      1 C         -10.0372  -18.9374   22.0109 C.3     1  UNL1        0.1811
      2 O          -8.8235  -19.4535   22.7255 O.3     1  UNL1       -0.3784
      3 H          -8.2136  -19.8485   22.0830 H       1  UNL1        0.2106
      4 C         -11.2509  -18.4213   21.2962 C.3     1  UNL1        0.4197
      5 F         -12.4645  -17.9052   20.5817 F       1  UNL1       -0.1676
      6 F         -10.3714  -17.6307   20.3735 F       1  UNL1       -0.1676
      7 F         -12.1303  -19.2119   22.2189 F       1  UNL1       -0.1676
      8 C          -9.4658  -19.4028   20.7044 C.3     1  UNL1        0.0807
      9 C          -3.0875  -19.1272   19.7856 C.2     1  UNL1        0.1857
     10 C          -4.3434  -18.3076   19.7576 C.2     1  UNL1        0.0359
     11 C          -5.6616  -18.9438   20.0860 C.2     1  UNL1        0.0095
     12 C          -7.0559  -18.3932   20.1408 C.2     1  UNL1        0.0124
     13 C          -7.9796  -19.5087   20.5310 C.2     1  UNL1        0.0568
     14 N          -7.1564  -20.7486   20.7174 N.2     1  UNL1       -0.2661
     15 C          -5.7237  -20.3995   20.4423 C.3     1  UNL1        0.1661
     16 C          -4.4677  -21.2191   20.4703 C.2     1  UNL1        0.1025
     17 N          -3.1496  -20.5829   20.1420 N.2     1  UNL1       -0.2281
     18 S          -1.7694  -18.4910   19.4573 S.O2    1  UNL1        0.0250
     19 O          -2.4443  -17.6159   18.4431 O.2     1  UNL1       -0.1672
     20 O          -1.0943  -19.3661   20.4715 O.2     1  UNL1       -0.1672
     21 C           0.4954  -17.4793   20.2301 C.3     1  UNL1        0.0276
     22 C          -0.4512  -17.8548   19.1289 C.3     1  UNL1        0.1577
     23 C         -10.6085  -18.4721   23.3173 C.3     1  UNL1        0.0398
     24 C          -9.7597  -17.6806   24.2677 C.3     1  UNL1        0.0216
     25 C         -10.1831  -16.4117   23.5891 C.3     1  UNL1        0.0045
     26 C          -9.3364  -18.9496   24.9464 C.3     1  UNL1        0.0045
     27 C          -8.9110  -16.8891   25.2181 C.ar    1  UNL1       -0.0182
     28 C          -9.2412  -16.8705   26.6812 C.ar    1  UNL1       -0.0018
     29 C          -8.3924  -16.0790   27.6315 C.ar    1  UNL1        0.0293
     30 C          -7.2135  -15.3062   27.1188 C.ar    1  UNL1        0.1403
     31 F          -6.3647  -14.5147   28.0691 F       1  UNL1       -0.2042
     32 C          -6.8833  -15.3249   25.6557 C.ar    1  UNL1        0.0338
     33 C          -7.7321  -16.1164   24.7053 C.ar    1  UNL1        0.0514
     34 C          -7.4019  -16.1351   23.2422 C.2     1  UNL1        0.2425
     35 N          -7.7501  -14.9582   22.3797 N.am    1  UNL1       -0.3253
     36 O          -6.7236  -17.3305   22.6417 O.2     1  UNL1       -0.2704
     37 H          -8.1954  -14.1736   22.7739 H       1  UNL1        0.1453
     38 H          -7.5335  -14.9705   21.4194 H       1  UNL1        0.1453
@<TRIPOS>BOND
     1    21    22    1
     2    22    18    1
     3    18    19    2
     4    18    20    2
     5    18     9    1
     6     9    10    2
     7    10    11    1
     8    11    12    2
     9    12    13    1
    10    13     8    1
    11     8     1    1
    12     1     2    1
    13     1    23    1
    14    23    24    1
    15    24    25    1
    16    24    26    1
    17    24    27    1
    18    27    28   ar
    19    28    29   ar
    20    29    30   ar
    21    30    31    1
    22    30    32   ar
    23    32    33   ar
    24    33    34    1
    25    34    35   am
    26    34    36    2
    27     1     4    1
    28     4     5    1
    29     4     6    1
    30     4     7    1
    31    13    14    2
    32    14    15    1
    33    15    16    1
    34    16    17    2
    35    17     9    1
    36    15    11    1
    37    33    27   ar
    38     2     3    1
    39    35    37    1
    40    35    38    1
@<TRIPOS>MOLECULE
*****
 38 40 0 0 0
SMALL
GASTEIGER

@<TRIPOS>ATOM
      1 C         -10.5334   -5.6077   17.8415 C.3     1  UNL1        0.1811
      2 O         -11.4662   -4.9218   16.8879 O.3     1  UNL1       -0.3784
      3 H         -11.2887   -3.9682   16.8915 H       1  UNL1        0.2106
      4 C          -9.6005   -6.2936   18.7951 C.3     1  UNL1        0.4197
      5 F          -8.6676   -6.9795   19.7486 F       1  UNL1       -0.1676
      6 F          -9.7046   -5.1291   19.7347 F       1  UNL1       -0.1676
      7 F          -9.4964   -7.4582   17.8555 F       1  UNL1       -0.1676
      8 C          -9.9123   -4.2861   18.1844 C.3     1  UNL1        0.0807
      9 C         -13.4651    1.0820   17.7783 C.2     1  UNL1        0.1857
     10 C         -13.1403   -0.0812   18.6679 C.2     1  UNL1        0.0359
     11 C         -12.1576   -1.1203   18.2152 C.2     1  UNL1        0.0095
     12 C         -11.6431   -2.3679   18.8700 C.2     1  UNL1        0.0124
     13 C         -10.6672   -3.0146   17.9322 C.2     1  UNL1        0.0568
     14 N         -10.5786   -2.1668   16.6980 N.2     1  UNL1       -0.2661
     15 C         -11.4998   -0.9960   16.8729 C.3     1  UNL1        0.1661
     16 C         -11.8246    0.1673   15.9833 C.2     1  UNL1        0.1025
     17 N         -12.8072    1.2062   16.4360 N.2     1  UNL1       -0.2281
     18 S         -14.4477    2.1209   18.2310 S.O2    1  UNL1        0.0250
     19 O         -15.2199    1.0686   18.9700 O.2     1  UNL1       -0.1672
     20 O         -13.6754    3.1734   17.4920 O.2     1  UNL1       -0.1672
     21 C         -15.9887    3.1084   20.0750 C.3     1  UNL1        0.0276
     22 C         -15.4304    3.1599   18.6838 C.3     1  UNL1        0.1577
     23 C         -11.1545   -6.9292   17.4985 C.3     1  UNL1        0.0398
     24 C         -12.5829   -7.2042   17.8646 C.3     1  UNL1        0.0216
     25 C         -12.8949   -7.4973   16.4270 C.3     1  UNL1        0.0045
     26 C         -12.2709   -6.9111   19.3023 C.3     1  UNL1        0.0045
     27 C         -14.0113   -7.4792   18.2306 C.ar    1  UNL1       -0.0182
     28 C         -14.5140   -8.8915   18.2814 C.ar    1  UNL1       -0.0018
     29 C         -15.9424   -9.1665   18.6474 C.ar    1  UNL1        0.0293
     30 C         -16.8682   -8.0291   18.9626 C.ar    1  UNL1        0.1403
     31 F         -18.2966   -8.3041   19.3286 F       1  UNL1       -0.2042
     32 C         -16.3655   -6.6167   18.9118 C.ar    1  UNL1        0.0338
     33 C         -14.9370   -6.3418   18.5458 C.ar    1  UNL1        0.0514
     34 C         -14.4343   -4.9295   18.4950 C.2     1  UNL1        0.2425
     35 N         -14.2797   -4.1424   19.7626 N.am    1  UNL1       -0.3253
     36 O         -14.0862   -4.3042   17.1768 O.2     1  UNL1       -0.2704
     37 H         -14.5082   -4.5528   20.6278 H       1  UNL1        0.1453
     38 H         -13.9498   -3.2154   19.7293 H       1  UNL1        0.1453
@<TRIPOS>BOND
     1    21    22    1
     2    22    18    1
     3    18    19    2
     4    18    20    2
     5    18     9    1
     6     9    10    2
     7    10    11    1
     8    11    12    2
     9    12    13    1
    10    13     8    1
    11     8     1    1
    12     1     2    1
    13     1    23    1
    14    23    24    1
    15    24    25    1
    16    24    26    1
    17    24    27    1
    18    27    28   ar
    19    28    29   ar
    20    29    30   ar
    21    30    31    1
    22    30    32   ar
    23    32    33   ar
    24    33    34    1
    25    34    35   am
    26    34    36    2
    27     1     4    1
    28     4     5    1
    29     4     6    1
    30     4     7    1
    31    13    14    2
    32    14    15    1
    33    15    16    1
    34    16    17    2
    35    17     9    1
    36    15    11    1
    37    33    27   ar
    38     2     3    1
    39    35    37    1
    40    35    38    1
@<TRIPOS>MOLECULE
*****
 38 40 0 0 0
SMALL
GASTEIGER

@<TRIPOS>ATOM
      1 C           4.9505   -2.7654   19.9461 C.3     1  UNL1        0.1811
      2 O           5.1034   -1.5112   20.7545 O.3     1  UNL1       -0.3784
      3 H           6.0264   -1.4201   21.0385 H       1  UNL1        0.2106
      4 C           4.7975   -4.0196   19.1376 C.3     1  UNL1        0.4197
      5 F           4.6445   -5.2738   18.3292 F       1  UNL1       -0.1676
      6 F           5.7904   -3.4985   18.1413 F       1  UNL1       -0.1676
      7 F           3.8047   -4.5407   20.1339 F       1  UNL1       -0.1676
      8 C           6.4103   -3.0594   20.1261 C.3     1  UNL1        0.0807
      9 C           7.9262   -5.8657   25.7323 C.2     1  UNL1        0.1857
     10 C           7.0225   -4.8477   25.1022 C.2     1  UNL1        0.0359
     11 C           7.1104   -4.5762   23.6295 C.2     1  UNL1        0.0095
     12 C           6.3560   -3.6374   22.7352 C.2     1  UNL1        0.0124
     13 C           6.8813   -3.8039   21.3401 C.2     1  UNL1        0.0568
     14 N           7.9603   -4.8453   21.3721 N.2     1  UNL1       -0.2661
     15 C           8.1019   -5.3227   22.7871 C.3     1  UNL1        0.1661
     16 C           9.0055   -6.3407   23.4173 C.2     1  UNL1        0.1025
     17 N           8.9177   -6.6121   24.8899 N.2     1  UNL1       -0.2281
     18 S           7.8383   -6.1371   27.2049 S.O2    1  UNL1        0.0250
     19 O           6.3586   -5.8955   27.1612 O.2     1  UNL1       -0.1672
     20 O           9.3181   -6.3788   27.2487 O.2     1  UNL1       -0.1672
     21 C           6.8772   -5.5534   29.5470 C.3     1  UNL1        0.0276
     22 C           7.7504   -6.4086   28.6776 C.3     1  UNL1        0.1577
     23 C           3.4907   -2.4714   19.7661 C.3     1  UNL1        0.0398
     24 C           3.0397   -1.0752   19.4537 C.3     1  UNL1        0.0216
     25 C           3.6209   -1.1958   18.0761 C.3     1  UNL1        0.0045
     26 C           2.4585   -0.9547   20.8313 C.3     1  UNL1        0.0045
     27 C           2.5888    0.3208   19.1412 C.ar    1  UNL1       -0.0182
     28 C           1.2161    0.5589   18.5854 C.ar    1  UNL1       -0.0018
     29 C           0.7652    1.9549   18.2729 C.ar    1  UNL1        0.0293
     30 C           1.6870    3.1130   18.5164 C.ar    1  UNL1        0.1403
     31 F           1.2360    4.5091   18.2040 F       1  UNL1       -0.2042
     32 C           3.0597    2.8749   19.0723 C.ar    1  UNL1        0.0338
     33 C           3.5106    1.4788   19.3847 C.ar    1  UNL1        0.0514
     34 C           4.8833    1.2407   19.9406 C.2     1  UNL1        0.2425
     35 N           5.1388    1.4156   21.4083 N.am    1  UNL1       -0.3253
     36 O           6.0004    0.8278   19.0288 O.2     1  UNL1       -0.2704
     37 H           4.4055    1.6866   22.0068 H       1  UNL1        0.1453
     38 H           6.0397    1.2594   21.7732 H       1  UNL1        0.1453
@<TRIPOS>BOND
     1    21    22    1
     2    22    18    1
     3    18    19    2
     4    18    20    2
     5    18     9    1
     6     9    10    2
     7    10    11    1
     8    11    12    2
     9    12    13    1
    10    13     8    1
    11     8     1    1
    12     1     2    1
    13     1    23    1
    14    23    24    1
    15    24    25    1
    16    24    26    1
    17    24    27    1
    18    27    28   ar
    19    28    29   ar
    20    29    30   ar
    21    30    31    1
    22    30    32   ar
    23    32    33   ar
    24    33    34    1
    25    34    35   am
    26    34    36    2
    27     1     4    1
    28     4     5    1
    29     4     6    1
    30     4     7    1
    31    13    14    2
    32    14    15    1
    33    15    16    1
    34    16    17    2
    35    17     9    1
    36    15    11    1
    37    33    27   ar
    38     2     3    1
    39    35    37    1
    40    35    38    1
@<TRIPOS>MOLECULE
*****
 38 40 0 0 0
SMALL
GASTEIGER

@<TRIPOS>ATOM
      1 C           5.6702   -3.2904   21.8900 C.3     1  UNL1        0.1811
      2 O           4.7927   -3.4439   23.0967 O.3     1  UNL1       -0.3784
      3 H           5.3194   -3.3051   23.8994 H       1  UNL1        0.2106
      4 C           6.5478   -3.1369   20.6832 C.3     1  UNL1        0.4197
      5 F           7.4253   -2.9834   19.4764 F       1  UNL1       -0.1676
      6 F           7.0079   -1.8013   21.1876 F       1  UNL1       -0.1676
      7 F           6.0877   -4.4724   20.1787 F       1  UNL1       -0.1676
      8 C           6.8444   -3.0084   22.7798 C.3     1  UNL1        0.0807
      9 C           6.8194   -4.4335   29.0704 C.2     1  UNL1        0.1857
     10 C           6.7636   -3.2959   28.0944 C.2     1  UNL1        0.0359
     11 C           6.8090   -3.5694   26.6202 C.2     1  UNL1        0.0095
     12 C           6.7720   -2.6587   25.4288 C.2     1  UNL1        0.0124
     13 C           6.8504   -3.5073   24.1944 C.2     1  UNL1        0.0568
     14 N           6.9359   -4.9422   24.6228 N.2     1  UNL1       -0.2661
     15 C           6.9103   -4.9806   26.1221 C.3     1  UNL1        0.1661
     16 C           6.9662   -6.1183   27.0981 C.2     1  UNL1        0.1025
     17 N           6.9207   -5.8448   28.5722 N.2     1  UNL1       -0.2281
     18 S           6.7740   -4.1600   30.5445 S.O2    1  UNL1        0.0250
     19 O           6.7943   -5.6345   30.8187 O.2     1  UNL1       -0.1672
     20 O           6.7536   -2.6853   30.2702 O.2     1  UNL1       -0.1672
     21 C           5.7152   -2.9294   32.5730 C.3     1  UNL1        0.0276
     22 C           6.7285   -3.8864   32.0187 C.3     1  UNL1        0.1577
     23 C           4.4961   -3.5724   21.0002 C.3     1  UNL1        0.0398
     24 C           3.7235   -2.4376   20.3957 C.3     1  UNL1        0.0216
     25 C           3.3613   -3.3063   19.2278 C.3     1  UNL1        0.0045
     26 C           4.0856   -1.5688   21.5637 C.3     1  UNL1        0.0045
     27 C           2.9509   -1.3029   19.7912 C.ar    1  UNL1       -0.0182
     28 C           1.5425   -1.0352   20.2326 C.ar    1  UNL1       -0.0018
     29 C           0.7699    0.0995   19.6281 C.ar    1  UNL1        0.0293
     30 C           1.4057    0.9667   18.5821 C.ar    1  UNL1        0.1403
     31 F           0.6332    2.1014   17.9776 F       1  UNL1       -0.2042
     32 C           2.8141    0.6990   18.1408 C.ar    1  UNL1        0.0338
     33 C           3.5867   -0.4358   18.7453 C.ar    1  UNL1        0.0514
     34 C           4.9951   -0.7035   18.3040 C.2     1  UNL1        0.2425
     35 N           6.1306    0.0650   18.9124 N.am    1  UNL1       -0.3253
     36 O           5.2680   -1.7396   17.2542 O.2     1  UNL1       -0.2704
     37 H           5.9515    0.7450   19.6014 H       1  UNL1        0.1453
     38 H           7.0550   -0.1107   18.6227 H       1  UNL1        0.1453
@<TRIPOS>BOND
     1    21    22    1
     2    22    18    1
     3    18    19    2
     4    18    20    2
     5    18     9    1
     6     9    10    2
     7    10    11    1
     8    11    12    2
     9    12    13    1
    10    13     8    1
    11     8     1    1
    12     1     2    1
    13     1    23    1
    14    23    24    1
    15    24    25    1
    16    24    26    1
    17    24    27    1
    18    27    28   ar
    19    28    29   ar
    20    29    30   ar
    21    30    31    1
    22    30    32   ar
    23    32    33   ar
    24    33    34    1
    25    34    35   am
    26    34    36    2
    27     1     4    1
    28     4     5    1
    29     4     6    1
    30     4     7    1
    31    13    14    2
    32    14    15    1
    33    15    16    1
    34    16    17    2
    35    17     9    1
    36    15    11    1
    37    33    27   ar
    38     2     3    1
    39    35    37    1
    40    35    38    1
@<TRIPOS>MOLECULE
*****
 38 40 0 0 0
SMALL
GASTEIGER

@<TRIPOS>ATOM
      1 C          -3.3434    3.9087   20.4075 C.3     1  UNL1        0.1811
      2 O          -2.6199    3.8430   21.7198 O.3     1  UNL1       -0.3784
      3 H          -1.6672    3.9462   21.5692 H       1  UNL1        0.2106
      4 C          -4.0670    3.9744   19.0951 C.3     1  UNL1        0.4197
      5 F          -4.7905    4.0401   17.7829 F       1  UNL1       -0.1676
      6 F          -3.1285    5.0487   18.6314 F       1  UNL1       -0.1676
      7 F          -5.0055    2.9001   19.5588 F       1  UNL1       -0.1676
      8 C          -2.0366    4.1012   19.6966 C.3     1  UNL1        0.0807
      9 C           2.6265   -0.3063   19.0392 C.2     1  UNL1        0.1857
     10 C           2.0652    0.9495   18.4411 C.2     1  UNL1        0.0359
     11 C           0.8649    1.6033   19.0592 C.2     1  UNL1        0.0095
     12 C           0.0951    2.8379   18.6943 C.2     1  UNL1        0.0124
     13 C          -1.0196    2.9987   19.6851 C.2     1  UNL1        0.0568
     14 N          -0.9387    1.8636   20.6622 N.2     1  UNL1       -0.2661
     15 C           0.2260    1.0011   20.2754 C.3     1  UNL1        0.1661
     16 C           0.7874   -0.2548   20.8735 C.2     1  UNL1        0.1025
     17 N           1.9876   -0.9085   20.2555 N.2     1  UNL1       -0.2281
     18 S           3.8268   -0.9600   18.4211 S.O2    1  UNL1        0.0250
     19 O           3.3939   -0.4761   17.0690 O.2     1  UNL1       -0.1672
     20 O           4.2597   -1.4439   19.7734 O.2     1  UNL1       -0.1672
     21 C           5.4258   -2.9979   18.2211 C.3     1  UNL1        0.0276
     22 C           5.0271   -1.6137   17.8030 C.3     1  UNL1        0.1577
     23 C          -4.6501    3.7162   21.1183 C.3     1  UNL1        0.0398
     24 C          -4.8550    4.3032   22.4834 C.3     1  UNL1        0.0216
     25 C          -4.9582    2.9229   23.0614 C.3     1  UNL1        0.0045
     26 C          -4.7517    5.6835   21.9053 C.3     1  UNL1        0.0045
     27 C          -5.0598    4.8902   23.8485 C.ar    1  UNL1       -0.0182
     28 C          -3.8808    5.1441   24.7404 C.ar    1  UNL1       -0.0018
     29 C          -4.0856    5.7310   26.1054 C.ar    1  UNL1        0.0293
     30 C          -5.4695    6.0641   26.5787 C.ar    1  UNL1        0.1403
     31 F          -5.6744    6.6510   27.9438 F       1  UNL1       -0.2042
     32 C          -6.6485    5.8102   25.6868 C.ar    1  UNL1        0.0338
     33 C          -6.4436    5.2232   24.3217 C.ar    1  UNL1        0.0514
     34 C          -7.6227    4.9693   23.4298 C.2     1  UNL1        0.2425
     35 N          -8.4045    3.6962   23.5644 N.am    1  UNL1       -0.3253
     36 O          -8.0199    5.9884   22.4034 O.2     1  UNL1       -0.2704
     37 H          -8.1438    3.0273   24.2381 H       1  UNL1        0.1453
     38 H          -9.1783    3.5295   22.9790 H       1  UNL1        0.1453
@<TRIPOS>BOND
     1    21    22    1
     2    22    18    1
     3    18    19    2
     4    18    20    2
     5    18     9    1
     6     9    10    2
     7    10    11    1
     8    11    12    2
     9    12    13    1
    10    13     8    1
    11     8     1    1
    12     1     2    1
    13     1    23    1
    14    23    24    1
    15    24    25    1
    16    24    26    1
    17    24    27    1
    18    27    28   ar
    19    28    29   ar
    20    29    30   ar
    21    30    31    1
    22    30    32   ar
    23    32    33   ar
    24    33    34    1
    25    34    35   am
    26    34    36    2
    27     1     4    1
    28     4     5    1
    29     4     6    1
    30     4     7    1
    31    13    14    2
    32    14    15    1
    33    15    16    1
    34    16    17    2
    35    17     9    1
    36    15    11    1
    37    33    27   ar
    38     2     3    1
    39    35    37    1
    40    35    38    1
@<TRIPOS>MOLECULE
*****
 38 40 0 0 0
SMALL
GASTEIGER

@<TRIPOS>ATOM
      1 C         -11.6584   -6.2566   17.6349 C.3     1  UNL1        0.1811
      2 O         -12.6798   -5.5602   16.7854 O.3     1  UNL1       -0.3784
      3 H         -12.3559   -4.6770   16.5490 H       1  UNL1        0.2106
      4 C         -10.6369   -6.9531   18.4844 C.3     1  UNL1        0.4197
      5 F          -9.6155   -7.6495   19.3338 F       1  UNL1       -0.1676
      6 F         -10.6904   -5.8261   19.4728 F       1  UNL1       -0.1676
      7 F         -10.5834   -8.0801   17.4960 F       1  UNL1       -0.1676
      8 C         -10.7659   -5.0542   17.5474 C.3     1  UNL1        0.0807
      9 C         -13.6674    0.6969   17.8771 C.2     1  UNL1        0.1857
     10 C         -13.4990   -0.6085   18.5964 C.2     1  UNL1        0.0359
     11 C         -12.6323   -1.6824   18.0085 C.2     1  UNL1        0.0095
     12 C         -12.2797   -3.0605   18.4846 C.2     1  UNL1        0.0124
     13 C         -11.3635   -3.6805   17.4716 C.2     1  UNL1        0.0568
     14 N         -11.1498   -2.6857   16.3695 N.2     1  UNL1       -0.2661
     15 C         -11.9340   -1.4508   16.7013 C.3     1  UNL1        0.1661
     16 C         -12.1024   -0.1453   15.9820 C.2     1  UNL1        0.1025
     17 N         -12.9691    0.9286   16.5699 N.2     1  UNL1       -0.2281
     18 S         -14.5341    1.7708   18.4650 S.O2    1  UNL1        0.0250
     19 O         -13.7675    2.8084   17.6998 O.2     1  UNL1       -0.1672
     20 O         -15.3007    0.7331   19.2303 O.2     1  UNL1       -0.1672
     21 C         -16.3397    2.5194   20.1765 C.3     1  UNL1        0.0276
     22 C         -15.4008    2.8447   19.0529 C.3     1  UNL1        0.1577
     23 C         -12.5509   -7.4590   17.7223 C.3     1  UNL1        0.0398
     24 C         -14.0394   -7.2963   17.6329 C.3     1  UNL1        0.0216
     25 C         -14.0560   -6.6940   19.0065 C.3     1  UNL1        0.0045
     26 C         -14.0227   -7.8986   16.2592 C.3     1  UNL1        0.0045
     27 C         -15.5278   -7.1336   17.5435 C.ar    1  UNL1       -0.0182
     28 C         -16.1114   -5.9433   16.8415 C.ar    1  UNL1       -0.0018
     29 C         -17.5998   -5.7806   16.7521 C.ar    1  UNL1        0.0293
     30 C         -18.5048   -6.8082   17.3648 C.ar    1  UNL1        0.1403
     31 F         -19.9932   -6.6454   17.2754 F       1  UNL1       -0.2042
     32 C         -17.9212   -7.9984   18.0668 C.ar    1  UNL1        0.0338
     33 C         -16.4327   -8.1611   18.1562 C.ar    1  UNL1        0.0514
     34 C         -15.8491   -9.3513   18.8582 C.2     1  UNL1        0.2425
     35 N         -15.8445   -9.4101   20.3571 N.am    1  UNL1       -0.3253
     36 O         -15.2702  -10.4826   18.0614 O.2     1  UNL1       -0.2704
     37 H         -16.2245   -8.6675   20.8801 H       1  UNL1        0.1453
     38 H         -15.4615  -10.1913   20.8179 H       1  UNL1        0.1453
@<TRIPOS>BOND
     1    21    22    1
     2    22    18    1
     3    18    19    2
     4    18    20    2
     5    18     9    1
     6     9    10    2
     7    10    11    1
     8    11    12    2
     9    12    13    1
    10    13     8    1
    11     8     1    1
    12     1     2    1
    13     1    23    1
    14    23    24    1
    15    24    25    1
    16    24    26    1
    17    24    27    1
    18    27    28   ar
    19    28    29   ar
    20    29    30   ar
    21    30    31    1
    22    30    32   ar
    23    32    33   ar
    24    33    34    1
    25    34    35   am
    26    34    36    2
    27     1     4    1
    28     4     5    1
    29     4     6    1
    30     4     7    1
    31    13    14    2
    32    14    15    1
    33    15    16    1
    34    16    17    2
    35    17     9    1
    36    15    11    1
    37    33    27   ar
    38     2     3    1
    39    35    37    1
    40    35    38    1
@<TRIPOS>MOLECULE
*****
 38 40 0 0 0
SMALL
GASTEIGER

@<TRIPOS>ATOM
      1 C           7.1222   -3.3345   20.2602 C.3     1  UNL1        0.1811
      2 O           6.2914   -4.2758   21.0810 O.3     1  UNL1       -0.3784
      3 H           6.8343   -4.6496   21.7926 H       1  UNL1        0.2106
      4 C           7.9530   -2.3932   19.4393 C.3     1  UNL1        0.4197
      5 F           8.7837   -1.4518   18.6186 F       1  UNL1       -0.1676
      6 F           7.2950   -2.9011   18.1908 F       1  UNL1       -0.1676
      7 F           8.6110   -1.8852   20.6879 F       1  UNL1       -0.1676
      8 C           8.3063   -3.6147   21.1373 C.3     1  UNL1        0.0807
      9 C           7.4049   -5.8376   27.1247 C.2     1  UNL1        0.1857
     10 C           7.4870   -4.5828   26.3070 C.2     1  UNL1        0.0359
     11 C           7.7365   -4.6650   24.8301 C.2     1  UNL1        0.0095
     12 C           7.8668   -3.6079   23.7739 C.2     1  UNL1        0.0124
     13 C           8.1148   -4.2917   22.4621 C.2     1  UNL1        0.0568
     14 N           8.1378   -5.7713   22.7075 N.2     1  UNL1       -0.2661
     15 C           7.9040   -6.0020   24.1711 C.3     1  UNL1        0.1661
     16 C           7.8220   -7.2568   24.9889 C.2     1  UNL1        0.1025
     17 N           7.5724   -7.1746   26.4657 N.2     1  UNL1       -0.2281
     18 S           7.1554   -5.7554   28.6015 S.O2    1  UNL1        0.0250
     19 O           6.1512   -4.6652   28.3711 O.2     1  UNL1       -0.1672
     20 O           8.1596   -6.8456   28.8320 O.2     1  UNL1       -0.1672
     21 C           6.9700   -4.3474   30.7772 C.3     1  UNL1        0.0276
     22 C           6.9058   -5.6731   30.0784 C.3     1  UNL1        0.1577
     23 C           5.9381   -3.0543   19.3831 C.3     1  UNL1        0.0398
     24 C           4.7865   -2.2514   19.9116 C.3     1  UNL1        0.0216
     25 C           5.6905   -1.0664   20.0808 C.3     1  UNL1        0.0045
     26 C           3.8826   -3.4364   19.7423 C.3     1  UNL1        0.0045
     27 C           3.6350   -1.4485   20.4400 C.ar    1  UNL1       -0.0182
     28 C           2.6577   -0.8232   19.4893 C.ar    1  UNL1       -0.0018
     29 C           1.5062   -0.0203   20.0178 C.ar    1  UNL1        0.0293
     30 C           1.3320    0.1574   21.4971 C.ar    1  UNL1        0.1403
     31 F           0.1805    0.9603   22.0255 F       1  UNL1       -0.2042
     32 C           2.3093   -0.4678   22.4478 C.ar    1  UNL1        0.0338
     33 C           3.4609   -1.2708   21.9192 C.ar    1  UNL1        0.0514
     34 C           4.4382   -1.8960   22.8699 C.2     1  UNL1        0.2425
     35 N           5.4334   -1.0385   23.5941 N.am    1  UNL1       -0.3253
     36 O           4.4205   -3.3787   23.0965 O.2     1  UNL1       -0.2704
     37 H           5.4451   -0.0654   23.4455 H       1  UNL1        0.1453
     38 H           6.0749   -1.4489   24.2181 H       1  UNL1        0.1453
@<TRIPOS>BOND
     1    21    22    1
     2    22    18    1
     3    18    19    2
     4    18    20    2
     5    18     9    1
     6     9    10    2
     7    10    11    1
     8    11    12    2
     9    12    13    1
    10    13     8    1
    11     8     1    1
    12     1     2    1
    13     1    23    1
    14    23    24    1
    15    24    25    1
    16    24    26    1
    17    24    27    1
    18    27    28   ar
    19    28    29   ar
    20    29    30   ar
    21    30    31    1
    22    30    32   ar
    23    32    33   ar
    24    33    34    1
    25    34    35   am
    26    34    36    2
    27     1     4    1
    28     4     5    1
    29     4     6    1
    30     4     7    1
    31    13    14    2
    32    14    15    1
    33    15    16    1
    34    16    17    2
    35    17     9    1
    36    15    11    1
    37    33    27   ar
    38     2     3    1
    39    35    37    1
    40    35    38    1
@<TRIPOS>MOLECULE
*****
 38 40 0 0 0
SMALL
GASTEIGER

@<TRIPOS>ATOM
      1 C         -15.2582   -3.0024   18.4332 C.3     1  UNL1        0.1811
      2 O         -15.8160   -3.1186   17.0457 O.3     1  UNL1       -0.3784
      3 H         -16.0144   -2.2336   16.7018 H       1  UNL1        0.2106
      4 C         -14.7005   -2.8862   19.8209 C.3     1  UNL1        0.4197
      5 F         -14.1427   -2.7700   21.2084 F       1  UNL1       -0.1676
      6 F         -15.9080   -3.5900   20.3653 F       1  UNL1       -0.1676
      7 F         -13.4929   -2.1824   19.2765 F       1  UNL1       -0.1676
      8 C         -15.3865   -1.5097   18.3598 C.3     1  UNL1        0.0807
      9 C         -18.9358    1.9429   22.4932 C.2     1  UNL1        0.1857
     10 C         -17.5355    1.7217   22.0032 C.2     1  UNL1        0.0359
     11 C         -17.2668    0.7041   20.9342 C.2     1  UNL1        0.0095
     12 C         -16.0007    0.2700   20.2571 C.2     1  UNL1        0.0124
     13 C         -16.3500   -0.7945   19.2598 C.2     1  UNL1        0.0568
     14 N         -17.8319   -1.0184   19.3205 N.2     1  UNL1       -0.2661
     15 C         -18.3986   -0.0921   20.3554 C.3     1  UNL1        0.1661
     16 C         -19.7990    0.1291   20.8455 C.2     1  UNL1        0.1025
     17 N         -20.0675    1.1466   21.9143 N.2     1  UNL1       -0.2281
     18 S         -19.2043    2.9604   23.5621 S.O2    1  UNL1        0.0250
     19 O         -19.1326    4.0546   22.5385 O.2     1  UNL1       -0.1672
     20 O         -19.2760    1.8662   24.5857 O.2     1  UNL1       -0.1672
     21 C         -18.4598    5.0453   24.9219 C.3     1  UNL1        0.0276
     22 C         -19.4728    3.9780   24.6310 C.3     1  UNL1        0.1577
     23 C         -15.1300   -4.4951   18.5067 C.3     1  UNL1        0.0398
     24 C         -13.7716   -5.1296   18.5564 C.3     1  UNL1        0.0216
     25 C         -14.0925   -5.7110   19.9014 C.3     1  UNL1        0.0045
     26 C         -13.4508   -4.5481   17.2114 C.3     1  UNL1        0.0045
     27 C         -12.4134   -5.7641   18.6062 C.ar    1  UNL1       -0.0182
     28 C         -11.2219   -4.9539   19.0230 C.ar    1  UNL1       -0.0018
     29 C          -9.8636   -5.5884   19.0727 C.ar    1  UNL1        0.0293
     30 C          -9.6969   -7.0332   18.7056 C.ar    1  UNL1        0.1403
     31 F          -8.3386   -7.6677   18.7553 F       1  UNL1       -0.2042
     32 C         -10.8884   -7.8435   18.2888 C.ar    1  UNL1        0.0338
     33 C         -12.2467   -7.2089   18.2390 C.ar    1  UNL1        0.0514
     34 C         -13.4382   -8.0191   17.8222 C.2     1  UNL1        0.2425
     35 N         -14.1009   -8.9385   18.8049 N.am    1  UNL1       -0.3253
     36 O         -13.9670   -7.9100   16.4228 O.2     1  UNL1       -0.2704
     37 H         -13.7539   -9.0102   19.7234 H       1  UNL1        0.1453
     38 H         -14.8830   -9.4703   18.5313 H       1  UNL1        0.1453
@<TRIPOS>BOND
     1    21    22    1
     2    22    18    1
     3    18    19    2
     4    18    20    2
     5    18     9    1
     6     9    10    2
     7    10    11    1
     8    11    12    2
     9    12    13    1
    10    13     8    1
    11     8     1    1
    12     1     2    1
    13     1    23    1
    14    23    24    1
    15    24    25    1
    16    24    26    1
    17    24    27    1
    18    27    28   ar
    19    28    29   ar
    20    29    30   ar
    21    30    31    1
    22    30    32   ar
    23    32    33   ar
    24    33    34    1
    25    34    35   am
    26    34    36    2
    27     1     4    1
    28     4     5    1
    29     4     6    1
    30     4     7    1
    31    13    14    2
    32    14    15    1
    33    15    16    1
    34    16    17    2
    35    17     9    1
    36    15    11    1
    37    33    27   ar
    38     2     3    1
    39    35    37    1
    40    35    38    1
