@<TRIPOS>MOLECULE
*****
 32 35 0 0 0
SMALL
GASTEIGER

@<TRIPOS>ATOM
      1 C          -8.7123  -18.1915   21.1238 C.ar    1  UNL1        0.0951
      2 C          -9.5861  -18.7582   20.0444 C.ar    1  UNL1        0.1454
      3 F         -10.9763  -18.2294   19.8499 F       1  UNL1       -0.2040
      4 C          -9.0698  -19.8538   19.1595 C.ar    1  UNL1        0.0312
      5 C          -7.6797  -20.3826   19.3539 C.ar    1  UNL1        0.0204
      6 C          -6.8058  -19.8159   20.4334 C.ar    1  UNL1        0.0924
      7 C          -7.3221  -18.7203   21.3183 C.ar    1  UNL1        0.1598
      8 F          -6.4483  -18.1535   22.3978 F       1  UNL1       -0.2026
      9 O          -9.5221  -15.7423   21.4330 O.2     1  UNL1       -0.2864
     10 C          -9.2286  -17.0959   22.0088 C.2     1  UNL1        0.2015
     11 C          -9.4514  -17.3539   23.4696 C.ar    1  UNL1        0.0612
     12 C         -10.5499  -18.1872   24.0602 C.ar    1  UNL1        0.1037
     13 N         -10.3922  -18.1723   25.5518 N.ar    1  UNL1       -0.2269
     14 C          -9.1961  -17.3298   25.8830 C.ar    1  UNL1        0.1407
     15 N          -8.5614  -16.9579   27.1902 N.ar    1  UNL1       -0.3367
     16 C          -7.3452  -16.0802   27.2105 C.ar    1  UNL1        0.0850
     17 C          -6.7637  -15.5744   25.9236 C.ar    1  UNL1        0.0748
     18 CL         -5.5475  -14.6967   25.9439 Cl      1  UNL1       -0.0807
     19 C          -7.3985  -15.9463   24.6164 C.ar    1  UNL1        0.0160
     20 C          -8.6147  -16.8240   24.5961 C.ar    1  UNL1        0.0394
     21 H          -8.9430  -17.2898   28.0348 H       1  UNL1        0.1674
     22 N          -5.4157  -20.3447   20.6278 N.pl3   1  UNL1       -0.2128
     23 H          -5.2718  -21.3065   20.7810 H       1  UNL1        0.1738
     24 S          -4.2447  -19.4081   20.5890 S.O2    1  UNL1        0.0751
     25 O          -4.7517  -18.8275   19.3023 O.2     1  UNL1       -0.1499
     26 O          -3.7376  -19.9887   21.8758 O.2     1  UNL1       -0.1499
     27 C          -3.0737  -18.4715   20.5503 C.ar    1  UNL1        0.1442
     28 C          -2.9079  -17.4334   21.6203 C.ar    1  UNL1        0.0234
     29 C          -1.7369  -16.4967   21.5817 C.ar    1  UNL1        0.0221
     30 C          -0.7317  -16.5982   20.4730 C.ar    1  UNL1        0.0990
     31 N          -0.8975  -17.6363   19.4030 N.ar    1  UNL1       -0.2409
     32 C          -2.0684  -18.5730   19.4416 C.ar    1  UNL1        0.1190
@<TRIPOS>BOND
     1     9    10    2
     2    10     1    1
     3     1     2   ar
     4     2     3    1
     5     2     4   ar
     6     4     5   ar
     7     5     6   ar
     8     6    22    1
     9    22    24    1
    10    24    25    2
    11    24    26    2
    12    24    27    1
    13    27    28   ar
    14    28    29   ar
    15    29    30   ar
    16    30    31   ar
    17    31    32   ar
    18     6     7   ar
    19     7     8    1
    20    10    11    1
    21    11    12   ar
    22    12    13   ar
    23    13    14   ar
    24    14    15   ar
    25    15    16   ar
    26    16    17   ar
    27    17    18    1
    28    17    19   ar
    29    19    20   ar
    30     7     1   ar
    31    20    11   ar
    32    32    27   ar
    33    20    14    1
    34    22    23    1
    35    15    21    1
@<TRIPOS>MOLECULE
*****
 32 35 0 0 0
SMALL
GASTEIGER

@<TRIPOS>ATOM
      1 C          -7.5277  -19.5846   20.3212 C.ar    1  UNL1        0.0951
      2 C          -8.5741  -20.1402   19.4012 C.ar    1  UNL1        0.1454
      3 F          -8.2912  -21.3795   18.6049 F       1  UNL1       -0.2040
      4 C          -9.9034  -19.4565   19.2777 C.ar    1  UNL1        0.0312
      5 C         -10.1864  -18.2172   20.0740 C.ar    1  UNL1        0.0204
      6 C          -9.1400  -17.6616   20.9939 C.ar    1  UNL1        0.0924
      7 C          -7.8106  -18.3453   21.1175 C.ar    1  UNL1        0.1598
      8 F          -6.7641  -17.7898   22.0375 F       1  UNL1       -0.2026
      9 O          -5.9690  -21.5895   19.7727 O.2     1  UNL1       -0.2864
     10 C          -6.1982  -20.2683   20.4448 C.2     1  UNL1        0.2015
     11 C          -5.0981  -19.6308   21.2406 C.ar    1  UNL1        0.0612
     12 C          -4.9887  -19.6123   22.7365 C.ar    1  UNL1        0.1037
     13 N          -3.7372  -18.8699   23.1005 N.ar    1  UNL1       -0.2269
     14 C          -3.0731  -18.4295   21.8297 C.ar    1  UNL1        0.1407
     15 N          -1.8113  -17.6611   21.5707 N.ar    1  UNL1       -0.3367
     16 C          -1.3905  -17.3629   20.1622 C.ar    1  UNL1        0.0850
     17 C          -2.2316  -17.8332   19.0126 C.ar    1  UNL1        0.0748
     18 CL         -1.8107  -17.5349   17.6040 Cl      1  UNL1       -0.0807
     19 C          -3.4934  -18.6016   19.2716 C.ar    1  UNL1        0.0160
     20 C          -3.9142  -18.8998   20.6801 C.ar    1  UNL1        0.0394
     21 H          -1.2592  -17.3524   22.3252 H       1  UNL1        0.1674
     22 N          -9.4229  -16.4223   21.7903 N.pl3   1  UNL1       -0.2128
     23 H         -10.1203  -15.7944   21.4925 H       1  UNL1        0.1738
     24 S          -8.6434  -16.1398   23.0402 S.O2    1  UNL1        0.0751
     25 O          -9.4784  -17.1377   23.7865 O.2     1  UNL1       -0.1499
     26 O          -7.8084  -15.1419   22.2939 O.2     1  UNL1       -0.1499
     27 C          -7.8638  -15.8572   24.2902 C.ar    1  UNL1        0.1442
     28 C          -8.4648  -16.1539   25.6321 C.ar    1  UNL1        0.0234
     29 C          -7.6853  -15.8713   26.8821 C.ar    1  UNL1        0.0221
     30 C          -6.3047  -15.2921   26.7902 C.ar    1  UNL1        0.0990
     31 N          -5.7037  -14.9954   25.4482 N.ar    1  UNL1       -0.2409
     32 C          -6.4832  -15.2780   24.1982 C.ar    1  UNL1        0.1190
@<TRIPOS>BOND
     1     9    10    2
     2    10     1    1
     3     1     2   ar
     4     2     3    1
     5     2     4   ar
     6     4     5   ar
     7     5     6   ar
     8     6    22    1
     9    22    24    1
    10    24    25    2
    11    24    26    2
    12    24    27    1
    13    27    28   ar
    14    28    29   ar
    15    29    30   ar
    16    30    31   ar
    17    31    32   ar
    18     6     7   ar
    19     7     8    1
    20    10    11    1
    21    11    12   ar
    22    12    13   ar
    23    13    14   ar
    24    14    15   ar
    25    15    16   ar
    26    16    17   ar
    27    17    18    1
    28    17    19   ar
    29    19    20   ar
    30     7     1   ar
    31    20    11   ar
    32    32    27   ar
    33    20    14    1
    34    22    23    1
    35    15    21    1
@<TRIPOS>MOLECULE
*****
 32 35 0 0 0
SMALL
GASTEIGER

@<TRIPOS>ATOM
      1 C         -11.4011   -5.5455   18.1192 C.ar    1  UNL1        0.0951
      2 C         -10.9937   -5.8829   16.7155 C.ar    1  UNL1        0.1454
      3 F         -10.0273   -5.0004   15.9824 F       1  UNL1       -0.2040
      4 C         -11.5527   -7.1027   16.0450 C.ar    1  UNL1        0.0312
      5 C         -12.5190   -7.9851   16.7781 C.ar    1  UNL1        0.0204
      6 C         -12.9265   -7.6478   18.1818 C.ar    1  UNL1        0.0924
      7 C         -12.3675   -6.4280   18.8522 C.ar    1  UNL1        0.1598
      8 F         -12.7749   -6.0905   20.2559 F       1  UNL1       -0.2026
      9 O          -9.5838   -4.4254   19.5999 O.2     1  UNL1       -0.2864
     10 C         -10.8421   -4.3256   18.7897 C.2     1  UNL1        0.2015
     11 C         -11.5416   -3.0061   18.6501 C.ar    1  UNL1        0.0612
     12 C         -10.9207   -1.7245   18.1788 C.ar    1  UNL1        0.1037
     13 N         -11.9802   -0.6629   18.1947 N.ar    1  UNL1       -0.2269
     14 C         -13.2560   -1.2882   18.6758 C.ar    1  UNL1        0.1407
     15 N         -14.6294   -0.7261   18.8940 N.ar    1  UNL1       -0.3367
     16 C         -15.7318   -1.6122   19.3936 C.ar    1  UNL1        0.0850
     17 C         -15.4607   -3.0604   19.6750 C.ar    1  UNL1        0.0748
     18 CL        -16.5631   -3.9465   20.1746 Cl      1  UNL1       -0.0807
     19 C         -14.0873   -3.6225   19.4569 C.ar    1  UNL1        0.0160
     20 C         -12.9849   -2.7365   18.9573 C.ar    1  UNL1        0.0394
     21 H         -14.8073    0.2244   18.7092 H       1  UNL1        0.1674
     22 N         -13.8928   -8.5302   18.9149 N.pl3   1  UNL1       -0.2128
     23 H         -13.6052   -9.0077   19.7263 H       1  UNL1        0.1738
     24 S         -15.2973   -8.6850   18.4116 S.O2    1  UNL1        0.0751
     25 O         -15.5231   -7.2128   18.5887 O.2     1  UNL1       -0.1499
     26 O         -15.0716  -10.1573   18.2344 O.2     1  UNL1       -0.1499
     27 C         -16.7018   -8.8400   17.9083 C.ar    1  UNL1        0.1442
     28 C         -17.4218  -10.1442   18.0835 C.ar    1  UNL1        0.0234
     29 C         -18.8263  -10.2992   17.5803 C.ar    1  UNL1        0.0221
     30 C         -19.5110   -9.1500   16.9017 C.ar    1  UNL1        0.0990
     31 N         -18.7910   -7.8457   16.7265 N.ar    1  UNL1       -0.2409
     32 C         -17.3865   -7.6907   17.2297 C.ar    1  UNL1        0.1190
@<TRIPOS>BOND
     1     9    10    2
     2    10     1    1
     3     1     2   ar
     4     2     3    1
     5     2     4   ar
     6     4     5   ar
     7     5     6   ar
     8     6    22    1
     9    22    24    1
    10    24    25    2
    11    24    26    2
    12    24    27    1
    13    27    28   ar
    14    28    29   ar
    15    29    30   ar
    16    30    31   ar
    17    31    32   ar
    18     6     7   ar
    19     7     8    1
    20    10    11    1
    21    11    12   ar
    22    12    13   ar
    23    13    14   ar
    24    14    15   ar
    25    15    16   ar
    26    16    17   ar
    27    17    18    1
    28    17    19   ar
    29    19    20   ar
    30     7     1   ar
    31    20    11   ar
    32    32    27   ar
    33    20    14    1
    34    22    23    1
    35    15    21    1
@<TRIPOS>MOLECULE
*****
 32 35 0 0 0
SMALL
GASTEIGER

@<TRIPOS>ATOM
      1 C          -6.6642  -16.2529   23.7589 C.ar    1  UNL1        0.0951
      2 C          -6.5574  -15.5237   25.0654 C.ar    1  UNL1        0.1454
      3 F          -7.6790  -14.6401   25.5250 F       1  UNL1       -0.2040
      4 C          -5.3290  -15.6783   25.9122 C.ar    1  UNL1        0.0312
      5 C          -4.2075  -16.5620   25.4526 C.ar    1  UNL1        0.0204
      6 C          -4.3143  -17.2911   24.1461 C.ar    1  UNL1        0.0924
      7 C          -5.5427  -17.1365   23.2992 C.ar    1  UNL1        0.1598
      8 F          -5.6496  -17.8656   21.9927 F       1  UNL1       -0.2026
      9 O          -7.8627  -15.2126   21.7018 O.2     1  UNL1       -0.2864
     10 C          -7.8927  -16.0983   22.9119 C.2     1  UNL1        0.2015
     11 C          -9.1510  -16.8295   23.2752 C.ar    1  UNL1        0.0612
     12 C          -9.3622  -17.6645   24.5033 C.ar    1  UNL1        0.1037
     13 N         -10.7608  -18.2051   24.4613 N.ar    1  UNL1       -0.2269
     14 C         -11.4139  -17.7043   23.2072 C.ar    1  UNL1        0.1407
     15 N         -12.7859  -17.9126   22.6381 N.ar    1  UNL1       -0.3367
     16 C         -13.1631  -17.2708   21.3359 C.ar    1  UNL1        0.0850
     17 C         -12.1682  -16.4206   20.6029 C.ar    1  UNL1        0.0748
     18 CL        -12.5454  -15.7787   19.3006 Cl      1  UNL1       -0.0807
     19 C         -10.7961  -16.2123   21.1720 C.ar    1  UNL1        0.0160
     20 C         -10.4189  -16.8542   22.4742 C.ar    1  UNL1        0.0394
     21 H         -13.4389  -18.4706   23.1192 H       1  UNL1        0.1674
     22 N          -3.1928  -18.1748   23.6864 N.pl3   1  UNL1       -0.2128
     23 H          -2.7784  -18.8106   24.3135 H       1  UNL1        0.1738
     24 S          -2.7026  -18.0897   22.2714 S.O2    1  UNL1        0.0751
     25 O          -3.0571  -19.5320   22.0618 O.2     1  UNL1       -0.1499
     26 O          -2.3481  -16.6473   22.4809 O.2     1  UNL1       -0.1499
     27 C          -2.2124  -18.0045   20.8563 C.ar    1  UNL1        0.1442
     28 C          -3.1578  -17.6204   19.7569 C.ar    1  UNL1        0.0234
     29 C          -2.6677  -17.5351   18.3418 C.ar    1  UNL1        0.0221
     30 C          -1.2321  -17.8340   18.0261 C.ar    1  UNL1        0.0990
     31 N          -0.2866  -18.2181   19.1255 N.ar    1  UNL1       -0.2409
     32 C          -0.7768  -18.3033   20.5406 C.ar    1  UNL1        0.1190
@<TRIPOS>BOND
     1     9    10    2
     2    10     1    1
     3     1     2   ar
     4     2     3    1
     5     2     4   ar
     6     4     5   ar
     7     5     6   ar
     8     6    22    1
     9    22    24    1
    10    24    25    2
    11    24    26    2
    12    24    27    1
    13    27    28   ar
    14    28    29   ar
    15    29    30   ar
    16    30    31   ar
    17    31    32   ar
    18     6     7   ar
    19     7     8    1
    20    10    11    1
    21    11    12   ar
    22    12    13   ar
    23    13    14   ar
    24    14    15   ar
    25    15    16   ar
    26    16    17   ar
    27    17    18    1
    28    17    19   ar
    29    19    20   ar
    30     7     1   ar
    31    20    11   ar
    32    32    27   ar
    33    20    14    1
    34    22    23    1
    35    15    21    1
@<TRIPOS>MOLECULE
*****
 32 35 0 0 0
SMALL
GASTEIGER

@<TRIPOS>ATOM
      1 C          -7.1907  -17.8373   23.1143 C.ar    1  UNL1        0.0951
      2 C          -7.6589  -16.5481   23.7216 C.ar    1  UNL1        0.1454
      3 F          -9.1269  -16.2820   23.8776 F       1  UNL1       -0.2040
      4 C          -6.6591  -15.5251   24.1729 C.ar    1  UNL1        0.0312
      5 C          -5.1912  -15.7911   24.0169 C.ar    1  UNL1        0.0204
      6 C          -4.7230  -17.0803   23.4096 C.ar    1  UNL1        0.0924
      7 C          -5.7228  -18.1033   22.9583 C.ar    1  UNL1        0.1598
      8 F          -5.2547  -19.3926   22.3509 F       1  UNL1       -0.2026
      9 O          -8.0739  -20.2806   23.1313 O.2     1  UNL1       -0.2864
     10 C          -8.1906  -18.8604   22.6629 C.2     1  UNL1        0.2015
     11 C          -9.3070  -18.4633   21.7432 C.ar    1  UNL1        0.0612
     12 C          -9.1836  -18.1901   20.2735 C.ar    1  UNL1        0.1037
     13 N         -10.5432  -17.8276   19.7537 N.ar    1  UNL1       -0.2269
     14 C         -11.5068  -17.8768   20.9022 C.ar    1  UNL1        0.1407
     15 N         -12.9813  -17.6146   20.9872 N.ar    1  UNL1       -0.3367
     16 C         -13.6917  -17.7453   22.3018 C.ar    1  UNL1        0.0850
     17 C         -12.9276  -18.1382   23.5314 C.ar    1  UNL1        0.0748
     18 CL        -13.6381  -18.2689   24.8460 Cl      1  UNL1       -0.0807
     19 C         -11.4532  -18.4004   23.4464 C.ar    1  UNL1        0.0160
     20 C         -10.7428  -18.2697   22.1318 C.ar    1  UNL1        0.0394
     21 H         -13.4827  -17.3567   20.1802 H       1  UNL1        0.1674
     22 N          -3.2550  -17.3464   23.2536 N.pl3   1  UNL1       -0.2128
     23 H          -2.6834  -17.4349   24.0502 H       1  UNL1        0.1738
     24 S          -2.6580  -17.4775   21.8838 S.O2    1  UNL1        0.0751
     25 O          -2.8892  -16.0152   21.6430 O.2     1  UNL1       -0.1499
     26 O          -2.4269  -18.9399   22.1246 O.2     1  UNL1       -0.1499
     27 C          -2.0610  -17.6088   20.5140 C.ar    1  UNL1        0.1442
     28 C          -2.9094  -17.3704   19.3001 C.ar    1  UNL1        0.0234
     29 C          -2.3124  -17.5017   17.9303 C.ar    1  UNL1        0.0221
     30 C          -0.8671  -17.8713   17.7743 C.ar    1  UNL1        0.0990
     31 N          -0.0187  -18.1096   18.9882 N.ar    1  UNL1       -0.2409
     32 C          -0.6157  -17.9784   20.3581 C.ar    1  UNL1        0.1190
@<TRIPOS>BOND
     1     9    10    2
     2    10     1    1
     3     1     2   ar
     4     2     3    1
     5     2     4   ar
     6     4     5   ar
     7     5     6   ar
     8     6    22    1
     9    22    24    1
    10    24    25    2
    11    24    26    2
    12    24    27    1
    13    27    28   ar
    14    28    29   ar
    15    29    30   ar
    16    30    31   ar
    17    31    32   ar
    18     6     7   ar
    19     7     8    1
    20    10    11    1
    21    11    12   ar
    22    12    13   ar
    23    13    14   ar
    24    14    15   ar
    25    15    16   ar
    26    16    17   ar
    27    17    18    1
    28    17    19   ar
    29    19    20   ar
    30     7     1   ar
    31    20    11   ar
    32    32    27   ar
    33    20    14    1
    34    22    23    1
    35    15    21    1
@<TRIPOS>MOLECULE
*****
 32 35 0 0 0
SMALL
GASTEIGER

@<TRIPOS>ATOM
      1 C         -12.1815   -5.1887   18.9339 C.ar    1  UNL1        0.0951
      2 C         -10.7470   -5.6246   18.9811 C.ar    1  UNL1        0.1454
      3 F          -9.7201   -4.7545   19.6431 F       1  UNL1       -0.2040
      4 C         -10.3395   -6.9307   18.3662 C.ar    1  UNL1        0.0312
      5 C         -11.3664   -7.8008   17.7041 C.ar    1  UNL1        0.0204
      6 C         -12.8009   -7.3649   17.6570 C.ar    1  UNL1        0.0924
      7 C         -13.2084   -6.0588   18.2719 C.ar    1  UNL1        0.1598
      8 F         -14.6429   -5.6228   18.2248 F       1  UNL1       -0.2026
      9 O         -13.3224   -3.8661   20.8572 O.2     1  UNL1       -0.2864
     10 C         -12.5891   -3.8826   19.5488 C.2     1  UNL1        0.2015
     11 C         -12.2633   -2.5930   18.8553 C.ar    1  UNL1        0.0612
     12 C         -10.9794   -2.2714   18.1494 C.ar    1  UNL1        0.1037
     13 N         -11.0869   -0.8783   17.6038 N.ar    1  UNL1       -0.2269
     14 C         -12.4371   -0.3390   17.9724 C.ar    1  UNL1        0.1407
     15 N         -13.0985    0.9802   17.7037 N.ar    1  UNL1       -0.3367
     16 C         -14.4870    1.2397   18.2085 C.ar    1  UNL1        0.0850
     17 C         -15.2140    0.1799   18.9820 C.ar    1  UNL1        0.0748
     18 CL        -16.6026    0.4394   19.4868 Cl      1  UNL1       -0.0807
     19 C         -14.5526   -1.1393   19.2507 C.ar    1  UNL1        0.0160
     20 C         -13.1642   -1.3987   18.7459 C.ar    1  UNL1        0.0394
     21 H         -12.6213    1.6758   17.1960 H       1  UNL1        0.1674
     22 N         -13.8279   -8.2350   16.9949 N.pl3   1  UNL1       -0.2128
     23 H         -13.6318   -8.6536   16.1257 H       1  UNL1        0.1738
     24 S         -15.1535   -8.4673   17.6573 S.O2    1  UNL1        0.0751
     25 O         -14.4640   -9.1642   18.7927 O.2     1  UNL1       -0.1499
     26 O         -15.8429   -7.7705   16.5220 O.2     1  UNL1       -0.1499
     27 C         -16.4791   -8.6996   18.3196 C.ar    1  UNL1        0.1442
     28 C         -16.9213   -7.8114   19.4446 C.ar    1  UNL1        0.0234
     29 C         -18.2470   -8.0437   20.1070 C.ar    1  UNL1        0.0221
     30 C         -19.1305   -9.1641   19.6444 C.ar    1  UNL1        0.0990
     31 N         -18.6882  -10.0523   18.5193 N.ar    1  UNL1       -0.2409
     32 C         -17.3626   -9.8201   17.8570 C.ar    1  UNL1        0.1190
@<TRIPOS>BOND
     1     9    10    2
     2    10     1    1
     3     1     2   ar
     4     2     3    1
     5     2     4   ar
     6     4     5   ar
     7     5     6   ar
     8     6    22    1
     9    22    24    1
    10    24    25    2
    11    24    26    2
    12    24    27    1
    13    27    28   ar
    14    28    29   ar
    15    29    30   ar
    16    30    31   ar
    17    31    32   ar
    18     6     7   ar
    19     7     8    1
    20    10    11    1
    21    11    12   ar
    22    12    13   ar
    23    13    14   ar
    24    14    15   ar
    25    15    16   ar
    26    16    17   ar
    27    17    18    1
    28    17    19   ar
    29    19    20   ar
    30     7     1   ar
    31    20    11   ar
    32    32    27   ar
    33    20    14    1
    34    22    23    1
    35    15    21    1
@<TRIPOS>MOLECULE
*****
 32 35 0 0 0
SMALL
GASTEIGER

@<TRIPOS>ATOM
      1 C         -12.2180   -5.5545   17.8415 C.ar    1  UNL1        0.0951
      2 C         -11.2551   -6.3009   18.7165 C.ar    1  UNL1        0.1454
      3 F         -11.5681   -7.7017   19.1518 F       1  UNL1       -0.2040
      4 C          -9.9790   -5.6463   19.1561 C.ar    1  UNL1        0.0312
      5 C          -9.6660   -4.2454   18.7207 C.ar    1  UNL1        0.0204
      6 C         -10.6289   -3.4990   17.8458 C.ar    1  UNL1        0.0924
      7 C         -11.9050   -4.1536   17.4062 C.ar    1  UNL1        0.1598
      8 F         -12.8680   -3.4072   16.5312 F       1  UNL1       -0.2026
      9 O         -13.5464   -6.9508   16.0992 O.2     1  UNL1       -0.2864
     10 C         -13.4942   -6.2090   17.4018 C.2     1  UNL1        0.2015
     11 C         -14.7179   -6.1216   18.2648 C.ar    1  UNL1        0.0612
     12 C         -15.2523   -4.8793   18.9137 C.ar    1  UNL1        0.1037
     13 N         -16.4868   -5.2512   19.6804 N.ar    1  UNL1       -0.2269
     14 C         -16.7154   -6.7233   19.5053 C.ar    1  UNL1        0.1407
     15 N         -17.7777   -7.6434   20.0295 N.ar    1  UNL1       -0.3367
     16 C         -17.7468   -9.1014   19.6788 C.ar    1  UNL1        0.0850
     17 C         -16.6536   -9.6394   18.8039 C.ar    1  UNL1        0.0748
     18 CL        -16.6227  -11.0976   18.4532 Cl      1  UNL1       -0.0807
     19 C         -15.5912   -8.7193   18.2797 C.ar    1  UNL1        0.0160
     20 C         -15.6221   -7.2613   18.6304 C.ar    1  UNL1        0.0394
     21 H         -18.4952   -7.2903   20.6037 H       1  UNL1        0.1674
     22 N         -10.3159   -2.0982   17.4105 N.pl3   1  UNL1       -0.2128
     23 H          -9.4347   -1.8877   17.0252 H       1  UNL1        0.1738
     24 S         -11.3454   -1.0179   17.5622 S.O2    1  UNL1        0.0751
     25 O         -11.2511   -0.7219   16.0947 O.2     1  UNL1       -0.1499
     26 O         -11.4398   -1.3139   19.0296 O.2     1  UNL1       -0.1499
     27 C         -12.3749    0.0623   17.7140 C.ar    1  UNL1        0.1442
     28 C         -13.6499   -0.2153   18.4539 C.ar    1  UNL1        0.0234
     29 C         -14.6795    0.8649   18.6058 C.ar    1  UNL1        0.0221
     30 C         -14.4342    2.2228   18.0177 C.ar    1  UNL1        0.0990
     31 N         -13.1593    2.5004   17.2777 N.ar    1  UNL1       -0.2409
     32 C         -12.1297    1.4202   17.1258 C.ar    1  UNL1        0.1190
@<TRIPOS>BOND
     1     9    10    2
     2    10     1    1
     3     1     2   ar
     4     2     3    1
     5     2     4   ar
     6     4     5   ar
     7     5     6   ar
     8     6    22    1
     9    22    24    1
    10    24    25    2
    11    24    26    2
    12    24    27    1
    13    27    28   ar
    14    28    29   ar
    15    29    30   ar
    16    30    31   ar
    17    31    32   ar
    18     6     7   ar
    19     7     8    1
    20    10    11    1
    21    11    12   ar
    22    12    13   ar
    23    13    14   ar
    24    14    15   ar
    25    15    16   ar
    26    16    17   ar
    27    17    18    1
    28    17    19   ar
    29    19    20   ar
    30     7     1   ar
    31    20    11   ar
    32    32    27   ar
    33    20    14    1
    34    22    23    1
    35    15    21    1
@<TRIPOS>MOLECULE
*****
 32 35 0 0 0
SMALL
GASTEIGER

@<TRIPOS>ATOM
      1 C           4.9141   -2.6214   19.7663 C.ar    1  UNL1        0.0951
      2 C           6.2948   -2.5004   19.1929 C.ar    1  UNL1        0.1454
      3 F           7.3956   -3.3876   19.6941 F       1  UNL1       -0.2040
      4 C           6.5748   -1.4921   18.1182 C.ar    1  UNL1        0.0312
      5 C           5.4740   -0.6049   17.6170 C.ar    1  UNL1        0.0204
      6 C           4.0933   -0.7260   18.1904 C.ar    1  UNL1        0.0924
      7 C           3.8133   -1.7342   19.2651 C.ar    1  UNL1        0.1598
      8 F           2.4326   -1.8554   19.8387 F       1  UNL1       -0.2026
      9 O           4.0064   -4.9459   20.4895 O.2     1  UNL1       -0.2864
     10 C           4.6341   -3.6298   20.8411 C.2     1  UNL1        0.2015
     11 C           4.9818   -3.3218   22.2674 C.ar    1  UNL1        0.0612
     12 C           6.0262   -4.0164   23.0900 C.ar    1  UNL1        0.1037
     13 N           6.0360   -3.3890   24.4525 N.ar    1  UNL1       -0.2269
     14 C           4.9976   -2.3067   24.4719 C.ar    1  UNL1        0.1407
     15 N           4.5613   -1.3537   25.5448 N.ar    1  UNL1       -0.3367
     16 C           3.4733   -0.3590   25.2673 C.ar    1  UNL1        0.0850
     17 C           2.8218   -0.3175   23.9168 C.ar    1  UNL1        0.0748
     18 CL          1.7338    0.6772   23.6393 Cl      1  UNL1       -0.0807
     19 C           3.2582   -1.2705   22.8439 C.ar    1  UNL1        0.0160
     20 C           4.3461   -2.2651   23.1214 C.ar    1  UNL1        0.0394
     21 H           4.9889   -1.3809   26.4312 H       1  UNL1        0.1674
     22 N           2.9925    0.1612   17.6892 N.pl3   1  UNL1       -0.2128
     23 H           2.7890    0.1972   16.7267 H       1  UNL1        0.1738
     24 S           2.2019    0.9936   18.6546 S.O2    1  UNL1        0.0751
     25 O           0.9351    0.3545   18.1682 O.2     1  UNL1       -0.1499
     26 O           3.4687    1.6328   19.1410 O.2     1  UNL1       -0.1499
     27 C           1.4113    1.8261   19.6200 C.ar    1  UNL1        0.1442
     28 C           1.8756    3.2079   19.9740 C.ar    1  UNL1        0.0234
     29 C           1.0851    4.0404   20.9394 C.ar    1  UNL1        0.0221
     30 C          -0.1697    3.4912   21.5508 C.ar    1  UNL1        0.0990
     31 N          -0.6339    2.1094   21.1968 N.ar    1  UNL1       -0.2409
     32 C           0.1566    1.2769   20.2314 C.ar    1  UNL1        0.1190
@<TRIPOS>BOND
     1     9    10    2
     2    10     1    1
     3     1     2   ar
     4     2     3    1
     5     2     4   ar
     6     4     5   ar
     7     5     6   ar
     8     6    22    1
     9    22    24    1
    10    24    25    2
    11    24    26    2
    12    24    27    1
    13    27    28   ar
    14    28    29   ar
    15    29    30   ar
    16    30    31   ar
    17    31    32   ar
    18     6     7   ar
    19     7     8    1
    20    10    11    1
    21    11    12   ar
    22    12    13   ar
    23    13    14   ar
    24    14    15   ar
    25    15    16   ar
    26    16    17   ar
    27    17    18    1
    28    17    19   ar
    29    19    20   ar
    30     7     1   ar
    31    20    11   ar
    32    32    27   ar
    33    20    14    1
    34    22    23    1
    35    15    21    1
@<TRIPOS>MOLECULE
*****
 32 35 0 0 0
SMALL
GASTEIGER

@<TRIPOS>ATOM
      1 C         -17.0868   -2.9394   18.4703 C.ar    1  UNL1        0.0951
      2 C         -17.6608   -1.9229   19.4122 C.ar    1  UNL1        0.1454
      3 F         -19.1194   -1.9622   19.7602 F       1  UNL1       -0.2040
      4 C         -16.7763   -0.8670   20.0060 C.ar    1  UNL1        0.0312
      5 C         -15.3177   -0.8277   19.6580 C.ar    1  UNL1        0.0204
      6 C         -14.7437   -1.8442   18.7161 C.ar    1  UNL1        0.0924
      7 C         -15.6283   -2.9001   18.1223 C.ar    1  UNL1        0.1598
      8 F         -15.0544   -3.9167   17.1804 F       1  UNL1       -0.2026
      9 O         -18.3912   -3.9009   16.4395 O.2     1  UNL1       -0.2864
     10 C         -17.9714   -3.9954   17.8764 C.2     1  UNL1        0.2015
     11 C         -18.4361   -5.1457   18.7195 C.ar    1  UNL1        0.0612
     12 C         -19.7522   -5.2409   19.4328 C.ar    1  UNL1        0.1037
     13 N         -19.7958   -6.5568   20.1515 N.ar    1  UNL1       -0.2269
     14 C         -18.5066   -7.2749   19.8823 C.ar    1  UNL1        0.1407
     15 N         -17.9893   -8.6102   20.3287 N.ar    1  UNL1       -0.3367
     16 C         -16.6317   -9.0733   19.8902 C.ar    1  UNL1        0.0850
     17 C         -15.7914   -8.2012   19.0052 C.ar    1  UNL1        0.0748
     18 CL        -14.4337   -8.6644   18.5666 Cl      1  UNL1       -0.0807
     19 C         -16.3087   -6.8659   18.5587 C.ar    1  UNL1        0.0160
     20 C         -17.6663   -6.4027   18.9973 C.ar    1  UNL1        0.0394
     21 H         -18.5408   -9.1826   20.9096 H       1  UNL1        0.1674
     22 N         -13.2852   -1.8049   18.3681 N.pl3   1  UNL1       -0.2128
     23 H         -12.8828   -0.9737   18.0270 H       1  UNL1        0.1738
     24 S         -12.4398   -3.0320   18.5398 S.O2    1  UNL1        0.0751
     25 O         -12.1008   -3.0029   17.0789 O.2     1  UNL1       -0.1499
     26 O         -12.7789   -3.0612   20.0007 O.2     1  UNL1       -0.1499
     27 C         -11.5945   -4.2592   18.7116 C.ar    1  UNL1        0.1442
     28 C         -12.2040   -5.6194   18.5430 C.ar    1  UNL1        0.0234
     29 C         -11.3587   -6.8466   18.7148 C.ar    1  UNL1        0.0221
     30 C          -9.9039   -6.7136   19.0552 C.ar    1  UNL1        0.0990
     31 N          -9.2945   -5.3534   19.2237 N.ar    1  UNL1       -0.2409
     32 C         -10.1397   -4.1262   19.0519 C.ar    1  UNL1        0.1190
@<TRIPOS>BOND
     1     9    10    2
     2    10     1    1
     3     1     2   ar
     4     2     3    1
     5     2     4   ar
     6     4     5   ar
     7     5     6   ar
     8     6    22    1
     9    22    24    1
    10    24    25    2
    11    24    26    2
    12    24    27    1
    13    27    28   ar
    14    28    29   ar
    15    29    30   ar
    16    30    31   ar
    17    31    32   ar
    18     6     7   ar
    19     7     8    1
    20    10    11    1
    21    11    12   ar
    22    12    13   ar
    23    13    14   ar
    24    14    15   ar
    25    15    16   ar
    26    16    17   ar
    27    17    18    1
    28    17    19   ar
    29    19    20   ar
    30     7     1   ar
    31    20    11   ar
    32    32    27   ar
    33    20    14    1
    34    22    23    1
    35    15    21    1
