@<TRIPOS>MOLECULE
*****
 34 37 0 0 0
SMALL
GASTEIGER

@<TRIPOS>ATOM
      1 C         -12.3200   -0.1922   18.1182 C.3     1  UNL1        0.0725
      2 C         -12.5577   -1.5460   18.7189 C.3     1  UNL1        0.0239
      3 C         -11.7477   -2.7224   18.2609 C.3     1  UNL1        0.0237
      4 C         -10.6999   -2.5450   17.2022 C.2     1  UNL1       -0.0441
      5 C          -9.8898   -3.7215   16.7442 C.2     1  UNL1       -0.0084
      6 C         -10.4622   -1.1913   16.6016 C.3     1  UNL1        0.0237
      7 C         -11.2723   -0.0149   17.0596 C.3     1  UNL1        0.0239
      8 C         -10.1275   -5.0753   17.3449 C.ar    1  UNL1        0.0024
      9 C          -9.2292   -5.5805   18.4347 C.ar    1  UNL1        0.0002
     10 C          -9.4669   -6.9343   19.0353 C.ar    1  UNL1        0.0031
     11 C         -10.6030   -7.7829   18.5462 C.ar    1  UNL1        0.0376
     12 C         -11.5013   -7.2776   17.4564 C.ar    1  UNL1        0.1472
     13 C         -11.2636   -5.9239   16.8557 C.ar    1  UNL1        0.0375
     14 O         -12.6374   -8.1261   16.9672 O.3     1  UNL1       -0.4361
     15 C         -13.9217   -8.1784   17.7406 C.ar    1  UNL1        0.2297
     16 C         -14.3249   -7.0199   18.6039 C.ar    1  UNL1        0.0581
     17 C         -15.6091   -7.0722   19.3773 C.ar    1  UNL1        0.0102
     18 C         -16.4900   -8.2828   19.2873 C.ar    1  UNL1        0.0907
     19 C         -16.0868   -9.4413   18.4240 C.ar    1  UNL1        0.1059
     20 N         -14.8026   -9.3891   17.6506 N.ar    1  UNL1       -0.2099
     21 C         -17.7742   -8.3351   20.0607 C.3     1  UNL1        0.4200
     22 F         -19.0584   -8.3873   20.8341 F       1  UNL1       -0.1658
     23 F         -17.8211   -6.8361   20.0842 F       1  UNL1       -0.1658
     24 F         -17.7274   -9.8342   20.0372 F       1  UNL1       -0.1658
     25 O         -15.2410   -0.0320   17.4532 O.2     1  UNL1       -0.2701
     26 C         -14.5906    1.0644   18.2437 C.2     1  UNL1        0.2473
     27 N         -13.1301    0.9843   18.5762 N.am    1  UNL1       -0.3024
     28 H         -12.7032    1.7039   19.0950 H       1  UNL1        0.1497
     29 C         -15.4007    2.2409   18.7017 C.ar    1  UNL1        0.0725
     30 C         -16.2926    2.1160   19.9012 C.ar    1  UNL1        0.0077
     31 C         -17.1026    3.2925   20.3591 C.ar    1  UNL1        0.0208
     32 C         -17.0207    4.5938   19.6176 C.ar    1  UNL1        0.0989
     33 N         -16.1288    4.7186   18.4180 N.ar    1  UNL1       -0.2422
     34 C         -15.3188    3.5421   17.9601 C.ar    1  UNL1        0.1034
@<TRIPOS>BOND
     1    25    26    2
     2    26    27   am
     3    27     1    1
     4     1     2    1
     5     2     3    1
     6     3     4    1
     7     4     5    2
     8     5     8    1
     9     8     9   ar
    10     9    10   ar
    11    10    11   ar
    12    11    12   ar
    13    12    14    1
    14    14    15    1
    15    15    16   ar
    16    16    17   ar
    17    17    18   ar
    18    18    21    1
    19    21    22    1
    20    21    23    1
    21    21    24    1
    22    18    19   ar
    23    19    20   ar
    24    12    13   ar
    25     4     6    1
    26     6     7    1
    27    26    29    1
    28    29    30   ar
    29    30    31   ar
    30    31    32   ar
    31    32    33   ar
    32    33    34   ar
    33     7     1    1
    34    34    29   ar
    35    13     8   ar
    36    20    15   ar
    37    27    28    1
@<TRIPOS>MOLECULE
*****
 34 37 0 0 0
SMALL
GASTEIGER

@<TRIPOS>ATOM
      1 C           0.2494    1.1305   20.0952 C.3     1  UNL1        0.0725
      2 C           0.7797   -0.1414   20.6875 C.3     1  UNL1        0.0239
      3 C           1.9853   -0.8025   20.0879 C.3     1  UNL1        0.0237
      4 C           2.6606   -0.1915   18.8960 C.2     1  UNL1       -0.0441
      5 C           3.8662   -0.8526   18.2964 C.2     1  UNL1       -0.0084
      6 C           2.1303    1.0804   18.3036 C.3     1  UNL1        0.0237
      7 C           0.9247    1.7414   18.9032 C.3     1  UNL1        0.0239
      8 C           4.3965   -2.1246   18.8887 C.ar    1  UNL1        0.0024
      9 C           3.6749   -3.4187   18.6551 C.ar    1  UNL1        0.0002
     10 C           4.2052   -4.6907   19.2475 C.ar    1  UNL1        0.0031
     11 C           5.4571   -4.6685   20.0734 C.ar    1  UNL1        0.0376
     12 C           6.1787   -3.3744   20.3070 C.ar    1  UNL1        0.1472
     13 C           5.6485   -2.1025   19.7147 C.ar    1  UNL1        0.0375
     14 O           7.4306   -3.3523   21.1329 O.3     1  UNL1       -0.4361
     15 C           7.6739   -4.4229   22.1551 C.ar    1  UNL1        0.2297
     16 C           7.0657   -4.3074   23.5214 C.ar    1  UNL1        0.0581
     17 C           7.3089   -5.3779   24.5435 C.ar    1  UNL1        0.0102
     18 C           8.1603   -6.5639   24.1993 C.ar    1  UNL1        0.0907
     19 C           8.7685   -6.6794   22.8330 C.ar    1  UNL1        0.1059
     20 N           8.5253   -5.6089   21.8109 N.ar    1  UNL1       -0.2099
     21 C           8.4036   -7.6345   25.2214 C.3     1  UNL1        0.4200
     22 F           8.6469   -8.7051   26.2435 F       1  UNL1       -0.1658
     23 F           9.5360   -8.1669   24.3943 F       1  UNL1       -0.1658
     24 F           7.2712   -7.1022   26.0486 F       1  UNL1       -0.1658
     25 O           0.5889    3.3893   22.0401 O.2     1  UNL1       -0.2701
     26 C          -0.7865    2.9210   21.6672 C.2     1  UNL1        0.2473
     27 N          -0.9563    1.7916   20.6948 N.am    1  UNL1       -0.3024
     28 H          -1.8590    1.4842   20.4501 H       1  UNL1        0.1497
     29 C          -1.9922    3.5821   22.2668 C.ar    1  UNL1        0.0725
     30 C          -2.1203    3.6987   23.7567 C.ar    1  UNL1        0.0077
     31 C          -3.3259    4.3598   24.3562 C.ar    1  UNL1        0.0208
     32 C          -4.4034    4.9042   23.4659 C.ar    1  UNL1        0.0989
     33 N          -4.2752    4.7875   21.9759 N.ar    1  UNL1       -0.2422
     34 C          -3.0696    4.1265   21.3764 C.ar    1  UNL1        0.1034
@<TRIPOS>BOND
     1    25    26    2
     2    26    27   am
     3    27     1    1
     4     1     2    1
     5     2     3    1
     6     3     4    1
     7     4     5    2
     8     5     8    1
     9     8     9   ar
    10     9    10   ar
    11    10    11   ar
    12    11    12   ar
    13    12    14    1
    14    14    15    1
    15    15    16   ar
    16    16    17   ar
    17    17    18   ar
    18    18    21    1
    19    21    22    1
    20    21    23    1
    21    21    24    1
    22    18    19   ar
    23    19    20   ar
    24    12    13   ar
    25     4     6    1
    26     6     7    1
    27    26    29    1
    28    29    30   ar
    29    30    31   ar
    30    31    32   ar
    31    32    33   ar
    32    33    34   ar
    33     7     1    1
    34    34    29   ar
    35    13     8   ar
    36    20    15   ar
    37    27    28    1
@<TRIPOS>MOLECULE
*****
 34 37 0 0 0
SMALL
GASTEIGER

@<TRIPOS>ATOM
      1 C           6.1593   -2.9044   21.9154 C.3     1  UNL1        0.0725
      2 C           5.8982   -3.4046   23.3052 C.3     1  UNL1        0.0239
      3 C           6.8321   -4.3962   23.9332 C.3     1  UNL1        0.0237
      4 C           8.0271   -4.8877   23.1713 C.2     1  UNL1       -0.0441
      5 C           8.9610   -5.8795   23.7993 C.2     1  UNL1       -0.0084
      6 C           8.2882   -4.3876   21.7815 C.3     1  UNL1        0.0237
      7 C           7.3542   -3.3959   21.1535 C.3     1  UNL1        0.0239
      8 C           8.7000   -6.3796   25.1891 C.ar    1  UNL1        0.0024
      9 C           8.0216   -7.7015   25.3955 C.ar    1  UNL1        0.0002
     10 C           7.7606   -8.2016   26.7854 C.ar    1  UNL1        0.0031
     11 C           8.1779   -7.3799   27.9689 C.ar    1  UNL1        0.0376
     12 C           8.8562   -6.0580   27.7625 C.ar    1  UNL1        0.1472
     13 C           9.1173   -5.5579   26.3727 C.ar    1  UNL1        0.0375
     14 O           9.2735   -5.2364   28.9460 O.3     1  UNL1       -0.4361
     15 C           8.2389   -4.5297   29.7708 C.ar    1  UNL1        0.2297
     16 C           7.9455   -4.9957   31.1660 C.ar    1  UNL1        0.0581
     17 C           6.9109   -4.2891   31.9908 C.ar    1  UNL1        0.0102
     18 C           6.1697   -3.1165   31.4203 C.ar    1  UNL1        0.0907
     19 C           6.4631   -2.6504   30.0251 C.ar    1  UNL1        0.1059
     20 N           7.4977   -3.3570   29.2003 N.ar    1  UNL1       -0.2099
     21 C           5.1350   -2.4098   32.2451 C.3     1  UNL1        0.4200
     22 F           4.1004   -1.7032   33.0699 F       1  UNL1       -0.1658
     23 F           5.1504   -3.5393   33.2320 F       1  UNL1       -0.1658
     24 F           5.1196   -1.2804   31.2582 F       1  UNL1       -0.1658
     25 O           3.9074   -3.8570   20.1770 O.2     1  UNL1       -0.2701
     26 C           4.0994   -2.3890   20.4182 C.2     1  UNL1        0.2473
     27 N           5.2253   -1.9127   21.2874 N.am    1  UNL1       -0.3024
     28 H           5.3514   -0.9492   21.4457 H       1  UNL1        0.1497
     29 C           3.1655   -1.3973   19.7902 C.ar    1  UNL1        0.0725
     30 C           1.8724   -1.0518   20.4674 C.ar    1  UNL1        0.0077
     31 C           0.9386   -0.0601   19.8393 C.ar    1  UNL1        0.0208
     32 C           1.2978    0.5861   18.5342 C.ar    1  UNL1        0.0989
     33 N           2.5908    0.2405   17.8570 N.ar    1  UNL1       -0.2422
     34 C           3.5247   -0.7511   18.4850 C.ar    1  UNL1        0.1034
@<TRIPOS>BOND
     1    25    26    2
     2    26    27   am
     3    27     1    1
     4     1     2    1
     5     2     3    1
     6     3     4    1
     7     4     5    2
     8     5     8    1
     9     8     9   ar
    10     9    10   ar
    11    10    11   ar
    12    11    12   ar
    13    12    14    1
    14    14    15    1
    15    15    16   ar
    16    16    17   ar
    17    17    18   ar
    18    18    21    1
    19    21    22    1
    20    21    23    1
    21    21    24    1
    22    18    19   ar
    23    19    20   ar
    24    12    13   ar
    25     4     6    1
    26     6     7    1
    27    26    29    1
    28    29    30   ar
    29    30    31   ar
    30    31    32   ar
    31    32    33   ar
    32    33    34   ar
    33     7     1    1
    34    34    29   ar
    35    13     8   ar
    36    20    15   ar
    37    27    28    1
@<TRIPOS>MOLECULE
*****
 34 37 0 0 0
SMALL
GASTEIGER

@<TRIPOS>ATOM
      1 C           6.7792   -4.3928   25.8698 C.3     1  UNL1        0.0725
      2 C           6.4981   -3.3032   24.8781 C.3     1  UNL1        0.0239
      3 C           6.9413   -3.4535   23.4530 C.3     1  UNL1        0.0237
      4 C           7.6656   -4.6934   23.0196 C.2     1  UNL1       -0.0441
      5 C           8.1088   -4.8437   21.5944 C.2     1  UNL1       -0.0084
      6 C           7.9468   -5.7831   24.0113 C.3     1  UNL1        0.0237
      7 C           7.5036   -5.6328   25.4364 C.3     1  UNL1        0.0239
      8 C           7.8276   -3.7540   20.6027 C.ar    1  UNL1        0.0024
      9 C           8.8403   -2.6722   20.3699 C.ar    1  UNL1        0.0002
     10 C           8.5591   -1.5825   19.3781 C.ar    1  UNL1        0.0031
     11 C           7.2653   -1.5747   18.6192 C.ar    1  UNL1        0.0376
     12 C           6.2526   -2.6565   18.8521 C.ar    1  UNL1        0.1472
     13 C           6.5338   -3.7461   19.8438 C.ar    1  UNL1        0.0375
     14 O           4.9588   -2.6486   18.0932 O.3     1  UNL1       -0.4361
     15 C           3.8419   -1.7448   18.5243 C.ar    1  UNL1        0.2297
     16 C           3.0846   -2.0374   19.7855 C.ar    1  UNL1        0.0581
     17 C           1.9678   -1.1336   20.2166 C.ar    1  UNL1        0.0102
     18 C           1.6083    0.0628   19.3864 C.ar    1  UNL1        0.0907
     19 C           2.3656    0.3554   18.1251 C.ar    1  UNL1        0.1059
     20 N           3.4824   -0.5484   17.6941 N.ar    1  UNL1       -0.2099
     21 C           0.4914    0.9666   19.8174 C.3     1  UNL1        0.4200
     22 F          -0.6254    1.8705   20.2484 F       1  UNL1       -0.1658
     23 F           0.7940    1.8866   18.6720 F       1  UNL1       -0.1658
     24 F           0.1888    0.0466   20.9628 F       1  UNL1       -0.1658
     25 O           8.4147   -2.7631   27.7854 O.2     1  UNL1       -0.2701
     26 C           7.1537   -3.4277   28.2528 C.2     1  UNL1        0.2473
     27 N           6.3360   -4.2426   27.2950 N.am    1  UNL1       -0.3024
     28 H           5.5085   -4.6788   27.6017 H       1  UNL1        0.1497
     29 C           6.7105   -3.2775   29.6780 C.ar    1  UNL1        0.0725
     30 C           7.0474   -4.3379   30.6839 C.ar    1  UNL1        0.0077
     31 C           6.6042   -4.1876   32.1090 C.ar    1  UNL1        0.0208
     32 C           5.8242   -2.9769   32.5281 C.ar    1  UNL1        0.0989
     33 N           5.4873   -1.9165   31.5222 N.ar    1  UNL1       -0.2422
     34 C           5.9305   -2.0668   30.0971 C.ar    1  UNL1        0.1034
@<TRIPOS>BOND
     1    25    26    2
     2    26    27   am
     3    27     1    1
     4     1     2    1
     5     2     3    1
     6     3     4    1
     7     4     5    2
     8     5     8    1
     9     8     9   ar
    10     9    10   ar
    11    10    11   ar
    12    11    12   ar
    13    12    14    1
    14    14    15    1
    15    15    16   ar
    16    16    17   ar
    17    17    18   ar
    18    18    21    1
    19    21    22    1
    20    21    23    1
    21    21    24    1
    22    18    19   ar
    23    19    20   ar
    24    12    13   ar
    25     4     6    1
    26     6     7    1
    27    26    29    1
    28    29    30   ar
    29    30    31   ar
    30    31    32   ar
    31    32    33   ar
    32    33    34   ar
    33     7     1    1
    34    34    29   ar
    35    13     8   ar
    36    20    15   ar
    37    27    28    1
@<TRIPOS>MOLECULE
*****
 34 37 0 0 0
SMALL
GASTEIGER

@<TRIPOS>ATOM
      1 C           1.0816    1.4111   23.3388 C.3     1  UNL1        0.0725
      2 C           0.0500    2.4725   23.0956 C.3     1  UNL1        0.0239
      3 C          -0.8222    2.9426   24.2218 C.3     1  UNL1        0.0237
      4 C          -0.6628    2.3513   25.5911 C.2     1  UNL1       -0.0441
      5 C          -1.5351    2.8214   26.7172 C.2     1  UNL1       -0.0084
      6 C           0.3688    1.2899   25.8342 C.3     1  UNL1        0.0237
      7 C           1.2410    0.8198   24.7081 C.3     1  UNL1        0.0239
      8 C          -2.5667    3.8828   26.4740 C.ar    1  UNL1        0.0024
      9 C          -2.3979    5.2453   27.0784 C.ar    1  UNL1        0.0002
     10 C          -3.4296    6.3067   26.8352 C.ar    1  UNL1        0.0031
     11 C          -4.6300    6.0056   25.9876 C.ar    1  UNL1        0.0376
     12 C          -4.7988    4.6432   25.3832 C.ar    1  UNL1        0.1472
     13 C          -3.7672    3.5818   25.6264 C.ar    1  UNL1        0.0375
     14 O          -5.9991    4.3422   24.5356 O.3     1  UNL1       -0.4361
     15 C          -5.8398    4.1242   23.0601 C.ar    1  UNL1        0.2297
     16 C          -6.8357    4.7102   22.1036 C.ar    1  UNL1        0.0581
     17 C          -6.6764    4.4923   20.6281 C.ar    1  UNL1        0.0102
     18 C          -5.5213    3.6884   20.1091 C.ar    1  UNL1        0.0907
     19 C          -4.5254    3.1024   21.0656 C.ar    1  UNL1        0.1059
     20 N          -4.6847    3.3203   22.5411 N.ar    1  UNL1       -0.2099
     21 C          -5.3620    3.4704   18.6336 C.3     1  UNL1        0.4200
     22 F          -5.2027    3.2524   17.1581 F       1  UNL1       -0.1658
     23 F          -6.7313    2.8608   18.5758 F       1  UNL1       -0.1658
     24 F          -3.9927    4.0800   18.6913 F       1  UNL1       -0.1658
     25 O          -0.1443    0.0744   20.9491 O.2     1  UNL1       -0.2701
     26 C           1.3409    0.2726   21.0179 C.2     1  UNL1        0.2473
     27 N           1.9539    0.9409   22.2127 N.am    1  UNL1       -0.3024
     28 H           2.9287    1.0710   22.2578 H       1  UNL1        0.1497
     29 C           2.2132   -0.1975   19.8917 C.ar    1  UNL1        0.0725
     30 C           2.9164   -1.5189   19.9890 C.ar    1  UNL1        0.0077
     31 C           3.7887   -1.9890   18.8629 C.ar    1  UNL1        0.0208
     32 C           3.9577   -1.1377   17.6395 C.ar    1  UNL1        0.0989
     33 N           3.2545    0.1836   17.5422 N.ar    1  UNL1       -0.2422
     34 C           2.3822    0.6537   18.6683 C.ar    1  UNL1        0.1034
@<TRIPOS>BOND
     1    25    26    2
     2    26    27   am
     3    27     1    1
     4     1     2    1
     5     2     3    1
     6     3     4    1
     7     4     5    2
     8     5     8    1
     9     8     9   ar
    10     9    10   ar
    11    10    11   ar
    12    11    12   ar
    13    12    14    1
    14    14    15    1
    15    15    16   ar
    16    16    17   ar
    17    17    18   ar
    18    18    21    1
    19    21    22    1
    20    21    23    1
    21    21    24    1
    22    18    19   ar
    23    19    20   ar
    24    12    13   ar
    25     4     6    1
    26     6     7    1
    27    26    29    1
    28    29    30   ar
    29    30    31   ar
    30    31    32   ar
    31    32    33   ar
    32    33    34   ar
    33     7     1    1
    34    34    29   ar
    35    13     8   ar
    36    20    15   ar
    37    27    28    1
@<TRIPOS>MOLECULE
*****
 34 37 0 0 0
SMALL
GASTEIGER

@<TRIPOS>ATOM
      1 C           2.4823    0.6236   24.7388 C.3     1  UNL1        0.0725
      2 C           3.2277   -0.6394   24.4238 C.3     1  UNL1        0.0239
      3 C           3.4001   -1.0727   22.9981 C.3     1  UNL1        0.0237
      4 C           2.8270   -0.2431   21.8876 C.2     1  UNL1       -0.0441
      5 C           2.9994   -0.6765   20.4619 C.2     1  UNL1       -0.0084
      6 C           2.0817    1.0199   22.2026 C.3     1  UNL1        0.0237
      7 C           1.9093    1.4532   23.6283 C.3     1  UNL1        0.0239
      8 C           3.7448   -1.9394   20.1468 C.ar    1  UNL1        0.0024
      9 C           3.0760   -3.0292   19.3625 C.ar    1  UNL1        0.0002
     10 C           3.8215   -4.2922   19.0475 C.ar    1  UNL1        0.0031
     11 C           5.2356   -4.4654   19.5167 C.ar    1  UNL1        0.0376
     12 C           5.9044   -3.3756   20.3009 C.ar    1  UNL1        0.1472
     13 C           5.1590   -2.1126   20.6160 C.ar    1  UNL1        0.0375
     14 O           7.3185   -3.5487   20.7701 O.3     1  UNL1       -0.4361
     15 C           7.6355   -4.5468   21.8442 C.ar    1  UNL1        0.2297
     16 C           7.1256   -4.3350   23.2389 C.ar    1  UNL1        0.0581
     17 C           7.4425   -5.3329   24.3129 C.ar    1  UNL1        0.0102
     18 C           8.2694   -6.5426   23.9923 C.ar    1  UNL1        0.0907
     19 C           8.7793   -6.7544   22.5976 C.ar    1  UNL1        0.1059
     20 N           8.4623   -5.7565   21.5236 N.ar    1  UNL1       -0.2099
     21 C           8.5864   -7.5406   25.0664 C.3     1  UNL1        0.4200
     22 F           8.9033   -8.5385   26.1404 F       1  UNL1       -0.1658
     23 F           7.6488   -6.8338   25.9998 F       1  UNL1       -0.1658
     24 F           9.5239   -8.2475   24.1330 F       1  UNL1       -0.1658
     25 O          -0.2677    1.0944   25.8415 O.2     1  UNL1       -0.2701
     26 C           0.9350    1.2924   26.7158 C.2     1  UNL1        0.2473
     27 N           2.3099    1.0569   26.1645 N.am    1  UNL1       -0.3024
     28 H           3.0993    1.1869   26.7384 H       1  UNL1        0.1497
     29 C           0.7626    1.7257   28.1415 C.ar    1  UNL1        0.0725
     30 C           1.1107    3.1274   28.5467 C.ar    1  UNL1        0.0077
     31 C           0.9383    3.5607   29.9723 C.ar    1  UNL1        0.0208
     32 C           0.4178    2.5924   30.9928 C.ar    1  UNL1        0.0989
     33 N           0.0696    1.1907   30.5876 N.ar    1  UNL1       -0.2422
     34 C           0.2420    0.7574   29.1620 C.ar    1  UNL1        0.1034
@<TRIPOS>BOND
     1    25    26    2
     2    26    27   am
     3    27     1    1
     4     1     2    1
     5     2     3    1
     6     3     4    1
     7     4     5    2
     8     5     8    1
     9     8     9   ar
    10     9    10   ar
    11    10    11   ar
    12    11    12   ar
    13    12    14    1
    14    14    15    1
    15    15    16   ar
    16    16    17   ar
    17    17    18   ar
    18    18    21    1
    19    21    22    1
    20    21    23    1
    21    21    24    1
    22    18    19   ar
    23    19    20   ar
    24    12    13   ar
    25     4     6    1
    26     6     7    1
    27    26    29    1
    28    29    30   ar
    29    30    31   ar
    30    31    32   ar
    31    32    33   ar
    32    33    34   ar
    33     7     1    1
    34    34    29   ar
    35    13     8   ar
    36    20    15   ar
    37    27    28    1
@<TRIPOS>MOLECULE
*****
 34 37 0 0 0
SMALL
GASTEIGER

@<TRIPOS>ATOM
      1 C           3.0524    1.0685   30.8344 C.3     1  UNL1        0.0725
      2 C           4.1343    0.2511   30.1932 C.3     1  UNL1        0.0239
      3 C           4.9876   -0.6535   31.0318 C.3     1  UNL1        0.0237
      4 C           4.7590   -0.7408   32.5117 C.2     1  UNL1       -0.0441
      5 C           5.6124   -1.6455   33.3504 C.2     1  UNL1       -0.0084
      6 C           3.6771    0.0766   33.1530 C.3     1  UNL1        0.0237
      7 C           2.8238    0.9813   32.3143 C.3     1  UNL1        0.0239
      8 C           6.6943   -2.4629   32.7092 C.ar    1  UNL1        0.0024
      9 C           8.1051   -1.9539   32.6862 C.ar    1  UNL1        0.0002
     10 C           9.1870   -2.7714   32.0449 C.ar    1  UNL1        0.0031
     11 C           8.8581   -4.0979   31.4266 C.ar    1  UNL1        0.0376
     12 C           7.4473   -4.6069   31.4496 C.ar    1  UNL1        0.1472
     13 C           6.3654   -3.7895   32.0908 C.ar    1  UNL1        0.0375
     14 O           7.1184   -5.9333   30.8313 O.3     1  UNL1       -0.4361
     15 C           7.3286   -6.1486   29.3617 C.ar    1  UNL1        0.2297
     16 C           6.4196   -5.4864   28.3692 C.ar    1  UNL1        0.0581
     17 C           6.6297   -5.7016   26.8997 C.ar    1  UNL1        0.0102
     18 C           7.7489   -6.5791   26.4227 C.ar    1  UNL1        0.0907
     19 C           8.6579   -7.2413   27.4153 C.ar    1  UNL1        0.1059
     20 N           8.4478   -7.0260   28.8848 N.ar    1  UNL1       -0.2099
     21 C           7.9590   -6.7943   24.9532 C.3     1  UNL1        0.4200
     22 F           8.1692   -7.0096   23.4837 F       1  UNL1       -0.1658
     23 F           7.3280   -5.4638   24.6681 F       1  UNL1       -0.1658
     24 F           8.5901   -8.1249   25.2383 F       1  UNL1       -0.1658
     25 O           0.6362   -0.0240   29.4314 O.2     1  UNL1       -0.2701
     26 C           0.9909    1.4270   29.2943 C.2     1  UNL1        0.2473
     27 N           2.1990    1.9733   29.9957 N.am    1  UNL1       -0.3024
     28 H           2.4318    2.9256   29.9057 H       1  UNL1        0.1497
     29 C           0.1375    2.3317   28.4556 C.ar    1  UNL1        0.0725
     30 C          -0.9116    1.7506   27.5548 C.ar    1  UNL1        0.0077
     31 C          -1.7649    2.6553   26.7162 C.ar    1  UNL1        0.0208
     32 C          -1.5691    4.1411   26.7784 C.ar    1  UNL1        0.0989
     33 N          -0.5199    4.7223   27.6792 N.ar    1  UNL1       -0.2422
     34 C           0.3334    3.8176   28.5178 C.ar    1  UNL1        0.1034
@<TRIPOS>BOND
     1    25    26    2
     2    26    27   am
     3    27     1    1
     4     1     2    1
     5     2     3    1
     6     3     4    1
     7     4     5    2
     8     5     8    1
     9     8     9   ar
    10     9    10   ar
    11    10    11   ar
    12    11    12   ar
    13    12    14    1
    14    14    15    1
    15    15    16   ar
    16    16    17   ar
    17    17    18   ar
    18    18    21    1
    19    21    22    1
    20    21    23    1
    21    21    24    1
    22    18    19   ar
    23    19    20   ar
    24    12    13   ar
    25     4     6    1
    26     6     7    1
    27    26    29    1
    28    29    30   ar
    29    30    31   ar
    30    31    32   ar
    31    32    33   ar
    32    33    34   ar
    33     7     1    1
    34    34    29   ar
    35    13     8   ar
    36    20    15   ar
    37    27    28    1
@<TRIPOS>MOLECULE
*****
 34 37 0 0 0
SMALL
GASTEIGER

@<TRIPOS>ATOM
      1 C           7.3601   -3.8651   29.4172 C.3     1  UNL1        0.0725
      2 C           6.8488   -2.4558   29.3691 C.3     1  UNL1        0.0239
      3 C           6.2644   -1.8276   30.5994 C.3     1  UNL1        0.0237
      4 C           6.1913   -2.6088   31.8779 C.2     1  UNL1       -0.0441
      5 C           5.6069   -1.9805   33.1083 C.2     1  UNL1       -0.0084
      6 C           6.7027   -4.0181   31.9261 C.3     1  UNL1        0.0237
      7 C           7.2871   -4.6462   30.6957 C.3     1  UNL1        0.0239
      8 C           5.0955   -0.5712   33.0602 C.ar    1  UNL1        0.0024
      9 C           6.0150    0.5714   33.3747 C.ar    1  UNL1        0.0002
     10 C           5.5036    1.9808   33.3266 C.ar    1  UNL1        0.0031
     11 C           4.0728    2.2474   32.9639 C.ar    1  UNL1        0.0376
     12 C           3.1533    1.1048   32.6494 C.ar    1  UNL1        0.1472
     13 C           3.6646   -0.3045   32.6975 C.ar    1  UNL1        0.0375
     14 O           1.7225    1.3715   32.2867 O.3     1  UNL1       -0.4361
     15 C           1.2959    1.3459   30.8488 C.ar    1  UNL1        0.2297
     16 C           1.0294    2.6310   30.1226 C.ar    1  UNL1        0.0581
     17 C           0.6028    2.6054   28.6848 C.ar    1  UNL1        0.0102
     18 C           0.4427    1.2947   27.9732 C.ar    1  UNL1        0.0907
     19 C           0.7091    0.0096   28.6995 C.ar    1  UNL1        0.1059
     20 N           1.1357    0.0351   30.1373 N.ar    1  UNL1       -0.2099
     21 C           0.0161    1.2691   26.5353 C.3     1  UNL1        0.4200
     22 F          -0.4105    1.2435   25.0976 F       1  UNL1       -0.1658
     23 F          -1.3101    1.8559   26.9184 F       1  UNL1       -0.1658
     24 F           1.3423    0.6823   26.1523 F       1  UNL1       -0.1658
     25 O           5.6979   -5.7217   27.7468 O.2     1  UNL1       -0.2701
     26 C           7.1135   -5.4216   27.3517 C.2     1  UNL1        0.2473
     27 N           7.9446   -4.4934   28.1868 N.am    1  UNL1       -0.3024
     28 H           8.8737   -4.2965   27.9275 H       1  UNL1        0.1497
     29 C           7.6979   -6.0499   26.1213 C.ar    1  UNL1        0.0725
     30 C           8.5581   -7.2730   26.2400 C.ar    1  UNL1        0.0077
     31 C           9.1424   -7.9012   25.0096 C.ar    1  UNL1        0.0208
     32 C           8.8667   -7.3063   23.6606 C.ar    1  UNL1        0.0989
     33 N           8.0066   -6.0832   23.5418 N.ar    1  UNL1       -0.2422
     34 C           7.4222   -5.4550   24.7722 C.ar    1  UNL1        0.1034
@<TRIPOS>BOND
     1    25    26    2
     2    26    27   am
     3    27     1    1
     4     1     2    1
     5     2     3    1
     6     3     4    1
     7     4     5    2
     8     5     8    1
     9     8     9   ar
    10     9    10   ar
    11    10    11   ar
    12    11    12   ar
    13    12    14    1
    14    14    15    1
    15    15    16   ar
    16    16    17   ar
    17    17    18   ar
    18    18    21    1
    19    21    22    1
    20    21    23    1
    21    21    24    1
    22    18    19   ar
    23    19    20   ar
    24    12    13   ar
    25     4     6    1
    26     6     7    1
    27    26    29    1
    28    29    30   ar
    29    30    31   ar
    30    31    32   ar
    31    32    33   ar
    32    33    34   ar
    33     7     1    1
    34    34    29   ar
    35    13     8   ar
    36    20    15   ar
    37    27    28    1
@<TRIPOS>MOLECULE
*****
 34 37 0 0 0
SMALL
GASTEIGER

@<TRIPOS>ATOM
      1 C           1.2263    0.4318   28.5616 C.3     1  UNL1        0.0725
      2 C           2.0085    0.7505   27.3221 C.3     1  UNL1        0.0239
      3 C           1.3359    1.4251   26.1635 C.3     1  UNL1        0.0237
      4 C          -0.1190    1.7810   26.2444 C.2     1  UNL1       -0.0441
      5 C          -0.7917    2.4556   25.0857 C.2     1  UNL1       -0.0084
      6 C          -0.9013    1.4623   27.4839 C.3     1  UNL1        0.0237
      7 C          -0.2286    0.7878   28.6425 C.3     1  UNL1        0.0239
      8 C          -0.0094    2.7743   23.8462 C.ar    1  UNL1        0.0024
      9 C           0.9786    3.9029   23.8522 C.ar    1  UNL1        0.0002
     10 C           1.7609    4.2216   22.6126 C.ar    1  UNL1        0.0031
     11 C           1.5551    3.4115   21.3670 C.ar    1  UNL1        0.0376
     12 C           0.5672    2.2829   21.3609 C.ar    1  UNL1        0.1472
     13 C          -0.2151    1.9642   22.6005 C.ar    1  UNL1        0.0375
     14 O           0.3615    1.4729   20.1154 O.3     1  UNL1       -0.4361
     15 C           1.4301    0.5289   19.6495 C.ar    1  UNL1        0.2297
     16 C           1.7389   -0.7054   20.4440 C.ar    1  UNL1        0.0581
     17 C           2.8075   -1.6493   19.9783 C.ar    1  UNL1        0.0102
     18 C           3.5673   -1.3590   18.7180 C.ar    1  UNL1        0.0907
     19 C           3.2586   -0.1248   17.9235 C.ar    1  UNL1        0.1059
     20 N           2.1900    0.8192   18.3893 N.ar    1  UNL1       -0.2099
     21 C           4.6360   -2.3030   18.2522 C.3     1  UNL1        0.4200
     22 F           5.7046   -3.2470   17.7864 F       1  UNL1       -0.1658
     23 F           3.8783   -3.4535   18.8456 F       1  UNL1       -0.1658
     24 F           5.3937   -1.1525   17.6588 F       1  UNL1       -0.1658
     25 O           2.7643    2.0591   30.5582 O.2     1  UNL1       -0.2701
     26 C           2.6679    0.5709   30.7186 C.2     1  UNL1        0.2473
     27 N           1.8989   -0.2428   29.7203 N.am    1  UNL1       -0.3024
     28 H           1.8357   -1.2196   29.8256 H       1  UNL1        0.1497
     29 C           3.3405   -0.1038   31.8773 C.ar    1  UNL1        0.0725
     30 C           3.9063   -1.4836   31.7164 C.ar    1  UNL1        0.0077
     31 C           4.5789   -2.1581   32.8751 C.ar    1  UNL1        0.0208
     32 C           4.6857   -1.4528   34.1946 C.ar    1  UNL1        0.0989
     33 N           4.1199   -0.0730   34.3555 N.ar    1  UNL1       -0.2422
     34 C           3.4473    0.6015   33.1968 C.ar    1  UNL1        0.1034
@<TRIPOS>BOND
     1    25    26    2
     2    26    27   am
     3    27     1    1
     4     1     2    1
     5     2     3    1
     6     3     4    1
     7     4     5    2
     8     5     8    1
     9     8     9   ar
    10     9    10   ar
    11    10    11   ar
    12    11    12   ar
    13    12    14    1
    14    14    15    1
    15    15    16   ar
    16    16    17   ar
    17    17    18   ar
    18    18    21    1
    19    21    22    1
    20    21    23    1
    21    21    24    1
    22    18    19   ar
    23    19    20   ar
    24    12    13   ar
    25     4     6    1
    26     6     7    1
    27    26    29    1
    28    29    30   ar
    29    30    31   ar
    30    31    32   ar
    31    32    33   ar
    32    33    34   ar
    33     7     1    1
    34    34    29   ar
    35    13     8   ar
    36    20    15   ar
    37    27    28    1
