@<TRIPOS>MOLECULE
*****
 39 44 0 0 0
SMALL
GASTEIGER

@<TRIPOS>ATOM
      1 O           1.7305    0.0069   30.4989 O.2     1  UNL1       -0.2749
      2 C           3.1742   -0.3904   30.5878 C.2     1  UNL1        0.2252
      3 N           3.8973   -0.8678   29.3634 N.am    1  UNL1       -0.2794
      4 C           3.1768   -0.9479   28.0502 C.3     1  UNL1        0.0953
      5 C           3.8999   -1.4253   26.8258 C.3     1  UNL1        0.0442
      6 C           5.3437   -1.8226   26.9146 C.3     1  UNL1        0.0933
      7 C           6.0641   -1.7425   28.2277 C.3     1  UNL1        0.0442
      8 C           5.3410   -1.2651   29.4521 C.3     1  UNL1        0.0953
      9 N           6.0668   -2.3000   25.6901 N.ar    1  UNL1       -0.2817
     10 C           6.3542   -1.4871   24.4628 C.ar    1  UNL1        0.3315
     11 O           5.9689   -0.0539   24.2443 O.2     1  UNL1       -0.2463
     12 N           7.0945   -2.3588   23.4923 N.ar    1  UNL1       -0.2785
     13 C           7.2647   -3.7106   24.1198 C.ar    1  UNL1        0.0797
     14 C           7.9159   -4.9698   23.6298 C.ar    1  UNL1        0.0188
     15 C           7.9320   -6.1927   24.4983 C.ar    1  UNL1        0.0016
     16 C           7.2969   -6.1564   25.8567 C.ar    1  UNL1        0.0016
     17 C           6.6456   -4.8971   26.3466 C.ar    1  UNL1        0.0188
     18 C           6.6295   -3.6742   25.4782 C.ar    1  UNL1        0.0796
     19 C           7.5795   -1.9506   22.1328 C.3     1  UNL1        0.1278
     20 C           6.6215   -1.3606   21.1406 C.3     1  UNL1        0.0970
     21 N           5.6018   -2.2341   20.4718 N.3     1  UNL1       -0.2711
     22 C           5.9918   -3.5927   19.9698 C.3     1  UNL1        0.0722
     23 C           4.9721   -4.4662   19.3011 C.3     1  UNL1        0.0174
     24 C           3.5626   -3.9810   19.1343 C.3     1  UNL1        0.0029
     25 C           3.1726   -2.6224   19.6363 C.3     1  UNL1        0.0174
     26 C           4.1923   -1.7489   20.3051 C.3     1  UNL1        0.0722
     27 C           3.8947   -0.3103   31.9009 C.3     1  UNL1        0.0795
     28 C           4.4647    0.9972   32.3651 C.3     1  UNL1        0.0264
     29 C           5.1852    1.0774   33.6782 C.3     1  UNL1        0.0729
     30 N           5.3359   -0.1501   34.5272 N.3     1  UNL1       -0.2689
     31 C           4.7659   -1.4577   34.0630 C.3     1  UNL1        0.0729
     32 C           4.0453   -1.5378   32.7498 C.3     1  UNL1        0.0264
     33 C           6.0564   -0.0700   35.8404 C.3     1  UNL1        0.0992
     34 C           5.4587    0.7037   36.9779 C.ar    1  UNL1       -0.0031
     35 C           6.2968    1.6898   37.7364 C.ar    1  UNL1        0.0178
     36 C           5.6991    2.4635   38.8740 C.ar    1  UNL1        0.0986
     37 N           4.2634    2.2513   39.2531 N.ar    1  UNL1       -0.2423
     38 C           3.4254    1.2652   38.4945 C.ar    1  UNL1        0.0986
     39 C           4.0230    0.4915   37.3569 C.ar    1  UNL1        0.0178
@<TRIPOS>BOND
     1     1     2    2
     2     2    27    1
     3    27    28    1
     4    28    29    1
     5    29    30    1
     6    30    33    1
     7    33    34    1
     8    34    35   ar
     9    35    36   ar
    10    36    37   ar
    11    37    38   ar
    12    38    39   ar
    13    30    31    1
    14    31    32    1
    15     2     3   am
    16     3     4    1
    17     4     5    1
    18     5     6    1
    19     6     9    1
    20     9    10   ar
    21    10    11    2
    22    10    12   ar
    23    12    19    1
    24    19    20    1
    25    20    21    1
    26    21    22    1
    27    22    23    1
    28    23    24    1
    29    24    25    1
    30    25    26    1
    31    12    13   ar
    32    13    14   ar
    33    14    15   ar
    34    15    16   ar
    35    16    17   ar
    36    17    18   ar
    37     6     7    1
    38     7     8    1
    39    32    27    1
    40     8     3    1
    41    39    34   ar
    42    18     9   ar
    43    26    21    1
    44    18    13   ar
@<TRIPOS>MOLECULE
*****
 39 44 0 0 0
SMALL
GASTEIGER

@<TRIPOS>ATOM
      1 O           7.6368   -4.8705   21.5691 O.2     1  UNL1       -0.2749
      2 C           6.6942   -3.8288   22.0948 C.2     1  UNL1        0.2252
      3 N           6.5939   -3.5850   23.5715 N.am    1  UNL1       -0.2794
      4 C           7.4362   -4.3828   24.5223 C.3     1  UNL1        0.0953
      5 C           7.3359   -4.1390   25.9990 C.3     1  UNL1        0.0442
      6 C           6.3932   -3.0973   26.5248 C.3     1  UNL1        0.0933
      7 C           5.5511   -2.2995   25.5740 C.3     1  UNL1        0.0442
      8 C           5.6514   -2.5433   24.0973 C.3     1  UNL1        0.0953
      9 N           6.2929   -2.8534   28.0015 N.ar    1  UNL1       -0.2817
     10 C           5.8473   -1.5797   28.6565 C.ar    1  UNL1        0.3315
     11 O           5.4237   -0.3262   27.9499 O.2     1  UNL1       -0.2463
     12 N           5.8996   -1.7797   30.1422 N.ar    1  UNL1       -0.2785
     13 C           6.3775   -3.1769   30.4054 C.ar    1  UNL1        0.0797
     14 C           6.6228   -3.9307   31.6788 C.ar    1  UNL1        0.0188
     15 C           7.1111   -5.3481   31.6292 C.ar    1  UNL1        0.0016
     16 C           7.3542   -6.0117   30.3061 C.ar    1  UNL1        0.0016
     17 C           7.1090   -5.2580   29.0327 C.ar    1  UNL1        0.0188
     18 C           6.6206   -3.8406   29.0823 C.ar    1  UNL1        0.0796
     19 C           5.5375   -0.7612   31.1822 C.3     1  UNL1        0.1278
     20 C           4.1975   -0.8188   31.8539 C.3     1  UNL1        0.0970
     21 N           3.0301   -0.0854   31.2629 N.3     1  UNL1       -0.2711
     22 C           2.4038   -0.5740   29.9905 C.3     1  UNL1        0.0722
     23 C           1.2364    0.1594   29.3995 C.3     1  UNL1        0.0174
     24 C           0.6954    1.3813   30.0808 C.3     1  UNL1        0.0029
     25 C           1.3217    1.8699   31.3532 C.3     1  UNL1        0.0174
     26 C           2.4891    1.1365   31.9442 C.3     1  UNL1        0.0722
     27 C           5.8520   -3.0310   21.1440 C.3     1  UNL1        0.0795
     28 C           4.5643   -3.5988   20.6251 C.3     1  UNL1        0.0264
     29 C           3.7220   -2.8010   19.6743 C.3     1  UNL1        0.0729
     30 N           4.1675   -1.4353   19.2424 N.3     1  UNL1       -0.2689
     31 C           5.4553   -0.8675   19.7613 C.3     1  UNL1        0.0729
     32 C           6.2976   -1.6653   20.7121 C.3     1  UNL1        0.0264
     33 C           3.3253   -0.6375   18.2915 C.3     1  UNL1        0.0992
     34 C           2.2859    0.3058   18.8205 C.ar    1  UNL1       -0.0031
     35 C           1.2045   -0.2019   19.7276 C.ar    1  UNL1        0.0178
     36 C           0.1651    0.7413   20.2566 C.ar    1  UNL1        0.0986
     37 N           0.2070    2.1923   19.8785 N.ar    1  UNL1       -0.2423
     38 C           1.2884    2.7000   18.9714 C.ar    1  UNL1        0.0986
     39 C           2.3279    1.7568   18.4424 C.ar    1  UNL1        0.0178
@<TRIPOS>BOND
     1     1     2    2
     2     2    27    1
     3    27    28    1
     4    28    29    1
     5    29    30    1
     6    30    33    1
     7    33    34    1
     8    34    35   ar
     9    35    36   ar
    10    36    37   ar
    11    37    38   ar
    12    38    39   ar
    13    30    31    1
    14    31    32    1
    15     2     3   am
    16     3     4    1
    17     4     5    1
    18     5     6    1
    19     6     9    1
    20     9    10   ar
    21    10    11    2
    22    10    12   ar
    23    12    19    1
    24    19    20    1
    25    20    21    1
    26    21    22    1
    27    22    23    1
    28    23    24    1
    29    24    25    1
    30    25    26    1
    31    12    13   ar
    32    13    14   ar
    33    14    15   ar
    34    15    16   ar
    35    16    17   ar
    36    17    18   ar
    37     6     7    1
    38     7     8    1
    39    32    27    1
    40     8     3    1
    41    39    34   ar
    42    18     9   ar
    43    26    21    1
    44    18    13   ar
@<TRIPOS>MOLECULE
*****
 39 44 0 0 0
SMALL
GASTEIGER

@<TRIPOS>ATOM
      1 O           9.2187   -2.9854   19.1578 O.2     1  UNL1       -0.2749
      2 C           8.0315   -2.7266   20.0373 C.2     1  UNL1        0.2252
      3 N           8.0649   -3.1328   21.4808 N.am    1  UNL1       -0.2794
      4 C           9.2854   -3.7979   22.0448 C.3     1  UNL1        0.0953
      5 C           9.3188   -4.2041   23.4884 C.3     1  UNL1        0.0442
      6 C           8.1315   -3.9453   24.3680 C.3     1  UNL1        0.0933
      7 C           6.9111   -3.2803   23.8040 C.3     1  UNL1        0.0442
      8 C           6.8778   -2.8740   22.3604 C.3     1  UNL1        0.0953
      9 N           8.1649   -4.3516   25.8116 N.ar    1  UNL1       -0.2817
     10 C           8.1093   -3.4249   26.9898 C.ar    1  UNL1        0.3315
     11 O           8.0106   -1.9293   26.9313 O.2     1  UNL1       -0.2463
     12 N           8.1698   -4.2565   28.2367 N.ar    1  UNL1       -0.2785
     13 C           8.2627   -5.6971   27.8291 C.ar    1  UNL1        0.0797
     14 C           8.3497   -6.9629   28.6291 C.ar    1  UNL1        0.0188
     15 C           8.4337   -8.2875   27.9303 C.ar    1  UNL1        0.0016
     16 C           8.4307   -8.3462   26.4315 C.ar    1  UNL1        0.0016
     17 C           8.3437   -7.0804   25.6314 C.ar    1  UNL1        0.0188
     18 C           8.2597   -5.7558   26.3303 C.ar    1  UNL1        0.0796
     19 C           8.1421   -3.7385   29.6441 C.3     1  UNL1        0.1278
     20 C           6.9853   -4.0659   30.5413 C.3     1  UNL1        0.0970
     21 N           6.1492   -2.9630   31.1196 N.3     1  UNL1       -0.2711
     22 C           5.6866   -3.0409   32.5444 C.3     1  UNL1        0.0722
     23 C           4.8505   -1.9380   33.1227 C.3     1  UNL1        0.0174
     24 C           4.4770   -0.7573   32.2763 C.3     1  UNL1        0.0029
     25 C           4.9395   -0.6794   30.8516 C.3     1  UNL1        0.0174
     26 C           5.7757   -1.7823   30.2733 C.3     1  UNL1        0.0722
     27 C           6.8110   -2.0615   19.4733 C.3     1  UNL1        0.0795
     28 C           5.7853   -2.8741   18.7402 C.3     1  UNL1        0.0264
     29 C           4.5648   -2.2091   18.1762 C.3     1  UNL1        0.0729
     30 N           4.3700   -0.7314   18.3454 N.3     1  UNL1       -0.2689
     31 C           5.3958    0.0812   19.0786 C.3     1  UNL1        0.0729
     32 C           6.6163   -0.5838   19.6425 C.3     1  UNL1        0.0264
     33 C           3.1495   -0.0664   17.7814 C.3     1  UNL1        0.0992
     34 C           2.0311    0.3453   18.6923 C.ar    1  UNL1       -0.0031
     35 C           1.6209   -0.5464   19.8266 C.ar    1  UNL1        0.0178
     36 C           0.5026   -0.1348   20.7375 C.ar    1  UNL1        0.0986
     37 N          -0.2056    1.1685   20.5141 N.ar    1  UNL1       -0.2423
     38 C           0.2046    2.0602   19.3798 C.ar    1  UNL1        0.0986
     39 C           1.3230    1.6486   18.4689 C.ar    1  UNL1        0.0178
@<TRIPOS>BOND
     1     1     2    2
     2     2    27    1
     3    27    28    1
     4    28    29    1
     5    29    30    1
     6    30    33    1
     7    33    34    1
     8    34    35   ar
     9    35    36   ar
    10    36    37   ar
    11    37    38   ar
    12    38    39   ar
    13    30    31    1
    14    31    32    1
    15     2     3   am
    16     3     4    1
    17     4     5    1
    18     5     6    1
    19     6     9    1
    20     9    10   ar
    21    10    11    2
    22    10    12   ar
    23    12    19    1
    24    19    20    1
    25    20    21    1
    26    21    22    1
    27    22    23    1
    28    23    24    1
    29    24    25    1
    30    25    26    1
    31    12    13   ar
    32    13    14   ar
    33    14    15   ar
    34    15    16   ar
    35    16    17   ar
    36    17    18   ar
    37     6     7    1
    38     7     8    1
    39    32    27    1
    40     8     3    1
    41    39    34   ar
    42    18     9   ar
    43    26    21    1
    44    18    13   ar
@<TRIPOS>MOLECULE
*****
 39 44 0 0 0
SMALL
GASTEIGER

@<TRIPOS>ATOM
      1 O           7.5830   -4.9923   21.5776 O.2     1  UNL1       -0.2749
      2 C           6.6784   -3.9169   22.1020 C.2     1  UNL1        0.2252
      3 N           6.6133   -3.6441   23.5756 N.am    1  UNL1       -0.2794
      4 C           7.4529   -4.4468   24.5246 C.3     1  UNL1        0.0953
      5 C           7.3879   -4.1741   25.9982 C.3     1  UNL1        0.0442
      6 C           6.4832   -3.0986   26.5227 C.3     1  UNL1        0.0933
      7 C           5.6437   -2.2960   25.5736 C.3     1  UNL1        0.0442
      8 C           5.7087   -2.5687   24.1000 C.3     1  UNL1        0.0953
      9 N           6.4182   -2.8258   27.9963 N.ar    1  UNL1       -0.2817
     10 C           6.0818   -1.5113   28.6356 C.ar    1  UNL1        0.3315
     11 O           5.7514   -0.2386   27.9137 O.2     1  UNL1       -0.2463
     12 N           6.1339   -1.6928   30.1237 N.ar    1  UNL1       -0.2785
     13 C           6.5024   -3.1196   30.4040 C.ar    1  UNL1        0.0797
     14 C           6.7007   -3.8716   31.6866 C.ar    1  UNL1        0.0188
     15 C           7.0747   -5.3238   31.6544 C.ar    1  UNL1        0.0016
     16 C           7.2504   -6.0240   30.3396 C.ar    1  UNL1        0.0016
     17 C           7.0521   -5.2721   29.0570 C.ar    1  UNL1        0.0188
     18 C           6.6781   -3.8198   29.0892 C.ar    1  UNL1        0.0796
     19 C           5.8647   -0.6336   31.1511 C.3     1  UNL1        0.1278
     20 C           6.9062   -0.3039   32.1791 C.3     1  UNL1        0.0970
     21 N           6.5409   -0.2730   33.6336 N.3     1  UNL1       -0.2711
     22 C           5.1456   -0.6167   34.0639 C.3     1  UNL1        0.0722
     23 C           4.7803   -0.5858   35.5184 C.3     1  UNL1        0.0174
     24 C           5.8102   -0.2111   36.5426 C.3     1  UNL1        0.0029
     25 C           7.2055    0.1326   36.1123 C.3     1  UNL1        0.0174
     26 C           7.5708    0.1017   34.6578 C.3     1  UNL1        0.0722
     27 C           5.8388   -3.1142   21.1529 C.3     1  UNL1        0.0795
     28 C           6.3201   -1.7772   20.6725 C.3     1  UNL1        0.0264
     29 C           5.4806   -0.9745   19.7234 C.3     1  UNL1        0.0729
     30 N           4.1596   -1.5088   19.2548 N.3     1  UNL1       -0.2689
     31 C           3.6782   -2.8458   19.7352 C.3     1  UNL1        0.0729
     32 C           4.5178   -3.6485   20.6843 C.3     1  UNL1        0.0264
     33 C           3.3200   -0.7061   18.3057 C.3     1  UNL1        0.0992
     34 C           2.2530    0.2055   18.8352 C.ar    1  UNL1       -0.0031
     35 C           1.2761   -0.2971   19.8564 C.ar    1  UNL1        0.0178
     36 C           0.2090    0.6144   20.3859 C.ar    1  UNL1        0.0986
     37 N           0.1190    2.0287   19.8943 N.ar    1  UNL1       -0.2423
     38 C           1.0959    2.5314   18.8730 C.ar    1  UNL1        0.0986
     39 C           2.1630    1.6198   18.3435 C.ar    1  UNL1        0.0178
@<TRIPOS>BOND
     1     1     2    2
     2     2    27    1
     3    27    28    1
     4    28    29    1
     5    29    30    1
     6    30    33    1
     7    33    34    1
     8    34    35   ar
     9    35    36   ar
    10    36    37   ar
    11    37    38   ar
    12    38    39   ar
    13    30    31    1
    14    31    32    1
    15     2     3   am
    16     3     4    1
    17     4     5    1
    18     5     6    1
    19     6     9    1
    20     9    10   ar
    21    10    11    2
    22    10    12   ar
    23    12    19    1
    24    19    20    1
    25    20    21    1
    26    21    22    1
    27    22    23    1
    28    23    24    1
    29    24    25    1
    30    25    26    1
    31    12    13   ar
    32    13    14   ar
    33    14    15   ar
    34    15    16   ar
    35    16    17   ar
    36    17    18   ar
    37     6     7    1
    38     7     8    1
    39    32    27    1
    40     8     3    1
    41    39    34   ar
    42    18     9   ar
    43    26    21    1
    44    18    13   ar
@<TRIPOS>MOLECULE
*****
 39 44 0 0 0
SMALL
GASTEIGER

@<TRIPOS>ATOM
      1 O          -1.0471    2.7554   24.1998 O.2     1  UNL1       -0.2749
      2 C           0.0847    2.0056   24.8375 C.2     1  UNL1        0.2252
      3 N           1.0490    1.2357   23.9847 N.am    1  UNL1       -0.2794
      4 C           0.8815    1.2156   22.4942 C.3     1  UNL1        0.0953
      5 C           1.8458    0.4456   21.6414 C.3     1  UNL1        0.0442
      6 C           2.9777   -0.3043   22.2791 C.3     1  UNL1        0.0933
      7 C           3.1452   -0.2841   23.7695 C.3     1  UNL1        0.0442
      8 C           2.1809    0.4858   24.6223 C.3     1  UNL1        0.0953
      9 N           3.9420   -1.0742   21.4262 N.ar    1  UNL1       -0.2817
     10 C           4.5255   -2.4180   21.7484 C.ar    1  UNL1        0.3315
     11 O           4.2471   -3.2278   22.9799 O.2     1  UNL1       -0.2463
     12 N           5.4362   -2.8097   20.6228 N.ar    1  UNL1       -0.2785
     13 C           5.4156   -1.7081   19.6049 C.ar    1  UNL1        0.0797
     14 C           6.1185   -1.5431   18.2901 C.ar    1  UNL1        0.0188
     15 C           5.8978   -0.3055   17.4719 C.ar    1  UNL1        0.0016
     16 C           4.9743    0.7672   17.9685 C.ar    1  UNL1        0.0016
     17 C           4.2715    0.6022   19.2833 C.ar    1  UNL1        0.0188
     18 C           4.4921   -0.6354   20.1015 C.ar    1  UNL1        0.0796
     19 C           6.2285   -4.0802   20.5310 C.3     1  UNL1        0.1278
     20 C           7.5988   -4.1549   21.1366 C.3     1  UNL1        0.0970
     21 N           7.8691   -5.1048   22.2656 N.3     1  UNL1       -0.2711
     22 C           7.2839   -4.8436   23.6217 C.3     1  UNL1        0.0722
     23 C           7.5542   -5.7935   24.7507 C.3     1  UNL1        0.0174
     24 C           8.4097   -7.0045   24.5235 C.3     1  UNL1        0.0029
     25 C           8.9949   -7.2657   23.1673 C.3     1  UNL1        0.0174
     26 C           8.7246   -6.3158   22.0383 C.3     1  UNL1        0.0722
     27 C           0.2523    2.0257   26.3280 C.3     1  UNL1        0.0795
     28 C          -0.5540    1.0963   27.1859 C.3     1  UNL1        0.0264
     29 C          -0.3864    1.1164   28.6764 C.3     1  UNL1        0.0729
     30 N           0.5874    2.0659   29.3089 N.3     1  UNL1       -0.2689
     31 C           1.3937    2.9954   28.4509 C.3     1  UNL1        0.0729
     32 C           1.2262    2.9753   26.9604 C.3     1  UNL1        0.0264
     33 C           0.7550    2.0860   30.7994 C.3     1  UNL1        0.0992
     34 C           1.8383    1.2727   31.4434 C.ar    1  UNL1       -0.0031
     35 C           2.3721    0.0532   30.7520 C.ar    1  UNL1        0.0178
     36 C           3.4555   -0.7602   31.3960 C.ar    1  UNL1        0.0986
     37 N           4.0050   -0.3542   32.7313 N.ar    1  UNL1       -0.2423
     38 C           3.4711    0.8652   33.4227 C.ar    1  UNL1        0.0986
     39 C           2.3878    1.6787   32.7788 C.ar    1  UNL1        0.0178
@<TRIPOS>BOND
     1     1     2    2
     2     2    27    1
     3    27    28    1
     4    28    29    1
     5    29    30    1
     6    30    33    1
     7    33    34    1
     8    34    35   ar
     9    35    36   ar
    10    36    37   ar
    11    37    38   ar
    12    38    39   ar
    13    30    31    1
    14    31    32    1
    15     2     3   am
    16     3     4    1
    17     4     5    1
    18     5     6    1
    19     6     9    1
    20     9    10   ar
    21    10    11    2
    22    10    12   ar
    23    12    19    1
    24    19    20    1
    25    20    21    1
    26    21    22    1
    27    22    23    1
    28    23    24    1
    29    24    25    1
    30    25    26    1
    31    12    13   ar
    32    13    14   ar
    33    14    15   ar
    34    15    16   ar
    35    16    17   ar
    36    17    18   ar
    37     6     7    1
    38     7     8    1
    39    32    27    1
    40     8     3    1
    41    39    34   ar
    42    18     9   ar
    43    26    21    1
    44    18    13   ar
@<TRIPOS>MOLECULE
*****
 39 44 0 0 0
SMALL
GASTEIGER

@<TRIPOS>ATOM
      1 O          -0.3852    0.9473   30.1844 O.2     1  UNL1       -0.2749
      2 C           0.9189    0.8872   29.4457 C.2     1  UNL1        0.2252
      3 N           0.9417    1.0243   27.9521 N.am    1  UNL1       -0.2794
      4 C          -0.3395    1.2215   27.1974 C.3     1  UNL1        0.0953
      5 C          -0.3166    1.3586   25.7038 C.3     1  UNL1        0.0442
      6 C           0.9875    1.2984   24.9650 C.3     1  UNL1        0.0933
      7 C           2.2686    1.1013   25.7198 C.3     1  UNL1        0.0442
      8 C           2.2457    0.9642   27.2133 C.3     1  UNL1        0.0953
      9 N           1.0103    1.4355   23.4714 N.ar    1  UNL1       -0.2817
     10 C           1.7536    0.5496   22.5160 C.ar    1  UNL1        0.3315
     11 O           2.6044   -0.6289   22.8864 O.2     1  UNL1       -0.2463
     12 N           1.4965    1.0492   21.1252 N.ar    1  UNL1       -0.2785
     13 C           0.5944    2.2438   21.2211 C.ar    1  UNL1        0.0797
     14 C           0.0078    3.1450   20.1753 C.ar    1  UNL1        0.0188
     15 C          -0.8793    4.2850   20.5796 C.ar    1  UNL1        0.0016
     16 C          -1.1798    4.5237   22.0297 C.ar    1  UNL1        0.0016
     17 C          -0.5931    3.6225   23.0755 C.ar    1  UNL1        0.0188
     18 C           0.2939    2.4826   22.6711 C.ar    1  UNL1        0.0796
     19 C           2.0452    0.4580   19.8606 C.3     1  UNL1        0.1278
     20 C           3.5105    0.1578   19.7470 C.3     1  UNL1        0.0970
     21 N           3.9669   -1.2227   19.3783 N.3     1  UNL1       -0.2711
     22 C           3.1410   -2.4137   19.7644 C.3     1  UNL1        0.0722
     23 C           3.5974   -3.7942   19.3957 C.3     1  UNL1        0.0174
     24 C           4.8797   -3.9836   18.6409 C.3     1  UNL1        0.0029
     25 C           5.7057   -2.7925   18.2548 C.3     1  UNL1        0.0174
     26 C           5.2493   -1.4121   18.6235 C.3     1  UNL1        0.0722
     27 C           2.2001    0.6900   30.2004 C.3     1  UNL1        0.0795
     28 C           2.6777   -0.6959   30.5181 C.3     1  UNL1        0.0264
     29 C           3.9589   -0.8931   31.2729 C.3     1  UNL1        0.0729
     30 N           4.7624    0.2957   31.7099 N.3     1  UNL1       -0.2689
     31 C           4.2848    1.6817   31.3922 C.3     1  UNL1        0.0729
     32 C           3.0036    1.8789   30.6375 C.3     1  UNL1        0.0264
     33 C           6.0436    0.0985   32.4647 C.3     1  UNL1        0.0992
     34 C           6.0222   -0.0254   33.9594 C.ar    1  UNL1       -0.0031
     35 C           4.7138   -0.1429   34.6834 C.ar    1  UNL1        0.0178
     36 C           4.6923   -0.2667   36.1781 C.ar    1  UNL1        0.0986
     37 N           5.9791   -0.2731   36.9488 N.ar    1  UNL1       -0.2423
     38 C           7.2875   -0.1555   36.2247 C.ar    1  UNL1        0.0986
     39 C           7.3091   -0.0317   34.7300 C.ar    1  UNL1        0.0178
@<TRIPOS>BOND
     1     1     2    2
     2     2    27    1
     3    27    28    1
     4    28    29    1
     5    29    30    1
     6    30    33    1
     7    33    34    1
     8    34    35   ar
     9    35    36   ar
    10    36    37   ar
    11    37    38   ar
    12    38    39   ar
    13    30    31    1
    14    31    32    1
    15     2     3   am
    16     3     4    1
    17     4     5    1
    18     5     6    1
    19     6     9    1
    20     9    10   ar
    21    10    11    2
    22    10    12   ar
    23    12    19    1
    24    19    20    1
    25    20    21    1
    26    21    22    1
    27    22    23    1
    28    23    24    1
    29    24    25    1
    30    25    26    1
    31    12    13   ar
    32    13    14   ar
    33    14    15   ar
    34    15    16   ar
    35    16    17   ar
    36    17    18   ar
    37     6     7    1
    38     7     8    1
    39    32    27    1
    40     8     3    1
    41    39    34   ar
    42    18     9   ar
    43    26    21    1
    44    18    13   ar
@<TRIPOS>MOLECULE
*****
 39 44 0 0 0
SMALL
GASTEIGER

@<TRIPOS>ATOM
      1 O           7.9309   -5.2779   22.0686 O.2     1  UNL1       -0.2749
      2 C           7.0567   -4.1507   22.5324 C.2     1  UNL1        0.2252
      3 N           7.0378   -3.7637   23.9815 N.am    1  UNL1       -0.2794
      4 C           7.8930   -4.5039   24.9667 C.3     1  UNL1        0.0953
      5 C           7.8741   -4.1169   26.4158 C.3     1  UNL1        0.0442
      6 C           6.9999   -2.9896   26.8797 C.3     1  UNL1        0.0933
      7 C           6.1447   -2.2494   25.8945 C.3     1  UNL1        0.0442
      8 C           6.1637   -2.6364   24.4454 C.3     1  UNL1        0.0953
      9 N           6.9809   -2.6026   28.3288 N.ar    1  UNL1       -0.2817
     10 C           6.7047   -3.5201   29.4829 C.ar    1  UNL1        0.3315
     11 O           6.3989   -4.9857   29.3905 O.2     1  UNL1       -0.2463
     12 N           6.7880   -2.7146   30.7455 N.ar    1  UNL1       -0.2785
     13 C           7.1156   -1.2994   30.3718 C.ar    1  UNL1        0.0797
     14 C           7.3208   -0.0648   31.1987 C.ar    1  UNL1        0.0188
     15 C           7.6452    1.2391   30.5318 C.ar    1  UNL1        0.0016
     16 C           7.7645    1.3083   29.0382 C.ar    1  UNL1        0.0016
     17 C           7.5593    0.0737   28.2114 C.ar    1  UNL1        0.0188
     18 C           7.2349   -1.2301   28.8782 C.ar    1  UNL1        0.0796
     19 C           6.5800   -3.2334   32.1375 C.3     1  UNL1        0.1278
     20 C           5.2418   -3.0890   32.7997 C.3     1  UNL1        0.0970
     21 N           4.6618   -1.7248   33.0291 N.3     1  UNL1       -0.2711
     22 C           3.7684   -1.1062   31.9951 C.3     1  UNL1        0.0722
     23 C           3.1884    0.2580   32.2245 C.3     1  UNL1        0.0174
     24 C           3.5018    1.0035   33.4877 C.3     1  UNL1        0.0029
     25 C           4.3952    0.3850   34.5217 C.3     1  UNL1        0.0174
     26 C           4.9752   -0.9792   34.2924 C.3     1  UNL1        0.0722
     27 C           6.2015   -3.4104   21.5472 C.3     1  UNL1        0.0795
     28 C           4.8912   -3.9920   21.1058 C.3     1  UNL1        0.0264
     29 C           4.0360   -3.2518   20.1205 C.3     1  UNL1        0.0729
     30 N           4.4911   -1.9300   19.5767 N.3     1  UNL1       -0.2689
     31 C           5.8015   -1.3484   20.0182 C.3     1  UNL1        0.0729
     32 C           6.6567   -2.0886   21.0034 C.3     1  UNL1        0.0264
     33 C           3.6359   -1.1898   18.5915 C.3     1  UNL1        0.0992
     34 C           2.4806   -0.3633   19.0733 C.ar    1  UNL1       -0.0031
     35 C           2.0508    0.8478   18.2998 C.ar    1  UNL1        0.0178
     36 C           0.8955    1.6743   18.7816 C.ar    1  UNL1        0.0986
     37 N           0.1700    1.2897   20.0369 N.ar    1  UNL1       -0.2423
     38 C           0.5999    0.0786   20.8104 C.ar    1  UNL1        0.0986
     39 C           1.7552   -0.7479   20.3287 C.ar    1  UNL1        0.0178
@<TRIPOS>BOND
     1     1     2    2
     2     2    27    1
     3    27    28    1
     4    28    29    1
     5    29    30    1
     6    30    33    1
     7    33    34    1
     8    34    35   ar
     9    35    36   ar
    10    36    37   ar
    11    37    38   ar
    12    38    39   ar
    13    30    31    1
    14    31    32    1
    15     2     3   am
    16     3     4    1
    17     4     5    1
    18     5     6    1
    19     6     9    1
    20     9    10   ar
    21    10    11    2
    22    10    12   ar
    23    12    19    1
    24    19    20    1
    25    20    21    1
    26    21    22    1
    27    22    23    1
    28    23    24    1
    29    24    25    1
    30    25    26    1
    31    12    13   ar
    32    13    14   ar
    33    14    15   ar
    34    15    16   ar
    35    16    17   ar
    36    17    18   ar
    37     6     7    1
    38     7     8    1
    39    32    27    1
    40     8     3    1
    41    39    34   ar
    42    18     9   ar
    43    26    21    1
    44    18    13   ar
@<TRIPOS>MOLECULE
*****
 39 44 0 0 0
SMALL
GASTEIGER

@<TRIPOS>ATOM
      1 O          -1.1536    2.2000   27.1713 O.2     1  UNL1       -0.2749
      2 C           0.2501    1.7147   26.9617 C.2     1  UNL1        0.2252
      3 N           0.8149    1.6297   25.5747 N.am    1  UNL1       -0.2794
      4 C          -0.0240    2.0300   24.3974 C.3     1  UNL1        0.0953
      5 C           0.5408    1.9451   23.0104 C.3     1  UNL1        0.0442
      6 C           1.9446    1.4596   22.8007 C.3     1  UNL1        0.0933
      7 C           2.7834    1.0593   23.9779 C.3     1  UNL1        0.0442
      8 C           2.2186    1.1443   25.3649 C.3     1  UNL1        0.0953
      9 N           2.5095    1.3747   21.4137 N.ar    1  UNL1       -0.2817
     10 C           2.0845    0.4103   20.3462 C.ar    1  UNL1        0.3315
     11 O           1.0202   -0.6384   20.4783 O.2     1  UNL1       -0.2463
     12 N           2.9108    0.6788   19.1235 N.ar    1  UNL1       -0.2785
     13 C           3.8465    1.8090   19.4352 C.ar    1  UNL1        0.0797
     14 C           4.8922    2.5021   18.6131 C.ar    1  UNL1        0.0188
     15 C           5.6899    3.6253   19.2065 C.ar    1  UNL1        0.0016
     16 C           5.4418    4.0554   20.6219 C.ar    1  UNL1        0.0016
     17 C           4.3961    3.3623   21.4440 C.ar    1  UNL1        0.0188
     18 C           3.5984    2.2391   20.8507 C.ar    1  UNL1        0.0796
     19 C           2.8179   -0.0543   17.8181 C.3     1  UNL1        0.1278
     20 C           3.9327   -0.9600   17.3855 C.3     1  UNL1        0.0970
     21 N           4.5398   -1.9220   18.3633 N.3     1  UNL1       -0.2711
     22 C           3.6654   -2.8885   19.1057 C.3     1  UNL1        0.0722
     23 C           4.2725   -3.8505   20.0835 C.3     1  UNL1        0.0174
     24 C           5.7539   -3.8459   20.3188 C.3     1  UNL1        0.0029
     25 C           6.6283   -2.8794   19.5764 C.3     1  UNL1        0.0174
     26 C           6.0212   -1.9174   18.5986 C.3     1  UNL1        0.0722
     27 C           1.0889    1.3143   28.1389 C.3     1  UNL1        0.0795
     28 C           2.0076    2.3123   28.7793 C.3     1  UNL1        0.0264
     29 C           2.8465    1.9119   29.9566 C.3     1  UNL1        0.0729
     30 N           2.7667    0.5135   30.4935 N.3     1  UNL1       -0.2689
     31 C           1.8480   -0.4845   29.8530 C.3     1  UNL1        0.0729
     32 C           1.0091   -0.0841   28.6758 C.3     1  UNL1        0.0264
     33 C           3.6056    0.1132   31.6707 C.3     1  UNL1        0.0992
     34 C           4.5672   -1.0318   31.5518 C.ar    1  UNL1       -0.0031
     35 C           4.7471   -1.9823   32.6981 C.ar    1  UNL1        0.0178
     36 C           5.7087   -3.1274   32.5792 C.ar    1  UNL1        0.0986
     37 N           6.4906   -3.3218   31.3140 N.ar    1  UNL1       -0.2423
     38 C           6.3107   -2.3713   30.1676 C.ar    1  UNL1        0.0986
     39 C           5.3491   -1.2263   30.2865 C.ar    1  UNL1        0.0178
@<TRIPOS>BOND
     1     1     2    2
     2     2    27    1
     3    27    28    1
     4    28    29    1
     5    29    30    1
     6    30    33    1
     7    33    34    1
     8    34    35   ar
     9    35    36   ar
    10    36    37   ar
    11    37    38   ar
    12    38    39   ar
    13    30    31    1
    14    31    32    1
    15     2     3   am
    16     3     4    1
    17     4     5    1
    18     5     6    1
    19     6     9    1
    20     9    10   ar
    21    10    11    2
    22    10    12   ar
    23    12    19    1
    24    19    20    1
    25    20    21    1
    26    21    22    1
    27    22    23    1
    28    23    24    1
    29    24    25    1
    30    25    26    1
    31    12    13   ar
    32    13    14   ar
    33    14    15   ar
    34    15    16   ar
    35    16    17   ar
    36    17    18   ar
    37     6     7    1
    38     7     8    1
    39    32    27    1
    40     8     3    1
    41    39    34   ar
    42    18     9   ar
    43    26    21    1
    44    18    13   ar
@<TRIPOS>MOLECULE
*****
 39 44 0 0 0
SMALL
GASTEIGER

@<TRIPOS>ATOM
      1 O           0.9310    5.2265   20.6839 O.2     1  UNL1       -0.2749
      2 C           0.3921    3.9061   21.1488 C.2     1  UNL1        0.2252
      3 N           1.3118    2.7301   21.2946 N.am    1  UNL1       -0.2794
      4 C           2.7703    2.8745   20.9755 C.3     1  UNL1        0.0953
      5 C           3.6900    1.6985   21.1213 C.3     1  UNL1        0.0442
      6 C           3.1510    0.3781   21.5862 C.3     1  UNL1        0.0933
      7 C           1.6926    0.2337   21.9053 C.3     1  UNL1        0.0442
      8 C           0.7729    1.4097   21.7595 C.3     1  UNL1        0.0953
      9 N           4.0707   -0.7979   21.7320 N.ar    1  UNL1       -0.2817
     10 C           5.0405   -1.0251   22.8536 C.ar    1  UNL1        0.3315
     11 O           5.2608   -0.1162   24.0263 O.2     1  UNL1       -0.2463
     12 N           5.7512   -2.3208   22.5965 N.ar    1  UNL1       -0.2785
     13 C           5.2207   -2.8944   21.3160 C.ar    1  UNL1        0.0797
     14 C           5.5491   -4.1521   20.5676 C.ar    1  UNL1        0.0188
     15 C           4.8390   -4.4686   19.2848 C.ar    1  UNL1        0.0016
     16 C           3.8004   -3.5274   18.7505 C.ar    1  UNL1        0.0016
     17 C           3.4720   -2.2697   19.4990 C.ar    1  UNL1        0.0188
     18 C           4.1821   -1.9532   20.7817 C.ar    1  UNL1        0.0796
     19 C           6.8070   -2.9351   23.4670 C.3     1  UNL1        0.1278
     20 C           6.4153   -3.6802   24.7086 C.3     1  UNL1        0.0970
     21 N           7.0212   -5.0208   25.0014 N.3     1  UNL1       -0.2711
     22 C           7.7513   -5.7653   23.9232 C.3     1  UNL1        0.0722
     23 C           8.3573   -7.1059   24.2159 C.3     1  UNL1        0.0174
     24 C           8.2331   -7.7019   25.5868 C.3     1  UNL1        0.0029
     25 C           7.5030   -6.9574   26.6650 C.3     1  UNL1        0.0174
     26 C           6.8971   -5.6168   26.3723 C.3     1  UNL1        0.0722
     27 C          -1.0664    3.7617   21.4679 C.3     1  UNL1        0.0795
     28 C          -2.0391    3.4016   20.3844 C.3     1  UNL1        0.0264
     29 C          -3.4977    3.2571   20.7035 C.3     1  UNL1        0.0729
     30 N          -3.9835    3.4729   22.1061 N.3     1  UNL1       -0.2689
     31 C          -3.0107    3.8331   23.1897 C.3     1  UNL1        0.0729
     32 C          -1.5522    3.9775   22.8706 C.3     1  UNL1        0.0264
     33 C          -5.4420    3.3285   22.4252 C.3     1  UNL1        0.0992
     34 C          -6.2821    4.5481   22.6632 C.ar    1  UNL1       -0.0031
     35 C          -7.3111    4.5487   23.7546 C.ar    1  UNL1        0.0178
     36 C          -8.1512    5.7683   23.9926 C.ar    1  UNL1        0.0986
     37 N          -7.9624    6.9874   23.1392 N.ar    1  UNL1       -0.2423
     38 C          -6.9334    6.9868   22.0478 C.ar    1  UNL1        0.0986
     39 C          -6.0932    5.7671   21.8098 C.ar    1  UNL1        0.0178
@<TRIPOS>BOND
     1     1     2    2
     2     2    27    1
     3    27    28    1
     4    28    29    1
     5    29    30    1
     6    30    33    1
     7    33    34    1
     8    34    35   ar
     9    35    36   ar
    10    36    37   ar
    11    37    38   ar
    12    38    39   ar
    13    30    31    1
    14    31    32    1
    15     2     3   am
    16     3     4    1
    17     4     5    1
    18     5     6    1
    19     6     9    1
    20     9    10   ar
    21    10    11    2
    22    10    12   ar
    23    12    19    1
    24    19    20    1
    25    20    21    1
    26    21    22    1
    27    22    23    1
    28    23    24    1
    29    24    25    1
    30    25    26    1
    31    12    13   ar
    32    13    14   ar
    33    14    15   ar
    34    15    16   ar
    35    16    17   ar
    36    17    18   ar
    37     6     7    1
    38     7     8    1
    39    32    27    1
    40     8     3    1
    41    39    34   ar
    42    18     9   ar
    43    26    21    1
    44    18    13   ar
