@<TRIPOS>MOLECULE
*****
 29 33 0 0 0
SMALL
GASTEIGER

@<TRIPOS>ATOM
      1 O          -5.1346  -14.4133   25.6704 O.2     1  UNL1       -0.2638
      2 C          -5.8624  -15.4974   24.9321 C.2     1  UNL1        0.3160
      3 N          -7.2923  -15.8029   25.2664 N.am    1  UNL1       -0.1721
      4 C          -8.0201  -16.8871   24.5281 C.ar    1  UNL1        0.0771
      5 C          -9.4501  -17.1926   24.8624 C.ar    1  UNL1        0.0125
      6 C         -10.1778  -18.2767   24.1241 C.ar    1  UNL1       -0.0206
      7 C          -9.4755  -19.0553   23.0515 C.ar    1  UNL1       -0.0041
      8 C          -8.0455  -18.7498   22.7172 C.ar    1  UNL1        0.0048
      9 C          -7.3178  -17.6657   23.4555 C.ar    1  UNL1        0.0623
     10 C          -5.8878  -17.3602   23.1211 C.2     1  UNL1        0.2419
     11 N          -4.9419  -17.9550   22.1204 N.2     1  UNL1       -0.0302
     12 C          -3.6296  -17.2385   22.2403 C.2     1  UNL1        0.3765
     13 N          -3.7644  -16.2008   23.3150 N.2     1  UNL1       -0.0256
     14 C          -5.1601  -16.2761   23.8594 C.2     1  UNL1        0.2907
     15 C          -2.3985  -17.5116   21.4279 C.ar    1  UNL1        0.0989
     16 C          -1.4612  -16.3914   21.0866 C.ar    1  UNL1        0.0085
     17 C          -0.2302  -16.6646   20.2743 C.ar    1  UNL1        0.0003
     18 C           0.0636  -18.0581   19.8033 C.ar    1  UNL1        0.0009
     19 C          -0.8737  -19.1783   20.1446 C.ar    1  UNL1        0.0116
     20 C          -2.1047  -18.9051   20.9569 C.ar    1  UNL1        0.0651
     21 CL         -3.0420  -20.0254   21.2982 Cl      1  UNL1       -0.0820
     22 C         -11.6078  -18.5822   24.4585 C.3     1  UNL1        0.0311
     23 C         -12.6899  -18.2906   23.4614 C.3     1  UNL1        0.0310
     24 C         -12.3344  -17.7799   22.0966 C.ar    1  UNL1       -0.0218
     25 C         -12.5455  -16.3339   21.7583 C.ar    1  UNL1       -0.0043
     26 C         -12.1900  -15.8233   20.3934 C.ar    1  UNL1       -0.0003
     27 C         -11.6234  -16.7587   19.3668 C.ar    1  UNL1       -0.0000
     28 C         -11.4122  -18.2048   19.7051 C.ar    1  UNL1       -0.0003
     29 C         -11.7677  -18.7154   21.0699 C.ar    1  UNL1       -0.0043
@<TRIPOS>BOND
     1     1     2    2
     2     2     3    1
     3     3     4    2
     4     4     5   ar
     5     5     6   ar
     6     6    22    1
     7    22    23    1
     8    23    24    1
     9    24    25   ar
    10    25    26   ar
    11    26    27   ar
    12    27    28   ar
    13    28    29   ar
    14     6     7   ar
    15     7     8   ar
    16     8     9   ar
    17     9    10    2
    18    10    11    1
    19    11    12    2
    20    12    15    1
    21    15    16   ar
    22    16    17   ar
    23    17    18   ar
    24    18    19   ar
    25    19    20   ar
    26    20    21    1
    27    12    13    1
    28    13    14    2
    29    14     2    1
    30     9     4   ar
    31    14    10    1
    32    29    24   ar
    33    20    15   ar
@<TRIPOS>MOLECULE
*****
 29 33 0 0 0
SMALL
GASTEIGER

@<TRIPOS>ATOM
      1 O           5.3447   -0.5358   26.2428 O.2     1  UNL1       -0.2638
      2 C           4.9269   -1.0919   24.9138 C.2     1  UNL1        0.3160
      3 N           3.9142   -0.3635   24.0809 N.am    1  UNL1       -0.1721
      4 C           3.4964   -0.9196   22.7518 C.ar    1  UNL1        0.0771
      5 C           2.4837   -0.1911   21.9189 C.ar    1  UNL1        0.0125
      6 C           2.0659   -0.7472   20.5900 C.ar    1  UNL1       -0.0206
      7 C           2.6608   -2.0318   20.0940 C.ar    1  UNL1       -0.0041
      8 C           3.6734   -2.7602   20.9269 C.ar    1  UNL1        0.0048
      9 C           4.0912   -2.2041   22.2558 C.ar    1  UNL1        0.0623
     10 C           5.1040   -2.9326   23.0888 C.2     1  UNL1        0.2419
     11 N           5.8575   -4.2097   22.8631 N.2     1  UNL1       -0.0302
     12 C           6.7411   -4.4430   24.0526 C.2     1  UNL1        0.3765
     13 N           6.5336   -3.3100   25.0134 N.2     1  UNL1       -0.0256
     14 C           5.5218   -2.3765   24.4178 C.2     1  UNL1        0.2907
     15 C           7.6693   -5.6052   24.2471 C.ar    1  UNL1        0.0989
     16 C           8.6076   -6.0077   23.1483 C.ar    1  UNL1        0.0085
     17 C           9.5357   -7.1699   23.3428 C.ar    1  UNL1        0.0003
     18 C           9.5254   -7.9296   24.6362 C.ar    1  UNL1        0.0009
     19 C           8.5871   -7.5271   25.7350 C.ar    1  UNL1        0.0116
     20 C           7.6590   -6.3649   25.5404 C.ar    1  UNL1        0.0651
     21 CL          6.7206   -5.9623   26.6393 Cl      1  UNL1       -0.0820
     22 C           1.0531   -0.0188   19.7570 C.3     1  UNL1        0.0311
     23 C           1.4460    0.5490   18.4253 C.3     1  UNL1        0.0310
     24 C           2.8955    0.7338   18.0870 C.ar    1  UNL1       -0.0218
     25 C           3.6204   -0.3139   17.2952 C.ar    1  UNL1       -0.0043
     26 C           5.0701   -0.1289   16.9568 C.ar    1  UNL1       -0.0003
     27 C           5.7948    1.1036   17.4102 C.ar    1  UNL1       -0.0000
     28 C           5.0699    2.1513   18.2020 C.ar    1  UNL1       -0.0003
     29 C           3.6203    1.9664   18.5404 C.ar    1  UNL1       -0.0043
@<TRIPOS>BOND
     1     1     2    2
     2     2     3    1
     3     3     4    2
     4     4     5   ar
     5     5     6   ar
     6     6    22    1
     7    22    23    1
     8    23    24    1
     9    24    25   ar
    10    25    26   ar
    11    26    27   ar
    12    27    28   ar
    13    28    29   ar
    14     6     7   ar
    15     7     8   ar
    16     8     9   ar
    17     9    10    2
    18    10    11    1
    19    11    12    2
    20    12    15    1
    21    15    16   ar
    22    16    17   ar
    23    17    18   ar
    24    18    19   ar
    25    19    20   ar
    26    20    21    1
    27    12    13    1
    28    13    14    2
    29    14     2    1
    30     9     4   ar
    31    14    10    1
    32    29    24   ar
    33    20    15   ar
@<TRIPOS>MOLECULE
*****
 29 33 0 0 0
SMALL
GASTEIGER

@<TRIPOS>ATOM
      1 O          -0.0019    2.5811   18.2003 O.2     1  UNL1       -0.2638
      2 C           0.2285    2.1852   19.6287 C.2     1  UNL1        0.3160
      3 N          -0.4452    2.9419   20.7348 N.am    1  UNL1       -0.1721
      4 C          -0.2147    2.5459   22.1632 C.ar    1  UNL1        0.0771
      5 C          -0.8885    3.3026   23.2692 C.ar    1  UNL1        0.0125
      6 C          -0.6580    2.9067   24.6975 C.ar    1  UNL1       -0.0206
      7 C           0.2462    1.7541   25.0197 C.ar    1  UNL1       -0.0041
      8 C           0.9200    0.9974   23.9137 C.ar    1  UNL1        0.0048
      9 C           0.6895    1.3933   22.4854 C.ar    1  UNL1        0.0623
     10 C           1.3632    0.6366   21.3792 C.2     1  UNL1        0.2419
     11 N           2.3009   -0.5341   21.3902 N.2     1  UNL1       -0.0302
     12 C           2.6499   -0.8618   19.9687 C.2     1  UNL1        0.3765
     13 N           1.9280    0.1065   19.0791 N.2     1  UNL1       -0.0256
     14 C           1.1327    1.0325   19.9509 C.2     1  UNL1        0.2907
     15 C           3.5610   -1.9642   19.5161 C.ar    1  UNL1        0.0989
     16 C           3.0614   -3.3777   19.4678 C.ar    1  UNL1        0.0085
     17 C           3.9725   -4.4800   19.0153 C.ar    1  UNL1        0.0003
     18 C           5.3831   -4.1688   18.6110 C.ar    1  UNL1        0.0009
     19 C           5.8826   -2.7553   18.6593 C.ar    1  UNL1        0.0116
     20 C           4.9716   -1.6530   19.1119 C.ar    1  UNL1        0.0651
     21 CL          5.4711   -0.2394   19.1602 Cl      1  UNL1       -0.0820
     22 C          -1.3317    3.6634   25.8037 C.3     1  UNL1        0.0311
     23 C          -2.6418    3.1814   26.3525 C.3     1  UNL1        0.0310
     24 C          -3.9195    3.8497   25.9394 C.ar    1  UNL1       -0.0218
     25 C          -4.5224    3.5517   24.5986 C.ar    1  UNL1       -0.0043
     26 C          -5.8002    4.2201   24.1855 C.ar    1  UNL1       -0.0003
     27 C          -6.4750    5.1865   25.1132 C.ar    1  UNL1       -0.0000
     28 C          -5.8722    5.4845   26.4540 C.ar    1  UNL1       -0.0003
     29 C          -4.5945    4.8161   26.8671 C.ar    1  UNL1       -0.0043
@<TRIPOS>BOND
     1     1     2    2
     2     2     3    1
     3     3     4    2
     4     4     5   ar
     5     5     6   ar
     6     6    22    1
     7    22    23    1
     8    23    24    1
     9    24    25   ar
    10    25    26   ar
    11    26    27   ar
    12    27    28   ar
    13    28    29   ar
    14     6     7   ar
    15     7     8   ar
    16     8     9   ar
    17     9    10    2
    18    10    11    1
    19    11    12    2
    20    12    15    1
    21    15    16   ar
    22    16    17   ar
    23    17    18   ar
    24    18    19   ar
    25    19    20   ar
    26    20    21    1
    27    12    13    1
    28    13    14    2
    29    14     2    1
    30     9     4   ar
    31    14    10    1
    32    29    24   ar
    33    20    15   ar
@<TRIPOS>MOLECULE
*****
 29 33 0 0 0
SMALL
GASTEIGER

@<TRIPOS>ATOM
      1 O           9.2509   -6.2517   24.4836 O.2     1  UNL1       -0.2638
      2 C           8.1088   -5.2909   24.3336 C.2     1  UNL1        0.3160
      3 N           7.4683   -5.0908   22.9920 N.am    1  UNL1       -0.1721
      4 C           6.3262   -4.1300   22.8420 C.ar    1  UNL1        0.0771
      5 C           5.6857   -3.9299   21.5004 C.ar    1  UNL1        0.0125
      6 C           4.5437   -2.9691   21.3504 C.ar    1  UNL1       -0.0206
      7 C           4.0422   -2.2083   22.5419 C.ar    1  UNL1       -0.0041
      8 C           4.6826   -2.4084   23.8834 C.ar    1  UNL1        0.0048
      9 C           5.8247   -3.3692   24.0335 C.ar    1  UNL1        0.0623
     10 C           6.4652   -3.5693   25.3750 C.2     1  UNL1        0.2419
     11 N           6.1885   -2.9644   26.7195 N.2     1  UNL1       -0.0302
     12 C           7.1597   -3.5515   27.7005 C.2     1  UNL1        0.3765
     13 N           8.0364   -4.5191   26.9623 N.2     1  UNL1       -0.0256
     14 C           7.6072   -4.5301   25.5250 C.2     1  UNL1        0.2907
     15 C           7.2399   -3.2277   29.1630 C.ar    1  UNL1        0.0989
     16 C           7.5041   -1.8192   29.6059 C.ar    1  UNL1        0.0085
     17 C           7.5843   -1.4956   31.0684 C.ar    1  UNL1        0.0003
     18 C           7.4002   -2.5804   32.0878 C.ar    1  UNL1        0.0009
     19 C           7.1360   -3.9888   31.6449 C.ar    1  UNL1        0.0116
     20 C           7.0558   -4.3125   30.1825 C.ar    1  UNL1        0.0651
     21 CL          6.7915   -5.7211   29.7394 Cl      1  UNL1       -0.0820
     22 C           3.9032   -2.7690   20.0088 C.3     1  UNL1        0.0311
     23 C           3.9771   -1.4312   19.3345 C.3     1  UNL1        0.0310
     24 C           2.8014   -0.5010   19.3828 C.ar    1  UNL1       -0.0218
     25 C           1.6310   -0.8166   20.2662 C.ar    1  UNL1       -0.0043
     26 C           0.4553    0.1137   20.3145 C.ar    1  UNL1       -0.0003
     27 C           0.4499    1.3595   19.4792 C.ar    1  UNL1       -0.0000
     28 C           1.6203    1.6752   18.5957 C.ar    1  UNL1       -0.0003
     29 C           2.7960    0.7450   18.5475 C.ar    1  UNL1       -0.0043
@<TRIPOS>BOND
     1     1     2    2
     2     2     3    1
     3     3     4    2
     4     4     5   ar
     5     5     6   ar
     6     6    22    1
     7    22    23    1
     8    23    24    1
     9    24    25   ar
    10    25    26   ar
    11    26    27   ar
    12    27    28   ar
    13    28    29   ar
    14     6     7   ar
    15     7     8   ar
    16     8     9   ar
    17     9    10    2
    18    10    11    1
    19    11    12    2
    20    12    15    1
    21    15    16   ar
    22    16    17   ar
    23    17    18   ar
    24    18    19   ar
    25    19    20   ar
    26    20    21    1
    27    12    13    1
    28    13    14    2
    29    14     2    1
    30     9     4   ar
    31    14    10    1
    32    29    24   ar
    33    20    15   ar
@<TRIPOS>MOLECULE
*****
 29 33 0 0 0
SMALL
GASTEIGER

@<TRIPOS>ATOM
      1 O           0.7572    5.5545   17.9637 O.2     1  UNL1       -0.2638
      2 C           0.7973    4.1572   18.5077 C.2     1  UNL1        0.3160
      3 N           1.9263    3.2409   18.1390 N.am    1  UNL1       -0.1721
      4 C           1.9664    1.8436   18.6830 C.ar    1  UNL1        0.0771
      5 C           3.0953    0.9273   18.3143 C.ar    1  UNL1        0.0125
      6 C           3.1353   -0.4700   18.8583 C.ar    1  UNL1       -0.0206
      7 C           2.0465   -0.9510   19.7710 C.ar    1  UNL1       -0.0041
      8 C           0.9175   -0.0347   20.1397 C.ar    1  UNL1        0.0048
      9 C           0.8775    1.3625   19.5957 C.ar    1  UNL1        0.0623
     10 C          -0.2515    2.2789   19.9644 C.2     1  UNL1        0.2419
     11 N          -1.4568    2.0860   20.8361 N.2     1  UNL1       -0.0302
     12 C          -2.2419    3.3642   20.8308 C.2     1  UNL1        0.3765
     13 N          -1.5217    4.3469   19.9559 N.2     1  UNL1       -0.0256
     14 C          -0.2915    3.6761   19.4204 C.2     1  UNL1        0.2907
     15 C          -3.5224    3.6155   21.5707 C.ar    1  UNL1        0.0989
     16 C          -3.5107    3.7554   23.0640 C.ar    1  UNL1        0.0085
     17 C          -4.7911    4.0067   23.8038 C.ar    1  UNL1        0.0003
     18 C          -6.0833    4.1180   23.0502 C.ar    1  UNL1        0.0009
     19 C          -6.0950    3.9780   21.5568 C.ar    1  UNL1        0.0116
     20 C          -4.8145    3.7268   20.8170 C.ar    1  UNL1        0.0651
     21 CL         -4.8262    3.5868   19.3236 Cl      1  UNL1       -0.0820
     22 C           4.2643   -1.3863   18.4896 C.3     1  UNL1        0.0311
     23 C           4.2641   -2.8074   18.9697 C.3     1  UNL1        0.0310
     24 C           5.0040   -3.1764   20.2212 C.ar    1  UNL1       -0.0218
     25 C           4.2916   -3.1767   21.5412 C.ar    1  UNL1       -0.0043
     26 C           5.0316   -3.5457   22.7927 C.ar    1  UNL1       -0.0003
     27 C           6.4839   -3.9144   22.7242 C.ar    1  UNL1       -0.0000
     28 C           7.1963   -3.9141   21.4042 C.ar    1  UNL1       -0.0003
     29 C           6.4564   -3.5451   20.1527 C.ar    1  UNL1       -0.0043
@<TRIPOS>BOND
     1     1     2    2
     2     2     3    1
     3     3     4    2
     4     4     5   ar
     5     5     6   ar
     6     6    22    1
     7    22    23    1
     8    23    24    1
     9    24    25   ar
    10    25    26   ar
    11    26    27   ar
    12    27    28   ar
    13    28    29   ar
    14     6     7   ar
    15     7     8   ar
    16     8     9   ar
    17     9    10    2
    18    10    11    1
    19    11    12    2
    20    12    15    1
    21    15    16   ar
    22    16    17   ar
    23    17    18   ar
    24    18    19   ar
    25    19    20   ar
    26    20    21    1
    27    12    13    1
    28    13    14    2
    29    14     2    1
    30     9     4   ar
    31    14    10    1
    32    29    24   ar
    33    20    15   ar
@<TRIPOS>MOLECULE
*****
 29 33 0 0 0
SMALL
GASTEIGER

@<TRIPOS>ATOM
      1 O           0.1261    2.5944   18.0296 O.2     1  UNL1       -0.2638
      2 C           0.3330    2.1789   19.4561 C.2     1  UNL1        0.3160
      3 N          -0.3424    2.9336   20.5625 N.am    1  UNL1       -0.1721
      4 C          -0.1355    2.5181   21.9890 C.ar    1  UNL1        0.0771
      5 C          -0.8108    3.2728   23.0954 C.ar    1  UNL1        0.0125
      6 C          -0.6039    2.8574   24.5218 C.ar    1  UNL1       -0.0206
      7 C           0.2783    1.6872   24.8417 C.ar    1  UNL1       -0.0041
      8 C           0.9536    0.9325   23.7352 C.ar    1  UNL1        0.0048
      9 C           0.7468    1.3480   22.3089 C.ar    1  UNL1        0.0623
     10 C           1.4221    0.5932   21.2023 C.2     1  UNL1        0.2419
     11 N           2.3413   -0.5921   21.2112 N.2     1  UNL1       -0.0302
     12 C           2.7025   -0.9092   19.7903 C.2     1  UNL1        0.3765
     13 N           2.0065    0.0802   18.9033 N.2     1  UNL1       -0.0256
     14 C           1.2152    1.0087   19.7760 C.2     1  UNL1        0.2907
     15 C           3.6018   -2.0206   19.3362 C.ar    1  UNL1        0.0989
     16 C           3.1442   -3.4453   19.4394 C.ar    1  UNL1        0.0085
     17 C           4.0434   -4.5566   18.9852 C.ar    1  UNL1        0.0003
     18 C           5.4004   -4.2431   18.4280 C.ar    1  UNL1        0.0009
     19 C           5.8580   -2.8184   18.3248 C.ar    1  UNL1        0.0116
     20 C           4.9587   -1.7071   18.7789 C.ar    1  UNL1        0.0651
     21 CL          5.4163   -0.2823   18.6758 Cl      1  UNL1       -0.0820
     22 C          -1.2793    3.6121   25.6283 C.3     1  UNL1        0.0311
     23 C          -1.7993    2.8778   26.8285 C.3     1  UNL1        0.0310
     24 C          -0.8470    2.1652   27.7425 C.ar    1  UNL1       -0.0218
     25 C          -1.0721    0.7217   28.0825 C.ar    1  UNL1       -0.0043
     26 C          -0.1198    0.0092   28.9966 C.ar    1  UNL1       -0.0003
     27 C           1.0576    0.7401   29.5705 C.ar    1  UNL1       -0.0000
     28 C           1.2827    2.1836   29.2304 C.ar    1  UNL1       -0.0003
     29 C           0.3305    2.8962   28.3165 C.ar    1  UNL1       -0.0043
@<TRIPOS>BOND
     1     1     2    2
     2     2     3    1
     3     3     4    2
     4     4     5   ar
     5     5     6   ar
     6     6    22    1
     7    22    23    1
     8    23    24    1
     9    24    25   ar
    10    25    26   ar
    11    26    27   ar
    12    27    28   ar
    13    28    29   ar
    14     6     7   ar
    15     7     8   ar
    16     8     9   ar
    17     9    10    2
    18    10    11    1
    19    11    12    2
    20    12    15    1
    21    15    16   ar
    22    16    17   ar
    23    17    18   ar
    24    18    19   ar
    25    19    20   ar
    26    20    21    1
    27    12    13    1
    28    13    14    2
    29    14     2    1
    30     9     4   ar
    31    14    10    1
    32    29    24   ar
    33    20    15   ar
@<TRIPOS>MOLECULE
*****
 29 33 0 0 0
SMALL
GASTEIGER

@<TRIPOS>ATOM
      1 O           8.2074   -6.7608   30.5340 O.2     1  UNL1       -0.2638
      2 C           7.6458   -5.6717   29.6687 C.2     1  UNL1        0.3160
      3 N           7.6138   -5.8391   28.1785 N.am    1  UNL1       -0.1721
      4 C           7.0521   -4.7500   27.3133 C.ar    1  UNL1        0.0771
      5 C           7.0201   -4.9175   25.8230 C.ar    1  UNL1        0.0125
      6 C           6.4585   -3.8284   24.9579 C.ar    1  UNL1       -0.0206
      7 C           5.9289   -2.5719   25.5830 C.ar    1  UNL1       -0.0041
      8 C           5.9609   -2.4045   27.0732 C.ar    1  UNL1        0.0048
      9 C           6.5225   -3.4935   27.9384 C.ar    1  UNL1        0.0623
     10 C           6.5546   -3.3261   29.4287 C.2     1  UNL1        0.2419
     11 N           6.1078   -2.2077   30.3228 N.2     1  UNL1       -0.0302
     12 C           6.3933   -2.6056   31.7407 C.2     1  UNL1        0.3765
     13 N           7.0165   -3.9699   31.7227 N.2     1  UNL1       -0.0256
     14 C           7.1162   -4.4152   30.2939 C.2     1  UNL1        0.2907
     15 C           6.1060   -1.7834   32.9620 C.ar    1  UNL1        0.0989
     16 C           4.7473   -1.8312   33.5957 C.ar    1  UNL1        0.0085
     17 C           4.4600   -1.0090   34.8170 C.ar    1  UNL1        0.0003
     18 C           5.5315   -0.1392   35.4046 C.ar    1  UNL1        0.0009
     19 C           6.8902   -0.0915   34.7709 C.ar    1  UNL1        0.0116
     20 C           7.1775   -0.9136   33.5497 C.ar    1  UNL1        0.0651
     21 CL          8.5363   -0.8659   32.9159 Cl      1  UNL1       -0.0820
     22 C           6.4264   -3.9958   23.4675 C.3     1  UNL1        0.0311
     23 C           5.1577   -3.7358   22.7108 C.3     1  UNL1        0.0310
     24 C           5.1954   -3.5589   21.2217 C.ar    1  UNL1       -0.0218
     25 C           4.1690   -4.2328   20.3602 C.ar    1  UNL1       -0.0043
     26 C           4.2067   -4.0558   18.8711 C.ar    1  UNL1       -0.0003
     27 C           5.2709   -3.2052   18.2436 C.ar    1  UNL1       -0.0000
     28 C           6.2974   -2.5314   19.1052 C.ar    1  UNL1       -0.0003
     29 C           6.2597   -2.7082   20.5942 C.ar    1  UNL1       -0.0043
@<TRIPOS>BOND
     1     1     2    2
     2     2     3    1
     3     3     4    2
     4     4     5   ar
     5     5     6   ar
     6     6    22    1
     7    22    23    1
     8    23    24    1
     9    24    25   ar
    10    25    26   ar
    11    26    27   ar
    12    27    28   ar
    13    28    29   ar
    14     6     7   ar
    15     7     8   ar
    16     8     9   ar
    17     9    10    2
    18    10    11    1
    19    11    12    2
    20    12    15    1
    21    15    16   ar
    22    16    17   ar
    23    17    18   ar
    24    18    19   ar
    25    19    20   ar
    26    20    21    1
    27    12    13    1
    28    13    14    2
    29    14     2    1
    30     9     4   ar
    31    14    10    1
    32    29    24   ar
    33    20    15   ar
@<TRIPOS>MOLECULE
*****
 29 33 0 0 0
SMALL
GASTEIGER

@<TRIPOS>ATOM
      1 O           2.1466    6.1065   21.3155 O.2     1  UNL1       -0.2638
      2 C           1.8675    4.7517   20.7351 C.2     1  UNL1        0.3160
      3 N           2.9386    4.0257   19.9764 N.am    1  UNL1       -0.1721
      4 C           2.6596    2.6709   19.3961 C.ar    1  UNL1        0.0771
      5 C           3.7307    1.9449   18.6374 C.ar    1  UNL1        0.0125
      6 C           3.4516    0.5902   18.0571 C.ar    1  UNL1       -0.0206
      7 C           2.1015   -0.0386   18.2355 C.ar    1  UNL1       -0.0041
      8 C           1.0304    0.6874   18.9943 C.ar    1  UNL1        0.0048
      9 C           1.3095    2.0421   19.5745 C.ar    1  UNL1        0.0623
     10 C           0.2384    2.7682   20.3333 C.2     1  UNL1        0.2419
     11 N          -1.1773    2.4029   20.6685 N.2     1  UNL1       -0.0302
     12 C          -1.7732    3.5320   21.4561 C.2     1  UNL1        0.3765
     13 N          -0.7258    4.5950   21.6075 N.2     1  UNL1       -0.0256
     14 C           0.5174    4.1229   20.9136 C.2     1  UNL1        0.2907
     15 C          -3.1711    3.5881   21.9971 C.ar    1  UNL1        0.0989
     16 C          -3.4024    3.5859   23.4792 C.ar    1  UNL1        0.0085
     17 C          -4.8003    3.6420   24.0202 C.ar    1  UNL1        0.0003
     18 C          -5.9669    3.7003   23.0792 C.ar    1  UNL1        0.0009
     19 C          -5.7357    3.7025   21.5971 C.ar    1  UNL1        0.0116
     20 C          -4.3378    3.6464   21.0561 C.ar    1  UNL1        0.0651
     21 CL         -4.1065    3.6486   19.5740 Cl      1  UNL1       -0.0820
     22 C           4.5227   -0.1359   17.2983 C.3     1  UNL1        0.0311
     23 C           5.5390   -0.9566   18.0356 C.3     1  UNL1        0.0310
     24 C           5.1000   -2.1298   18.8607 C.ar    1  UNL1       -0.0218
     25 C           4.7709   -1.9446   20.3124 C.ar    1  UNL1       -0.0043
     26 C           4.3318   -3.1179   21.1375 C.ar    1  UNL1       -0.0003
     27 C           4.2219   -4.4763   20.5109 C.ar    1  UNL1       -0.0000
     28 C           4.5511   -4.6615   19.0592 C.ar    1  UNL1       -0.0003
     29 C           4.9901   -3.4883   18.2341 C.ar    1  UNL1       -0.0043
@<TRIPOS>BOND
     1     1     2    2
     2     2     3    1
     3     3     4    2
     4     4     5   ar
     5     5     6   ar
     6     6    22    1
     7    22    23    1
     8    23    24    1
     9    24    25   ar
    10    25    26   ar
    11    26    27   ar
    12    27    28   ar
    13    28    29   ar
    14     6     7   ar
    15     7     8   ar
    16     8     9   ar
    17     9    10    2
    18    10    11    1
    19    11    12    2
    20    12    15    1
    21    15    16   ar
    22    16    17   ar
    23    17    18   ar
    24    18    19   ar
    25    19    20   ar
    26    20    21    1
    27    12    13    1
    28    13    14    2
    29    14     2    1
    30     9     4   ar
    31    14    10    1
    32    29    24   ar
    33    20    15   ar
@<TRIPOS>MOLECULE
*****
 29 33 0 0 0
SMALL
GASTEIGER

@<TRIPOS>ATOM
      1 O          -0.3136    6.8378   18.7380 O.2     1  UNL1       -0.2638
      2 C          -0.1730    5.3796   19.0610 C.2     1  UNL1        0.3160
      3 N           1.0025    4.6063   18.5413 N.am    1  UNL1       -0.1721
      4 C           1.1430    3.1482   18.8642 C.ar    1  UNL1        0.0771
      5 C           2.3185    2.3748   18.3445 C.ar    1  UNL1        0.0125
      6 C           2.4590    0.9168   18.6675 C.ar    1  UNL1       -0.0206
      7 C           1.4240    0.2321   19.5102 C.ar    1  UNL1       -0.0041
      8 C           0.2486    1.0055   20.0299 C.ar    1  UNL1        0.0048
      9 C           0.1081    2.4635   19.7069 C.ar    1  UNL1        0.0623
     10 C          -1.0674    3.2369   20.2266 C.2     1  UNL1        0.2419
     11 N          -2.2377    2.8351   21.0745 N.2     1  UNL1       -0.0302
     12 C          -3.1015    4.0448   21.2756 C.2     1  UNL1        0.3765
     13 N          -2.4651    5.1942   20.5520 N.2     1  UNL1       -0.0256
     14 C          -1.2080    4.6950   19.9037 C.2     1  UNL1        0.2907
     15 C          -4.3778    4.0960   22.0622 C.ar    1  UNL1        0.0989
     16 C          -5.6829    4.3266   21.3599 C.ar    1  UNL1        0.0085
     17 C          -6.9591    4.3778   22.1465 C.ar    1  UNL1        0.0003
     18 C          -6.9300    4.1984   23.6354 C.ar    1  UNL1        0.0009
     19 C          -5.6249    3.9677   24.3377 C.ar    1  UNL1        0.0116
     20 C          -4.3487    3.9165   23.5511 C.ar    1  UNL1        0.0651
     21 CL         -3.0435    3.6859   24.2535 Cl      1  UNL1       -0.0820
     22 C           3.6345    0.1433   18.1477 C.3     1  UNL1        0.0311
     23 C           3.5333   -1.3421   17.9648 C.3     1  UNL1        0.0310
     24 C           3.8404   -2.2613   19.1096 C.ar    1  UNL1       -0.0218
     25 C           4.3851   -1.7060   20.3921 C.ar    1  UNL1       -0.0043
     26 C           4.6922   -2.6254   21.5369 C.ar    1  UNL1       -0.0003
     27 C           4.4546   -4.1000   21.3992 C.ar    1  UNL1       -0.0000
     28 C           3.9100   -4.6553   20.1166 C.ar    1  UNL1       -0.0003
     29 C           3.6029   -3.7360   18.9718 C.ar    1  UNL1       -0.0043
@<TRIPOS>BOND
     1     1     2    2
     2     2     3    1
     3     3     4    2
     4     4     5   ar
     5     5     6   ar
     6     6    22    1
     7    22    23    1
     8    23    24    1
     9    24    25   ar
    10    25    26   ar
    11    26    27   ar
    12    27    28   ar
    13    28    29   ar
    14     6     7   ar
    15     7     8   ar
    16     8     9   ar
    17     9    10    2
    18    10    11    1
    19    11    12    2
    20    12    15    1
    21    15    16   ar
    22    16    17   ar
    23    17    18   ar
    24    18    19   ar
    25    19    20   ar
    26    20    21    1
    27    12    13    1
    28    13    14    2
    29    14     2    1
    30     9     4   ar
    31    14    10    1
    32    29    24   ar
    33    20    15   ar
