@<TRIPOS>MOLECULE
*****
 27 30 0 0 0
SMALL
GASTEIGER

@<TRIPOS>ATOM
      1 C           7.3516   -4.7160   26.7046 C.2     1  UNL1        0.0919
      2 C           8.1048   -5.7777   25.9594 C.2     1  UNL1        0.0183
      3 C           8.0153   -5.8511   24.4639 C.2     1  UNL1        0.0511
      4 C           7.1725   -4.8628   23.7136 C.2     1  UNL1        0.2322
      5 N           6.8934   -4.6885   22.2502 N.2     1  UNL1       -0.0308
      6 C           5.9676   -3.5191   22.0909 C.2     1  UNL1        0.3752
      7 N           5.6746   -2.9706   23.4559 N.2     1  UNL1       -0.0347
      8 C           6.4193   -3.8011   24.4588 C.2     1  UNL1        0.2191
      9 C           6.5088   -3.7277   25.9543 C.3     1  UNL1        0.1226
     10 C           5.4293   -2.9909   20.7942 C.ar    1  UNL1        0.0885
     11 C           6.0082   -3.4638   19.4937 C.ar    1  UNL1        0.0100
     12 C           5.4700   -2.9356   18.1970 C.ar    1  UNL1        0.0299
     13 C           4.3529   -1.9346   18.2009 C.ar    1  UNL1        0.1401
     14 F           3.8147   -1.4064   16.9042 F       1  UNL1       -0.2042
     15 C           3.7741   -1.4617   19.5014 C.ar    1  UNL1        0.0277
     16 C           4.3123   -1.9898   20.7980 C.ar    1  UNL1        0.0099
     17 C           2.6570   -0.4605   19.5052 C.ar    1  UNL1        0.0022
     18 C           2.7784    0.8017   18.7040 C.ar    1  UNL1        0.0001
     19 C           1.6613    1.8027   18.7078 C.ar    1  UNL1        0.0000
     20 C           0.4229    1.5415   19.5128 C.ar    1  UNL1        0.0000
     21 C           0.3015    0.2793   20.3140 C.ar    1  UNL1        0.0000
     22 C           1.4186   -0.7218   20.3102 C.ar    1  UNL1        0.0001
     23 S           7.4411   -4.6425   28.2002 S.O2    1  UNL1        0.0054
     24 O           6.0946   -5.2939   28.3128 O.2     1  UNL1       -0.1689
     25 O           8.7876   -3.9911   28.0876 O.2     1  UNL1       -0.1689
     26 C           6.9732   -5.6796   30.5358 C.3     1  UNL1        0.0276
     27 C           7.5306   -4.5691   29.6957 C.3     1  UNL1        0.1556
@<TRIPOS>BOND
     1    26    27    1
     2    27    23    1
     3    23    24    2
     4    23    25    2
     5    23     1    1
     6     1     2    2
     7     2     3    1
     8     3     4    2
     9     4     5    1
    10     5     6    2
    11     6    10    1
    12    10    11   ar
    13    11    12   ar
    14    12    13   ar
    15    13    14    1
    16    13    15   ar
    17    15    17    1
    18    17    18   ar
    19    18    19   ar
    20    19    20   ar
    21    20    21   ar
    22    21    22   ar
    23    15    16   ar
    24     6     7    1
    25     7     8    2
    26     8     9    1
    27     9     1    1
    28     8     4    1
    29    16    10   ar
    30    22    17   ar
@<TRIPOS>MOLECULE
*****
 27 30 0 0 0
SMALL
GASTEIGER

@<TRIPOS>ATOM
      1 C           4.2874   -0.7866   29.8189 C.2     1  UNL1        0.0919
      2 C           5.6532   -1.4067   29.8276 C.2     1  UNL1        0.0183
      3 C           6.2338   -1.9598   28.5599 C.2     1  UNL1        0.0511
      4 C           5.4487   -1.8927   27.2836 C.2     1  UNL1        0.2322
      5 N           5.7584   -2.3512   25.8894 N.2     1  UNL1       -0.0308
      6 C           4.5840   -2.0144   25.0190 C.2     1  UNL1        0.3752
      7 N           3.5485   -1.3478   25.8753 N.2     1  UNL1       -0.0347
      8 C           4.0829   -1.2726   27.2749 C.2     1  UNL1        0.2191
      9 C           3.5023   -0.7195   28.5426 C.3     1  UNL1        0.1226
     10 C           4.4659   -2.2950   23.5502 C.ar    1  UNL1        0.0885
     11 C           5.1426   -3.4963   22.9594 C.ar    1  UNL1        0.0100
     12 C           5.0246   -3.7769   21.4906 C.ar    1  UNL1        0.0299
     13 C           4.2299   -2.8563   20.6127 C.ar    1  UNL1        0.1401
     14 F           4.1118   -3.1369   19.1438 F       1  UNL1       -0.2042
     15 C           3.5532   -1.6550   21.2035 C.ar    1  UNL1        0.0277
     16 C           3.6712   -1.3744   22.6722 C.ar    1  UNL1        0.0099
     17 C           2.7585   -0.7344   20.3255 C.ar    1  UNL1        0.0022
     18 C           3.4140   -0.0621   19.1557 C.ar    1  UNL1        0.0001
     19 C           2.6192    0.8585   18.2777 C.ar    1  UNL1        0.0000
     20 C           1.1690    1.1069   18.5696 C.ar    1  UNL1        0.0000
     21 C           0.5135    0.4346   19.7393 C.ar    1  UNL1        0.0000
     22 C           1.3083   -0.4860   20.6173 C.ar    1  UNL1        0.0001
     23 S           3.7068   -0.2335   31.0866 S.O2    1  UNL1        0.0054
     24 O           2.4165   -0.9452   30.8061 O.2     1  UNL1       -0.1689
     25 O           4.9971    0.4781   31.3671 O.2     1  UNL1       -0.1689
     26 C           3.9039    0.2366   33.6341 C.3     1  UNL1        0.0276
     27 C           3.1262    0.3195   32.3543 C.3     1  UNL1        0.1556
@<TRIPOS>BOND
     1    26    27    1
     2    27    23    1
     3    23    24    2
     4    23    25    2
     5    23     1    1
     6     1     2    2
     7     2     3    1
     8     3     4    2
     9     4     5    1
    10     5     6    2
    11     6    10    1
    12    10    11   ar
    13    11    12   ar
    14    12    13   ar
    15    13    14    1
    16    13    15   ar
    17    15    17    1
    18    17    18   ar
    19    18    19   ar
    20    19    20   ar
    21    20    21   ar
    22    21    22   ar
    23    15    16   ar
    24     6     7    1
    25     7     8    2
    26     8     9    1
    27     9     1    1
    28     8     4    1
    29    16    10   ar
    30    22    17   ar
@<TRIPOS>MOLECULE
*****
 27 30 0 0 0
SMALL
GASTEIGER

@<TRIPOS>ATOM
      1 C           1.5217    1.0326   28.7853 C.2     1  UNL1        0.0919
      2 C           0.1284    1.5762   28.6712 C.2     1  UNL1        0.0183
      3 C          -0.4995    1.7527   27.3204 C.2     1  UNL1        0.0511
      4 C           0.2659    1.3856   26.0838 C.2     1  UNL1        0.2322
      5 N          -0.0891    1.4488   24.6278 N.2     1  UNL1       -0.0308
      6 C           1.0849    0.9443   23.8420 C.2     1  UNL1        0.3752
      7 N           2.1654    0.5692   24.8124 N.2     1  UNL1       -0.0347
      8 C           1.6593    0.8420   26.1979 C.2     1  UNL1        0.2191
      9 C           2.2872    0.6655   27.5487 C.3     1  UNL1        0.1226
     10 C           1.1643    0.8343   22.3481 C.ar    1  UNL1        0.0885
     11 C           0.2392    1.6415   21.4864 C.ar    1  UNL1        0.0100
     12 C           0.3185    1.5314   19.9926 C.ar    1  UNL1        0.0299
     13 C           1.3230    0.6142   19.3605 C.ar    1  UNL1        0.1401
     14 F           1.4024    0.5041   17.8666 F       1  UNL1       -0.2042
     15 C           2.2481   -0.1930   20.2222 C.ar    1  UNL1        0.0277
     16 C           2.1688   -0.0830   21.7160 C.ar    1  UNL1        0.0099
     17 C           3.2527   -1.1103   19.5900 C.ar    1  UNL1        0.0022
     18 C           3.1478   -2.5926   19.7945 C.ar    1  UNL1        0.0001
     19 C           4.1523   -3.5098   19.1623 C.ar    1  UNL1        0.0000
     20 C           5.2617   -2.9447   18.3257 C.ar    1  UNL1        0.0000
     21 C           5.3666   -1.4624   18.1212 C.ar    1  UNL1        0.0000
     22 C           4.3621   -0.5452   18.7534 C.ar    1  UNL1        0.0001
     23 S           2.1496    0.8561   30.1361 S.O2    1  UNL1        0.0054
     24 O           1.5333   -0.5071   30.2445 O.2     1  UNL1       -0.1689
     25 O           2.7660    2.2194   30.0277 O.2     1  UNL1       -0.1689
     26 C           3.5198   -0.5832   31.8097 C.3     1  UNL1        0.0276
     27 C           2.7775    0.6796   31.4869 C.3     1  UNL1        0.1556
@<TRIPOS>BOND
     1    26    27    1
     2    27    23    1
     3    23    24    2
     4    23    25    2
     5    23     1    1
     6     1     2    2
     7     2     3    1
     8     3     4    2
     9     4     5    1
    10     5     6    2
    11     6    10    1
    12    10    11   ar
    13    11    12   ar
    14    12    13   ar
    15    13    14    1
    16    13    15   ar
    17    15    17    1
    18    17    18   ar
    19    18    19   ar
    20    19    20   ar
    21    20    21   ar
    22    21    22   ar
    23    15    16   ar
    24     6     7    1
    25     7     8    2
    26     8     9    1
    27     9     1    1
    28     8     4    1
    29    16    10   ar
    30    22    17   ar
@<TRIPOS>MOLECULE
*****
 27 30 0 0 0
SMALL
GASTEIGER

@<TRIPOS>ATOM
      1 C          -1.9918    3.6029   25.8911 C.2     1  UNL1        0.0919
      2 C          -1.1761    2.6373   26.6987 C.2     1  UNL1        0.0183
      3 C          -0.1952    1.7303   26.0166 C.2     1  UNL1        0.0511
      4 C          -0.0302    1.7888   24.5269 C.2     1  UNL1        0.2322
      5 N           0.8511    1.0246   23.5839 N.2     1  UNL1       -0.0308
      6 C           0.5800    1.5178   22.1934 C.2     1  UNL1        0.3752
      7 N          -0.4688    2.5869   22.2771 N.2     1  UNL1       -0.0347
      8 C          -0.8459    2.7544   23.7193 C.2     1  UNL1        0.2191
      9 C          -1.8267    3.6614   24.4014 C.3     1  UNL1        0.1226
     10 C           1.2416    1.0279   20.9395 C.ar    1  UNL1        0.0885
     11 C           0.9582    1.7016   19.6296 C.ar    1  UNL1        0.0100
     12 C           1.6198    1.2117   18.3757 C.ar    1  UNL1        0.0299
     13 C           2.5647    0.0482   18.4317 C.ar    1  UNL1        0.1401
     14 F           3.2264   -0.4417   17.1777 F       1  UNL1       -0.2042
     15 C           2.8482   -0.6255   19.7416 C.ar    1  UNL1        0.0277
     16 C           2.1866   -0.1356   20.9955 C.ar    1  UNL1        0.0099
     17 C           3.7932   -1.7890   19.7975 C.ar    1  UNL1        0.0022
     18 C           3.3507   -3.1385   19.3147 C.ar    1  UNL1        0.0001
     19 C           4.2958   -4.3020   19.3706 C.ar    1  UNL1        0.0000
     20 C           5.6833   -4.1160   19.9094 C.ar    1  UNL1        0.0000
     21 C           6.1257   -2.7666   20.3923 C.ar    1  UNL1        0.0000
     22 C           5.1807   -1.6031   20.3363 C.ar    1  UNL1        0.0001
     23 S          -2.9726    4.5099   26.5733 S.O2    1  UNL1        0.0054
     24 O          -4.1065    3.7654   25.9328 O.2     1  UNL1       -0.1689
     25 O          -1.8388    5.2544   27.2137 O.2     1  UNL1       -0.1689
     26 C          -5.3897    5.4293   26.8230 C.3     1  UNL1        0.0276
     27 C          -3.9535    5.4169   27.2554 C.3     1  UNL1        0.1556
@<TRIPOS>BOND
     1    26    27    1
     2    27    23    1
     3    23    24    2
     4    23    25    2
     5    23     1    1
     6     1     2    2
     7     2     3    1
     8     3     4    2
     9     4     5    1
    10     5     6    2
    11     6    10    1
    12    10    11   ar
    13    11    12   ar
    14    12    13   ar
    15    13    14    1
    16    13    15   ar
    17    15    17    1
    18    17    18   ar
    19    18    19   ar
    20    19    20   ar
    21    20    21   ar
    22    21    22   ar
    23    15    16   ar
    24     6     7    1
    25     7     8    2
    26     8     9    1
    27     9     1    1
    28     8     4    1
    29    16    10   ar
    30    22    17   ar
@<TRIPOS>MOLECULE
*****
 27 30 0 0 0
SMALL
GASTEIGER

@<TRIPOS>ATOM
      1 C         -12.4753  -18.3228   22.9009 C.2     1  UNL1        0.0919
      2 C         -12.6014  -17.6481   21.5672 C.2     1  UNL1        0.0183
      3 C         -11.4585  -17.6860   20.5964 C.2     1  UNL1        0.0511
      4 C         -10.1895  -18.3986   20.9594 C.2     1  UNL1        0.2322
      5 N          -8.9041  -18.6022   20.2135 N.2     1  UNL1       -0.0308
      6 C          -7.9835  -19.4028   21.0863 C.2     1  UNL1        0.3752
      7 N          -8.7000  -19.6940   22.3715 N.2     1  UNL1       -0.0347
      8 C         -10.0634  -19.0734   22.2931 C.2     1  UNL1        0.2191
      9 C         -11.2063  -19.0355   23.2638 C.3     1  UNL1        0.1226
     10 C          -6.5910  -19.8362   20.7353 C.ar    1  UNL1        0.0885
     11 C          -6.3311  -21.2499   20.3067 C.ar    1  UNL1        0.0100
     12 C          -4.9386  -21.6832   19.9557 C.ar    1  UNL1        0.0299
     13 C          -3.8060  -20.7028   20.0335 C.ar    1  UNL1        0.1401
     14 F          -2.4135  -21.1362   19.6825 F       1  UNL1       -0.2042
     15 C          -4.0660  -19.2891   20.4622 C.ar    1  UNL1        0.0277
     16 C          -5.4584  -18.8558   20.8131 C.ar    1  UNL1        0.0099
     17 C          -2.9333  -18.3087   20.5399 C.ar    1  UNL1        0.0022
     18 C          -2.8964  -17.2911   21.6413 C.ar    1  UNL1        0.0001
     19 C          -1.7638  -16.3108   21.7190 C.ar    1  UNL1        0.0000
     20 C          -0.6681  -16.3480   20.6953 C.ar    1  UNL1        0.0000
     21 C          -0.7050  -17.3655   19.5939 C.ar    1  UNL1        0.0000
     22 C          -1.8376  -18.3459   19.5162 C.ar    1  UNL1        0.0001
     23 S         -13.6182  -18.2850   23.8716 S.O2    1  UNL1        0.0054
     24 O         -12.6640  -18.5225   25.0043 O.2     1  UNL1       -0.1689
     25 O         -14.5724  -18.0474   22.7389 O.2     1  UNL1       -0.1689
     26 C         -14.5149  -18.4961   26.3009 C.3     1  UNL1        0.0276
     27 C         -14.7611  -18.2471   24.8423 C.3     1  UNL1        0.1556
@<TRIPOS>BOND
     1    26    27    1
     2    27    23    1
     3    23    24    2
     4    23    25    2
     5    23     1    1
     6     1     2    2
     7     2     3    1
     8     3     4    2
     9     4     5    1
    10     5     6    2
    11     6    10    1
    12    10    11   ar
    13    11    12   ar
    14    12    13   ar
    15    13    14    1
    16    13    15   ar
    17    15    17    1
    18    17    18   ar
    19    18    19   ar
    20    19    20   ar
    21    20    21   ar
    22    21    22   ar
    23    15    16   ar
    24     6     7    1
    25     7     8    2
    26     8     9    1
    27     9     1    1
    28     8     4    1
    29    16    10   ar
    30    22    17   ar
@<TRIPOS>MOLECULE
*****
 27 30 0 0 0
SMALL
GASTEIGER

@<TRIPOS>ATOM
      1 C           3.2426   -1.1601   19.4005 C.2     1  UNL1        0.0919
      2 C           3.7080   -0.1160   18.4294 C.2     1  UNL1        0.0183
      3 C           2.9381    1.1623   18.2763 C.2     1  UNL1        0.0511
      4 C           1.7028    1.3963   19.0944 C.2     1  UNL1        0.2322
      5 N           0.7456    2.5494   19.1594 N.2     1  UNL1       -0.0308
      6 C          -0.3114    2.2178   20.1708 C.2     1  UNL1        0.3752
      7 N          -0.0074    0.8599   20.7308 N.2     1  UNL1       -0.0347
      8 C           1.2375    0.3522   20.0655 C.2     1  UNL1        0.2191
      9 C           2.0074   -0.9260   20.2186 C.3     1  UNL1        0.1226
     10 C          -1.4691    3.0910   20.5548 C.ar    1  UNL1        0.0885
     11 C          -2.1875    3.8878   19.5065 C.ar    1  UNL1        0.0100
     12 C          -3.3452    4.7610   19.8903 C.ar    1  UNL1        0.0299
     13 C          -3.7844    4.8373   21.3225 C.ar    1  UNL1        0.1401
     14 F          -4.9421    5.7105   21.7064 F       1  UNL1       -0.2042
     15 C          -3.0660    4.0405   22.3708 C.ar    1  UNL1        0.0277
     16 C          -1.9083    3.1673   21.9869 C.ar    1  UNL1        0.0099
     17 C          -3.5053    4.1168   23.8031 C.ar    1  UNL1        0.0022
     18 C          -2.4830    4.1595   24.8999 C.ar    1  UNL1        0.0001
     19 C          -2.9223    4.2358   26.3320 C.ar    1  UNL1        0.0000
     20 C          -4.3840    4.2695   26.6674 C.ar    1  UNL1        0.0000
     21 C          -5.4063    4.2268   25.5706 C.ar    1  UNL1        0.0000
     22 C          -4.9670    4.1505   24.1384 C.ar    1  UNL1        0.0001
     23 S           4.0125   -2.4383   19.5536 S.O2    1  UNL1        0.0054
     24 O           4.3003   -2.4413   18.0815 O.2     1  UNL1       -0.1689
     25 O           3.7248   -2.4353   21.0258 O.2     1  UNL1       -0.1689
     26 C           4.3854   -4.9300   18.9196 C.3     1  UNL1        0.0276
     27 C           4.7824   -3.7165   19.7067 C.3     1  UNL1        0.1556
@<TRIPOS>BOND
     1    26    27    1
     2    27    23    1
     3    23    24    2
     4    23    25    2
     5    23     1    1
     6     1     2    2
     7     2     3    1
     8     3     4    2
     9     4     5    1
    10     5     6    2
    11     6    10    1
    12    10    11   ar
    13    11    12   ar
    14    12    13   ar
    15    13    14    1
    16    13    15   ar
    17    15    17    1
    18    17    18   ar
    19    18    19   ar
    20    19    20   ar
    21    20    21   ar
    22    21    22   ar
    23    15    16   ar
    24     6     7    1
    25     7     8    2
    26     8     9    1
    27     9     1    1
    28     8     4    1
    29    16    10   ar
    30    22    17   ar
@<TRIPOS>MOLECULE
*****
 27 30 0 0 0
SMALL
GASTEIGER

@<TRIPOS>ATOM
      1 C           3.0702   -1.1518   20.9112 C.2     1  UNL1        0.0919
      2 C           3.5411   -2.1061   19.8541 C.2     1  UNL1        0.0183
      3 C           4.5023   -3.2021   20.2074 C.2     1  UNL1        0.0511
      4 C           4.9926   -3.3438   21.6179 C.2     1  UNL1        0.2322
      5 N           5.9351   -4.3183   22.2597 N.2     1  UNL1       -0.0308
      6 C           6.0468   -3.9663   23.7136 C.2     1  UNL1        0.3752
      7 N           5.1732   -2.7742   23.9703 N.2     1  UNL1       -0.0347
      8 C           4.5217   -2.3895   22.6750 C.2     1  UNL1        0.2191
      9 C           3.5605   -1.2935   22.3217 C.3     1  UNL1        0.1226
     10 C           6.8848   -4.6809   24.7319 C.ar    1  UNL1        0.0885
     11 C           7.8388   -5.7542   24.2984 C.ar    1  UNL1        0.0100
     12 C           8.6768   -6.4689   25.3166 C.ar    1  UNL1        0.0299
     13 C           8.5609   -6.1102   26.7685 C.ar    1  UNL1        0.1401
     14 F           9.3990   -6.8248   27.7868 F       1  UNL1       -0.2042
     15 C           7.6070   -5.0369   27.2020 C.ar    1  UNL1        0.0277
     16 C           6.7689   -4.3222   26.1838 C.ar    1  UNL1        0.0099
     17 C           7.4911   -4.6782   28.6540 C.ar    1  UNL1        0.0022
     18 C           7.7892   -3.2797   29.1071 C.ar    1  UNL1        0.0001
     19 C           7.6733   -2.9211   30.5590 C.ar    1  UNL1        0.0000
     20 C           7.2594   -3.9610   31.5577 C.ar    1  UNL1        0.0000
     21 C           6.9614   -5.3594   31.1045 C.ar    1  UNL1        0.0000
     22 C           7.0772   -5.7180   29.6526 C.ar    1  UNL1        0.0001
     23 S           2.1089   -0.0558   20.5579 S.O2    1  UNL1        0.0054
     24 O           1.0930   -1.0796   20.1459 O.2     1  UNL1       -0.1689
     25 O           3.1249    0.9680   20.9698 O.2     1  UNL1       -0.1689
     26 C           0.8807    1.3686   18.7655 C.3     1  UNL1        0.0276
     27 C           1.1477    1.0402   20.2045 C.3     1  UNL1        0.1556
@<TRIPOS>BOND
     1    26    27    1
     2    27    23    1
     3    23    24    2
     4    23    25    2
     5    23     1    1
     6     1     2    2
     7     2     3    1
     8     3     4    2
     9     4     5    1
    10     5     6    2
    11     6    10    1
    12    10    11   ar
    13    11    12   ar
    14    12    13   ar
    15    13    14    1
    16    13    15   ar
    17    15    17    1
    18    17    18   ar
    19    18    19   ar
    20    19    20   ar
    21    20    21   ar
    22    21    22   ar
    23    15    16   ar
    24     6     7    1
    25     7     8    2
    26     8     9    1
    27     9     1    1
    28     8     4    1
    29    16    10   ar
    30    22    17   ar
@<TRIPOS>MOLECULE
*****
 27 30 0 0 0
SMALL
GASTEIGER

@<TRIPOS>ATOM
      1 C           3.4520   -1.1127   19.0706 C.2     1  UNL1        0.0919
      2 C           3.7814    0.0406   18.1699 C.2     1  UNL1        0.0183
      3 C           2.9618    1.2956   18.2280 C.2     1  UNL1        0.0511
      4 C           1.8127    1.3972   19.1867 C.2     1  UNL1        0.2322
      5 N           0.8335    2.4984   19.4667 N.2     1  UNL1       -0.0308
      6 C          -0.1011    2.0257   20.5405 C.2     1  UNL1        0.3752
      7 N           0.3004    0.6323   20.9241 N.2     1  UNL1       -0.0347
      8 C           1.4833    0.2439   20.0874 C.2     1  UNL1        0.2191
      9 C           2.3029   -1.0110   20.0294 C.3     1  UNL1        0.1226
     10 C          -1.2378    2.8090   21.1276 C.ar    1  UNL1        0.0885
     11 C          -1.2168    3.1880   22.5788 C.ar    1  UNL1        0.0100
     12 C          -2.3534    3.9712   23.1658 C.ar    1  UNL1        0.0299
     13 C          -3.5110    4.3754   22.3017 C.ar    1  UNL1        0.1401
     14 F          -4.6476    5.1587   22.8888 F       1  UNL1       -0.2042
     15 C          -3.5319    3.9964   20.8506 C.ar    1  UNL1        0.0277
     16 C          -2.3953    3.2132   20.2635 C.ar    1  UNL1        0.0099
     17 C          -4.6895    4.4006   19.9865 C.ar    1  UNL1        0.0022
     18 C          -5.7322    3.3906   19.6088 C.ar    1  UNL1        0.0001
     19 C          -6.8897    3.7948   18.7447 C.ar    1  UNL1        0.0000
     20 C          -7.0046    5.2091   18.2584 C.ar    1  UNL1        0.0000
     21 C          -5.9620    6.2192   18.6361 C.ar    1  UNL1        0.0000
     22 C          -4.8044    5.8149   19.5001 C.ar    1  UNL1        0.0001
     23 S           4.2716   -2.3676   19.0126 S.O2    1  UNL1        0.0054
     24 O           3.2054   -3.0991   19.7728 O.2     1  UNL1       -0.1689
     25 O           5.3378   -1.6361   18.2523 O.2     1  UNL1       -0.1689
     26 C           4.4210   -4.9467   18.7370 C.3     1  UNL1        0.0276
     27 C           5.0912   -3.6225   18.9545 C.3     1  UNL1        0.1556
@<TRIPOS>BOND
     1    26    27    1
     2    27    23    1
     3    23    24    2
     4    23    25    2
     5    23     1    1
     6     1     2    2
     7     2     3    1
     8     3     4    2
     9     4     5    1
    10     5     6    2
    11     6    10    1
    12    10    11   ar
    13    11    12   ar
    14    12    13   ar
    15    13    14    1
    16    13    15   ar
    17    15    17    1
    18    17    18   ar
    19    18    19   ar
    20    19    20   ar
    21    20    21   ar
    22    21    22   ar
    23    15    16   ar
    24     6     7    1
    25     7     8    2
    26     8     9    1
    27     9     1    1
    28     8     4    1
    29    16    10   ar
    30    22    17   ar
@<TRIPOS>MOLECULE
*****
 27 30 0 0 0
SMALL
GASTEIGER

@<TRIPOS>ATOM
      1 C          -1.5631  -18.0865   20.8136 C.2     1  UNL1        0.0919
      2 C          -1.7192  -18.5206   22.2409 C.2     1  UNL1        0.0183
      3 C          -3.0686  -18.9203   22.7600 C.2     1  UNL1        0.0511
      4 C          -4.2619  -18.8859   21.8518 C.2     1  UNL1        0.2322
      5 N          -5.7062  -19.2206   22.0792 N.2     1  UNL1       -0.0308
      6 C          -6.4429  -18.9934   20.7925 C.2     1  UNL1        0.3752
      7 N          -5.4538  -18.5182   19.7698 N.2     1  UNL1       -0.0347
      8 C          -4.1058  -18.4518   20.4246 C.2     1  UNL1        0.2191
      9 C          -2.7564  -18.0521   19.9055 C.3     1  UNL1        0.1226
     10 C          -7.9110  -19.2043   20.5678 C.ar    1  UNL1        0.0885
     11 C          -8.4014  -19.7170   19.2462 C.ar    1  UNL1        0.0100
     12 C          -9.8694  -19.9279   19.0216 C.ar    1  UNL1        0.0299
     13 C         -10.8469  -19.6261   20.1185 C.ar    1  UNL1        0.1401
     14 F         -12.3150  -19.8371   19.8939 F       1  UNL1       -0.2042
     15 C         -10.3565  -19.1135   21.4401 C.ar    1  UNL1        0.0277
     16 C          -8.8885  -18.9025   21.6648 C.ar    1  UNL1        0.0099
     17 C         -11.3341  -18.8117   22.5371 C.ar    1  UNL1        0.0022
     18 C         -11.0774  -19.3098   23.9285 C.ar    1  UNL1        0.0001
     19 C         -12.0550  -19.0081   25.0254 C.ar    1  UNL1        0.0000
     20 C         -13.2892  -18.2082   24.7309 C.ar    1  UNL1        0.0000
     21 C         -13.5460  -17.7101   23.3395 C.ar    1  UNL1        0.0000
     22 C         -12.5684  -18.0118   22.2426 C.ar    1  UNL1        0.0001
     23 S          -0.2138  -17.6868   20.2945 S.O2    1  UNL1        0.0054
     24 O          -0.4554  -16.2785   20.7507 O.2     1  UNL1       -0.1689
     25 O           0.0279  -19.0952   19.8383 O.2     1  UNL1       -0.1689
     26 C           2.3434  -17.4051   20.6570 C.3     1  UNL1        0.0276
     27 C           1.1356  -17.2871   19.7754 C.3     1  UNL1        0.1556
@<TRIPOS>BOND
     1    26    27    1
     2    27    23    1
     3    23    24    2
     4    23    25    2
     5    23     1    1
     6     1     2    2
     7     2     3    1
     8     3     4    2
     9     4     5    1
    10     5     6    2
    11     6    10    1
    12    10    11   ar
    13    11    12   ar
    14    12    13   ar
    15    13    14    1
    16    13    15   ar
    17    15    17    1
    18    17    18   ar
    19    18    19   ar
    20    19    20   ar
    21    20    21   ar
    22    21    22   ar
    23    15    16   ar
    24     6     7    1
    25     7     8    2
    26     8     9    1
    27     9     1    1
    28     8     4    1
    29    16    10   ar
    30    22    17   ar
