@<TRIPOS>MOLECULE
*****
 21 22 0 0 0
SMALL
GASTEIGER

@<TRIPOS>ATOM
      1 C          -6.0720  -20.0493   21.7871 C.3     1  UNL1        0.0307
      2 C          -6.5548  -18.7426   22.3433 C.ar    1  UNL1       -0.0257
      3 C          -8.0097  -18.3860   22.2651 C.ar    1  UNL1       -0.0059
      4 C          -8.4925  -17.0792   22.8213 C.ar    1  UNL1        0.0102
      5 C          -7.5205  -16.1292   23.4558 C.ar    1  UNL1        0.1253
      6 O          -8.0033  -14.8225   24.0120 O.3     1  UNL1       -0.5062
      7 C          -6.0657  -16.4858   23.5339 C.ar    1  UNL1        0.0078
      8 C          -5.0936  -15.5358   24.1684 C.3     1  UNL1        0.0339
      9 C          -5.5828  -17.7926   22.9777 C.ar    1  UNL1       -0.0152
     10 H          -8.9122  -14.5997   23.9631 H       1  UNL1        0.2922
     11 C          -9.9475  -16.7226   22.7431 C.3     1  UNL1        0.0218
     12 C          -9.7090  -16.0379   21.4300 C.3     1  UNL1        0.0045
     13 C         -10.1859  -17.4073   24.0562 C.3     1  UNL1        0.0045
     14 C         -11.4023  -16.3660   22.6649 C.3     1  UNL1        0.0045
     15 C          -4.1279  -18.1492   23.0559 C.3     1  UNL1        0.1423
     16 C          -3.1877  -17.7052   21.9748 C.2     1  UNL1        0.2964
     17 N          -3.2751  -18.0748   20.5237 N.2     1  UNL1       -0.0649
     18 C          -2.1364  -17.4116   19.8070 C.3     1  UNL1        0.3130
     19 C          -1.3452  -16.6322   20.8153 C.3     1  UNL1        0.2574
     20 N          -1.9950  -16.8136   22.1550 N.pl3   1  UNL1       -0.2187
     21 H          -1.6918  -16.4171   23.0036 H       1  UNL1        0.2920
@<TRIPOS>BOND
     1     1     2    1
     2     2     3   ar
     3     3     4   ar
     4     4    11    1
     5    11    12    1
     6    11    13    1
     7    11    14    1
     8     4     5   ar
     9     5     6    1
    10     5     7   ar
    11     7     8    1
    12     7     9   ar
    13     9    15    1
    14    15    16    1
    15    16    17    2
    16    17    18    1
    17    18    19    1
    18    19    20    1
    19     9     2   ar
    20    20    16    1
    21     6    10    1
    22    20    21    1
@<TRIPOS>MOLECULE
*****
 21 22 0 0 0
SMALL
GASTEIGER

@<TRIPOS>ATOM
      1 C          -4.0164  -17.2156   23.6722 C.3     1  UNL1        0.0307
      2 C          -5.2378  -17.7673   22.9985 C.ar    1  UNL1       -0.0257
      3 C          -6.5855  -17.1752   23.2870 C.ar    1  UNL1       -0.0059
      4 C          -7.8069  -17.7270   22.6133 C.ar    1  UNL1        0.0102
      5 C          -7.6806  -18.8708   21.6512 C.ar    1  UNL1        0.1253
      6 O          -8.9020  -19.4225   20.9776 O.3     1  UNL1       -0.5062
      7 C          -6.3330  -19.4629   21.3628 C.ar    1  UNL1        0.0078
      8 C          -6.2067  -20.6068   20.4007 C.3     1  UNL1        0.0339
      9 C          -5.1116  -18.9112   22.0365 C.ar    1  UNL1       -0.0152
     10 H          -9.7438  -19.0527   21.1578 H       1  UNL1        0.2922
     11 C          -9.1546  -17.1348   22.9018 C.3     1  UNL1        0.0218
     12 C          -8.9182  -16.0870   21.8548 C.3     1  UNL1        0.0045
     13 C          -9.3909  -18.1826   23.9487 C.3     1  UNL1        0.0045
     14 C         -10.5022  -16.5426   23.1902 C.3     1  UNL1        0.0045
     15 C          -3.7639  -19.5033   21.7480 C.3     1  UNL1        0.1423
     16 C          -2.8628  -18.8595   20.7364 C.2     1  UNL1        0.2964
     17 N          -1.3629  -18.8720   20.7571 N.2     1  UNL1       -0.0649
     18 C          -0.8764  -18.1104   19.5599 C.3     1  UNL1        0.3130
     19 C          -2.0757  -17.6272   18.7993 C.3     1  UNL1        0.2574
     20 N          -3.3032  -18.0902   19.5264 N.pl3   1  UNL1       -0.2187
     21 H          -4.2345  -17.9192   19.2568 H       1  UNL1        0.2920
@<TRIPOS>BOND
     1     1     2    1
     2     2     3   ar
     3     3     4   ar
     4     4    11    1
     5    11    12    1
     6    11    13    1
     7    11    14    1
     8     4     5   ar
     9     5     6    1
    10     5     7   ar
    11     7     8    1
    12     7     9   ar
    13     9    15    1
    14    15    16    1
    15    16    17    2
    16    17    18    1
    17    18    19    1
    18    19    20    1
    19     9     2   ar
    20    20    16    1
    21     6    10    1
    22    20    21    1
@<TRIPOS>MOLECULE
*****
 21 22 0 0 0
SMALL
GASTEIGER

@<TRIPOS>ATOM
      1 C          -8.8503  -20.5396   18.5515 C.3     1  UNL1        0.0307
      2 C          -8.8061  -19.6196   19.7354 C.ar    1  UNL1       -0.0257
      3 C         -10.0138  -18.8084   20.1005 C.ar    1  UNL1       -0.0059
      4 C          -9.9695  -17.8884   21.2844 C.ar    1  UNL1        0.0102
      5 C          -8.7176  -17.7796   22.1033 C.ar    1  UNL1        0.1253
      6 O          -8.6733  -16.8596   23.2872 O.3     1  UNL1       -0.5062
      7 C          -7.5098  -18.5908   21.7383 C.ar    1  UNL1        0.0078
      8 C          -6.2578  -18.4821   22.5572 C.3     1  UNL1        0.0339
      9 C          -7.5541  -19.5108   20.5543 C.ar    1  UNL1       -0.0152
     10 H          -9.4277  -16.3529   23.5152 H       1  UNL1        0.2922
     11 C         -11.1773  -17.0771   21.6494 C.3     1  UNL1        0.0218
     12 C         -11.6672  -18.1974   22.5182 C.3     1  UNL1        0.0045
     13 C         -10.6875  -15.9568   20.7806 C.3     1  UNL1        0.0045
     14 C         -12.3851  -16.2660   22.0144 C.3     1  UNL1        0.0045
     15 C          -6.3463  -20.3221   20.1894 C.3     1  UNL1        0.1423
     16 C          -5.0129  -19.6531   20.0325 C.2     1  UNL1        0.2964
     17 N          -3.7118  -20.1360   20.6016 N.2     1  UNL1       -0.0649
     18 C          -2.6413  -19.1652   20.1998 C.3     1  UNL1        0.3130
     19 C          -3.2808  -18.0823   19.3823 C.3     1  UNL1        0.2574
     20 N          -4.7466  -18.3838   19.2789 N.pl3   1  UNL1       -0.2187
     21 H          -5.4162  -17.8435   18.8004 H       1  UNL1        0.2920
@<TRIPOS>BOND
     1     1     2    1
     2     2     3   ar
     3     3     4   ar
     4     4    11    1
     5    11    12    1
     6    11    13    1
     7    11    14    1
     8     4     5   ar
     9     5     6    1
    10     5     7   ar
    11     7     8    1
    12     7     9   ar
    13     9    15    1
    14    15    16    1
    15    16    17    2
    16    17    18    1
    17    18    19    1
    18    19    20    1
    19     9     2   ar
    20    20    16    1
    21     6    10    1
    22    20    21    1
@<TRIPOS>MOLECULE
*****
 21 22 0 0 0
SMALL
GASTEIGER

@<TRIPOS>ATOM
      1 C          -5.8800  -18.3409   22.5980 C.3     1  UNL1        0.0307
      2 C          -7.1647  -18.4328   21.8293 C.ar    1  UNL1       -0.0257
      3 C          -8.3529  -17.6221   22.2546 C.ar    1  UNL1       -0.0059
      4 C          -9.6376  -17.7141   21.4858 C.ar    1  UNL1        0.0102
      5 C          -9.7342  -18.6167   20.2917 C.ar    1  UNL1        0.1253
      6 O         -11.0189  -18.7086   19.5230 O.3     1  UNL1       -0.5062
      7 C          -8.5460  -19.4274   19.8664 C.ar    1  UNL1        0.0078
      8 C          -8.6425  -20.3301   18.6723 C.3     1  UNL1        0.0339
      9 C          -7.2613  -19.3355   20.6352 C.ar    1  UNL1       -0.0152
     10 H         -11.7611  -18.2022   19.7887 H       1  UNL1        0.2922
     11 C         -10.8258  -16.9033   21.9112 C.3     1  UNL1        0.0218
     12 C         -10.4917  -15.8705   20.8760 C.3     1  UNL1        0.0045
     13 C         -11.1600  -17.9361   22.9464 C.3     1  UNL1        0.0045
     14 C         -12.0140  -16.0925   22.3365 C.3     1  UNL1        0.0045
     15 C          -6.0731  -20.1462   20.2098 C.3     1  UNL1        0.1423
     16 C          -4.7469  -19.4785   19.9968 C.2     1  UNL1        0.2964
     17 N          -3.4199  -19.9769   20.4875 N.2     1  UNL1       -0.0649
     18 C          -2.3677  -19.0016   20.0497 C.3     1  UNL1        0.3130
     19 C          -3.0445  -17.9004   19.2884 C.3     1  UNL1        0.2574
     20 N          -4.5148  -18.1952   19.2557 N.pl3   1  UNL1       -0.2187
     21 H          -5.2062  -17.6433   18.8238 H       1  UNL1        0.2920
@<TRIPOS>BOND
     1     1     2    1
     2     2     3   ar
     3     3     4   ar
     4     4    11    1
     5    11    12    1
     6    11    13    1
     7    11    14    1
     8     4     5   ar
     9     5     6    1
    10     5     7   ar
    11     7     8    1
    12     7     9   ar
    13     9    15    1
    14    15    16    1
    15    16    17    2
    16    17    18    1
    17    18    19    1
    18    19    20    1
    19     9     2   ar
    20    20    16    1
    21     6    10    1
    22    20    21    1
@<TRIPOS>MOLECULE
*****
 21 22 0 0 0
SMALL
GASTEIGER

@<TRIPOS>ATOM
      1 C         -10.4791  -19.2345   19.4043 C.3     1  UNL1        0.0307
      2 C          -9.2417  -18.9113   20.1880 C.ar    1  UNL1       -0.0257
      3 C          -7.9576  -19.6276   19.8914 C.ar    1  UNL1       -0.0059
      4 C          -6.7201  -19.3044   20.6751 C.ar    1  UNL1        0.0102
      5 C          -6.7667  -18.2647   21.7553 C.ar    1  UNL1        0.1253
      6 O          -5.5292  -17.9415   22.5390 O.3     1  UNL1       -0.5062
      7 C          -8.0508  -17.5484   22.0519 C.ar    1  UNL1        0.0078
      8 C          -8.0974  -16.5087   23.1322 C.3     1  UNL1        0.0339
      9 C          -9.2882  -17.8716   21.2682 C.ar    1  UNL1       -0.0152
     10 H          -4.7271  -18.3890   22.3538 H       1  UNL1        0.2922
     11 C          -5.4360  -20.0208   20.3785 C.3     1  UNL1        0.0218
     12 C          -5.9410  -21.2288   21.1105 C.3     1  UNL1        0.0045
     13 C          -4.9311  -18.8128   19.6465 C.3     1  UNL1        0.0045
     14 C          -4.1520  -20.7372   20.0819 C.3     1  UNL1        0.0045
     15 C         -10.5723  -17.1552   21.5648 C.3     1  UNL1        0.1423
     16 C         -11.4839  -17.6645   22.6417 C.2     1  UNL1        0.2964
     17 N         -11.0818  -18.5233   23.8040 N.2     1  UNL1       -0.0649
     18 C         -12.3069  -18.7940   24.6260 C.3     1  UNL1        0.3130
     19 C         -13.4662  -18.1024   23.9717 C.3     1  UNL1        0.2574
     20 N         -12.9575  -17.4044   22.7454 N.pl3   1  UNL1       -0.2187
     21 H         -13.4962  -16.8695   22.1186 H       1  UNL1        0.2920
@<TRIPOS>BOND
     1     1     2    1
     2     2     3   ar
     3     3     4   ar
     4     4    11    1
     5    11    12    1
     6    11    13    1
     7    11    14    1
     8     4     5   ar
     9     5     6    1
    10     5     7   ar
    11     7     8    1
    12     7     9   ar
    13     9    15    1
    14    15    16    1
    15    16    17    2
    16    17    18    1
    17    18    19    1
    18    19    20    1
    19     9     2   ar
    20    20    16    1
    21     6    10    1
    22    20    21    1
@<TRIPOS>MOLECULE
*****
 21 22 0 0 0
SMALL
GASTEIGER

@<TRIPOS>ATOM
      1 C          -6.2108  -21.4832   20.1088 C.3     1  UNL1        0.0307
      2 C          -5.4840  -20.2998   20.6756 C.ar    1  UNL1       -0.0257
      3 C          -4.1063  -19.9619   20.1881 C.ar    1  UNL1       -0.0059
      4 C          -3.3794  -18.7785   20.7548 C.ar    1  UNL1        0.0102
      5 C          -4.0302  -17.9330   21.8091 C.ar    1  UNL1        0.1253
      6 O          -3.3033  -16.7497   22.3759 O.3     1  UNL1       -0.5062
      7 C          -5.4079  -18.2710   22.2967 C.ar    1  UNL1        0.0078
      8 C          -6.0588  -17.4255   23.3511 C.3     1  UNL1        0.0339
      9 C          -6.1348  -19.4544   21.7299 C.ar    1  UNL1       -0.0152
     10 H          -2.4427  -16.5386   22.0714 H       1  UNL1        0.2922
     11 C          -2.0016  -18.4406   20.2672 C.3     1  UNL1        0.0218
     12 C          -1.4091  -19.1699   21.4364 C.3     1  UNL1        0.0045
     13 C          -2.5942  -17.7113   19.0981 C.3     1  UNL1        0.0045
     14 C          -0.6240  -18.1027   19.7797 C.3     1  UNL1        0.0045
     15 C          -7.5125  -19.7923   22.2175 C.3     1  UNL1        0.1423
     16 C          -8.7085  -19.1202   21.6111 C.2     1  UNL1        0.2964
     17 N          -9.0139  -19.0177   20.1461 N.2     1  UNL1       -0.0649
     18 C         -10.3033  -18.2667   19.9928 C.3     1  UNL1        0.3130
     19 C         -10.7948  -17.9052   21.3631 C.3     1  UNL1        0.2574
     20 N          -9.8092  -18.4326   22.3633 N.pl3   1  UNL1       -0.2187
     21 H          -9.8734  -18.3433   23.3416 H       1  UNL1        0.2920
@<TRIPOS>BOND
     1     1     2    1
     2     2     3   ar
     3     3     4   ar
     4     4    11    1
     5    11    12    1
     6    11    13    1
     7    11    14    1
     8     4     5   ar
     9     5     6    1
    10     5     7   ar
    11     7     8    1
    12     7     9   ar
    13     9    15    1
    14    15    16    1
    15    16    17    2
    16    17    18    1
    17    18    19    1
    18    19    20    1
    19     9     2   ar
    20    20    16    1
    21     6    10    1
    22    20    21    1
@<TRIPOS>MOLECULE
*****
 21 22 0 0 0
SMALL
GASTEIGER

@<TRIPOS>ATOM
      1 C          -8.0117  -16.4263   23.6136 C.3     1  UNL1        0.0307
      2 C          -8.0695  -17.3978   22.4721 C.ar    1  UNL1       -0.0257
      3 C          -6.8495  -18.1843   22.0942 C.ar    1  UNL1       -0.0059
      4 C          -6.9073  -19.1557   20.9527 C.ar    1  UNL1        0.0102
      5 C          -8.1851  -19.3406   20.1892 C.ar    1  UNL1        0.1253
      6 O          -8.2430  -20.3120   19.0477 O.3     1  UNL1       -0.5062
      7 C          -9.4051  -18.5540   20.5671 C.ar    1  UNL1        0.0078
      8 C         -10.6830  -18.7389   19.8036 C.3     1  UNL1        0.0339
      9 C          -9.3473  -17.5826   21.7086 C.ar    1  UNL1       -0.0152
     10 H          -7.4809  -20.8034   18.8116 H       1  UNL1        0.2922
     11 C          -5.6873  -19.9423   20.5747 C.3     1  UNL1        0.0218
     12 C          -5.2763  -18.8513   19.6309 C.3     1  UNL1        0.0045
     13 C          -6.0982  -21.0333   21.5185 C.3     1  UNL1        0.0045
     14 C          -4.4672  -20.7288   20.1967 C.3     1  UNL1        0.0045
     15 C         -10.5674  -16.7960   22.0866 C.3     1  UNL1        0.1423
     16 C         -11.6144  -17.4124   22.9662 C.2     1  UNL1        0.2964
     17 N         -13.0972  -17.2286   22.8336 N.2     1  UNL1       -0.0649
     18 C         -13.7617  -18.0235   23.9183 C.3     1  UNL1        0.3130
     19 C         -12.6895  -18.6986   24.7213 C.3     1  UNL1        0.2574
     20 N         -11.3624  -18.3209   24.1329 N.pl3   1  UNL1       -0.2187
     21 H         -10.4809  -18.6173   24.4557 H       1  UNL1        0.2920
@<TRIPOS>BOND
     1     1     2    1
     2     2     3   ar
     3     3     4   ar
     4     4    11    1
     5    11    12    1
     6    11    13    1
     7    11    14    1
     8     4     5   ar
     9     5     6    1
    10     5     7   ar
    11     7     8    1
    12     7     9   ar
    13     9    15    1
    14    15    16    1
    15    16    17    2
    16    17    18    1
    17    18    19    1
    18    19    20    1
    19     9     2   ar
    20    20    16    1
    21     6    10    1
    22    20    21    1
@<TRIPOS>MOLECULE
*****
 21 22 0 0 0
SMALL
GASTEIGER

@<TRIPOS>ATOM
      1 C         -16.3985   -3.5378   20.1198 C.3     1  UNL1        0.0307
      2 C         -15.6981   -4.8092   19.7417 C.ar    1  UNL1       -0.0257
      3 C         -16.4965   -6.0202   19.3596 C.ar    1  UNL1       -0.0059
      4 C         -15.7961   -7.2916   18.9816 C.ar    1  UNL1        0.0102
      5 C         -14.2973   -7.3521   18.9857 C.ar    1  UNL1        0.1253
      6 O         -13.5969   -8.6235   18.6077 O.3     1  UNL1       -0.5062
      7 C         -13.4990   -6.1411   19.3678 C.ar    1  UNL1        0.0078
      8 C         -12.0002   -6.2015   19.3720 C.3     1  UNL1        0.0339
      9 C         -14.1994   -4.8696   19.7459 C.ar    1  UNL1       -0.0152
     10 H         -14.0957   -9.3800   18.3689 H       1  UNL1        0.2922
     11 C         -16.5945   -8.5027   18.5994 C.3     1  UNL1        0.0218
     12 C         -16.5723   -8.0646   17.1650 C.3     1  UNL1        0.0045
     13 C         -16.6167   -8.9407   20.0338 C.3     1  UNL1        0.0045
     14 C         -17.3929   -9.7136   18.2172 C.3     1  UNL1        0.0045
     15 C         -13.4010   -3.6586   20.1280 C.3     1  UNL1        0.1423
     16 C         -12.7153   -2.8474   19.0689 C.2     1  UNL1        0.2964
     17 N         -13.0576   -2.8346   17.6085 N.2     1  UNL1       -0.0649
     18 C         -12.1209   -1.8858   16.9212 C.3     1  UNL1        0.3130
     19 C         -11.1997   -1.3123   17.9568 C.3     1  UNL1        0.2574
     20 N         -11.5671   -1.9066   19.2841 N.pl3   1  UNL1       -0.2187
     21 H         -11.1312   -1.7131   20.1454 H       1  UNL1        0.2920
@<TRIPOS>BOND
     1     1     2    1
     2     2     3   ar
     3     3     4   ar
     4     4    11    1
     5    11    12    1
     6    11    13    1
     7    11    14    1
     8     4     5   ar
     9     5     6    1
    10     5     7   ar
    11     7     8    1
    12     7     9   ar
    13     9    15    1
    14    15    16    1
    15    16    17    2
    16    17    18    1
    17    18    19    1
    18    19    20    1
    19     9     2   ar
    20    20    16    1
    21     6    10    1
    22    20    21    1
@<TRIPOS>MOLECULE
*****
 21 22 0 0 0
SMALL
GASTEIGER

@<TRIPOS>ATOM
      1 C         -13.3557   -4.1801   20.6198 C.3     1  UNL1        0.0307
      2 C         -13.5719   -5.3695   19.7318 C.ar    1  UNL1       -0.0257
      3 C         -14.9440   -5.9581   19.5875 C.ar    1  UNL1       -0.0059
      4 C         -15.1602   -7.1475   18.6995 C.ar    1  UNL1        0.0102
      5 C         -14.0044   -7.7483   17.9559 C.ar    1  UNL1        0.1253
      6 O         -14.2206   -8.9377   17.0679 O.3     1  UNL1       -0.5062
      7 C         -12.6323   -7.1597   18.1002 C.ar    1  UNL1        0.0078
      8 C         -11.4764   -7.7605   17.3566 C.3     1  UNL1        0.0339
      9 C         -12.4161   -5.9703   18.9882 C.ar    1  UNL1       -0.0152
     10 H         -15.0777   -9.3054   16.9777 H       1  UNL1        0.2922
     11 C         -16.5324   -7.7361   18.5551 C.3     1  UNL1        0.0218
     12 C         -16.2442   -8.6841   19.6812 C.3     1  UNL1        0.0045
     13 C         -16.8206   -6.7881   17.4290 C.3     1  UNL1        0.0045
     14 C         -17.9045   -8.3247   18.4108 C.3     1  UNL1        0.0045
     15 C         -11.0439   -5.3817   19.1326 C.3     1  UNL1        0.1423
     16 C         -10.5007   -4.4755   18.0679 C.2     1  UNL1        0.2964
     17 N         -11.0976   -3.1701   17.6323 N.2     1  UNL1       -0.0649
     18 C         -10.2311   -2.6033   16.5470 C.3     1  UNL1        0.3130
     19 C          -9.0986   -3.5585   16.3118 C.3     1  UNL1        0.2574
     20 N          -9.2653   -4.7155   17.2518 N.pl3   1  UNL1       -0.2187
     21 H          -8.6685   -5.4955   17.3209 H       1  UNL1        0.2920
@<TRIPOS>BOND
     1     1     2    1
     2     2     3   ar
     3     3     4   ar
     4     4    11    1
     5    11    12    1
     6    11    13    1
     7    11    14    1
     8     4     5   ar
     9     5     6    1
    10     5     7   ar
    11     7     8    1
    12     7     9   ar
    13     9    15    1
    14    15    16    1
    15    16    17    2
    16    17    18    1
    17    18    19    1
    18    19    20    1
    19     9     2   ar
    20    20    16    1
    21     6    10    1
    22    20    21    1
