@<TRIPOS>MOLECULE
*****
 30 32 0 0 0
SMALL
GASTEIGER

@<TRIPOS>ATOM
      1 C         -10.3316  -18.7827   19.5690 C.3     1  UNL1        0.1152
      2 N          -9.4178  -18.5326   20.7319 N.am    1  UNL1       -0.2739
      3 C          -8.1100  -19.2609   20.8283 C.2     1  UNL1        0.2352
      4 O          -7.7159  -20.2391   19.7616 O.2     1  UNL1       -0.2743
      5 C          -7.1962  -19.0108   21.9912 C.3     1  UNL1        0.1703
      6 C          -5.7592  -18.6529   21.7525 C.2     1  UNL1        0.2354
      7 O          -5.0233  -17.8024   22.7450 O.2     1  UNL1       -0.2742
      8 N          -5.0581  -19.1456   20.5214 N.am    1  UNL1       -0.2835
      9 H          -5.5411  -19.7039   19.8700 H       1  UNL1        0.1549
     10 C          -3.6210  -18.7878   20.2828 C.ar    1  UNL1        0.0503
     11 C          -2.5688  -19.2163   21.2621 C.ar    1  UNL1        0.0147
     12 C          -1.1318  -18.8585   21.0234 C.ar    1  UNL1        0.0013
     13 C          -0.7471  -18.0720   19.8054 C.ar    1  UNL1        0.0001
     14 C          -1.7993  -17.6435   18.8261 C.ar    1  UNL1        0.0013
     15 C          -3.2363  -18.0014   19.0648 C.ar    1  UNL1        0.0147
     16 C          -9.8118  -17.5544   21.7986 C.3     1  UNL1        0.1138
     17 C         -10.9392  -17.8780   22.7337 C.ar    1  UNL1       -0.0029
     18 C         -12.2728  -17.2140   22.5588 C.ar    1  UNL1       -0.0026
     19 C         -13.4001  -17.5377   23.4939 C.ar    1  UNL1       -0.0003
     20 C         -13.1938  -18.5254   24.6038 C.ar    1  UNL1       -0.0000
     21 C         -11.8602  -19.1894   24.7786 C.ar    1  UNL1       -0.0003
     22 C         -10.7329  -18.8658   23.8436 C.ar    1  UNL1       -0.0026
     23 C          -9.0785  -16.2525   21.9302 C.3     1  UNL1        0.0968
     24 N          -8.4581  -15.8703   23.2413 N.3     1  UNL1       -0.2689
     25 C          -9.1101  -15.9724   24.5883 C.3     1  UNL1        0.0748
     26 C          -8.1317  -15.4841   25.6151 C.3     1  UNL1        0.0480
     27 C          -6.8750  -15.0803   24.9027 C.3     1  UNL1        0.1278
     28 O          -5.6343  -14.5337   25.5446 O.3     1  UNL1       -0.3830
     29 C          -7.0767  -15.3190   23.4356 C.3     1  UNL1        0.1017
     30 H          -4.9694  -14.3537   24.8617 H       1  UNL1        0.2104
@<TRIPOS>BOND
     1     1     2    1
     2     2     3   am
     3     3     4    2
     4     3     5    1
     5     5     6    1
     6     6     7    2
     7     6     8   am
     8     8    10    1
     9    10    11   ar
    10    11    12   ar
    11    12    13   ar
    12    13    14   ar
    13    14    15   ar
    14     2    16    1
    15    16    23    1
    16    23    24    1
    17    24    25    1
    18    25    26    1
    19    26    27    1
    20    27    28    1
    21    27    29    1
    22    16    17    1
    23    17    18   ar
    24    18    19   ar
    25    19    20   ar
    26    20    21   ar
    27    21    22   ar
    28    15    10   ar
    29    29    24    1
    30    22    17   ar
    31     8     9    1
    32    28    30    1
@<TRIPOS>MOLECULE
*****
 30 32 0 0 0
SMALL
GASTEIGER

@<TRIPOS>ATOM
      1 C          -5.4998  -21.5371   20.1461 C.3     1  UNL1        0.1152
      2 N          -5.8339  -20.1267   20.5328 N.am    1  UNL1       -0.2739
      3 C          -7.1624  -19.5406   20.1567 C.2     1  UNL1        0.2352
      4 O          -8.1569  -20.3648   19.3941 O.2     1  UNL1       -0.2743
      5 C          -7.4964  -18.1304   20.5434 C.3     1  UNL1        0.1703
      6 C          -8.7927  -17.8294   21.2356 C.2     1  UNL1        0.2354
      7 O          -9.2159  -16.4063   21.4496 O.2     1  UNL1       -0.2742
      8 N          -9.6658  -18.9515   21.7137 N.am    1  UNL1       -0.2835
      9 H          -9.3880  -19.8855   21.5732 H       1  UNL1        0.1549
     10 C         -10.9621  -18.6505   22.4059 C.ar    1  UNL1        0.0503
     11 C         -11.1089  -18.9212   23.8739 C.ar    1  UNL1        0.0147
     12 C         -12.4051  -18.6202   24.5661 C.ar    1  UNL1        0.0013
     13 C         -13.5546  -18.0486   23.7902 C.ar    1  UNL1        0.0001
     14 C         -13.4078  -17.7780   22.3221 C.ar    1  UNL1        0.0013
     15 C         -12.1115  -18.0789   21.6300 C.ar    1  UNL1        0.0147
     16 C          -4.8393  -19.3026   21.2954 C.3     1  UNL1        0.1138
     17 C          -3.5862  -18.8266   20.6221 C.ar    1  UNL1       -0.0029
     18 C          -2.2614  -18.9800   21.3084 C.ar    1  UNL1       -0.0026
     19 C          -1.0084  -18.5040   20.6351 C.ar    1  UNL1       -0.0003
     20 C          -1.0803  -17.8745   19.2755 C.ar    1  UNL1       -0.0000
     21 C          -2.4052  -17.7211   18.5892 C.ar    1  UNL1       -0.0003
     22 C          -3.6582  -18.1971   19.2625 C.ar    1  UNL1       -0.0026
     23 C          -5.0978  -18.9545   22.7314 C.3     1  UNL1        0.0968
     24 N          -5.2278  -17.5180   23.1432 N.3     1  UNL1       -0.2689
     25 C          -4.1132  -16.5167   23.2140 C.3     1  UNL1        0.0748
     26 C          -4.6918  -15.2104   23.6710 C.3     1  UNL1        0.0480
     27 C          -6.1641  -15.4044   23.8827 C.3     1  UNL1        0.1278
     28 O          -7.1347  -14.3563   24.3403 O.3     1  UNL1       -0.3830
     29 C          -6.4953  -16.8305   23.5565 C.3     1  UNL1        0.1017
     30 H          -8.0235  -14.7408   24.3957 H       1  UNL1        0.2104
@<TRIPOS>BOND
     1     1     2    1
     2     2     3   am
     3     3     4    2
     4     3     5    1
     5     5     6    1
     6     6     7    2
     7     6     8   am
     8     8    10    1
     9    10    11   ar
    10    11    12   ar
    11    12    13   ar
    12    13    14   ar
    13    14    15   ar
    14     2    16    1
    15    16    23    1
    16    23    24    1
    17    24    25    1
    18    25    26    1
    19    26    27    1
    20    27    28    1
    21    27    29    1
    22    16    17    1
    23    17    18   ar
    24    18    19   ar
    25    19    20   ar
    26    20    21   ar
    27    21    22   ar
    28    15    10   ar
    29    29    24    1
    30    22    17   ar
    31     8     9    1
    32    28    30    1
@<TRIPOS>MOLECULE
*****
 30 32 0 0 0
SMALL
GASTEIGER

@<TRIPOS>ATOM
      1 C          -3.6044  -17.7441   25.5033 C.3     1  UNL1        0.1152
      2 N          -4.3249  -17.4831   24.2138 N.am    1  UNL1       -0.2739
      3 C          -5.3454  -16.3867   24.1334 C.2     1  UNL1        0.2352
      4 O          -5.6453  -15.5511   25.3425 O.2     1  UNL1       -0.2743
      5 C          -6.0659  -16.1257   22.8440 C.3     1  UNL1        0.1703
      6 C          -7.5283  -16.4378   22.7255 C.2     1  UNL1        0.2354
      7 O          -8.2250  -16.2770   21.4069 O.2     1  UNL1       -0.2742
      8 N          -8.2939  -16.9105   23.9256 N.am    1  UNL1       -0.2835
      9 H          -7.8366  -17.0160   24.7910 H       1  UNL1        0.1549
     10 C          -9.7564  -17.2226   23.8071 C.ar    1  UNL1        0.0503
     11 C         -10.6513  -16.3280   23.0016 C.ar    1  UNL1        0.0147
     12 C         -12.1136  -16.6401   22.8832 C.ar    1  UNL1        0.0013
     13 C         -12.6811  -17.8467   23.5702 C.ar    1  UNL1        0.0001
     14 C         -11.7862  -18.7413   24.3757 C.ar    1  UNL1        0.0013
     15 C         -10.3238  -18.4292   24.4941 C.ar    1  UNL1        0.0147
     16 C          -4.0250  -18.3186   23.0047 C.3     1  UNL1        0.1138
     17 C          -2.9549  -17.8911   22.0443 C.ar    1  UNL1       -0.0029
     18 C          -2.4400  -18.8555   21.0173 C.ar    1  UNL1       -0.0026
     19 C          -1.3699  -18.4281   20.0571 C.ar    1  UNL1       -0.0003
     20 C          -0.8147  -17.0362   20.1238 C.ar    1  UNL1       -0.0000
     21 C          -1.3296  -16.0718   21.1508 C.ar    1  UNL1       -0.0003
     22 C          -2.3997  -16.4993   22.1110 C.ar    1  UNL1       -0.0026
     23 C          -4.7951  -19.5815   22.7559 C.3     1  UNL1        0.0968
     24 N          -6.0310  -19.5513   21.9063 N.3     1  UNL1       -0.2689
     25 C          -7.4246  -19.8624   22.3658 C.3     1  UNL1        0.0748
     26 C          -8.3451  -19.7081   21.1916 C.3     1  UNL1        0.0480
     27 C          -7.5205  -19.3017   20.0064 C.3     1  UNL1        0.1278
     28 O          -8.0356  -19.0383   18.6224 O.3     1  UNL1       -0.3830
     29 C          -6.0903  -19.2048   20.4481 C.3     1  UNL1        0.1017
     30 H          -7.2969  -18.7919   18.0440 H       1  UNL1        0.2104
@<TRIPOS>BOND
     1     1     2    1
     2     2     3   am
     3     3     4    2
     4     3     5    1
     5     5     6    1
     6     6     7    2
     7     6     8   am
     8     8    10    1
     9    10    11   ar
    10    11    12   ar
    11    12    13   ar
    12    13    14   ar
    13    14    15   ar
    14     2    16    1
    15    16    23    1
    16    23    24    1
    17    24    25    1
    18    25    26    1
    19    26    27    1
    20    27    28    1
    21    27    29    1
    22    16    17    1
    23    17    18   ar
    24    18    19   ar
    25    19    20   ar
    26    20    21   ar
    27    21    22   ar
    28    15    10   ar
    29    29    24    1
    30    22    17   ar
    31     8     9    1
    32    28    30    1
@<TRIPOS>MOLECULE
*****
 30 32 0 0 0
SMALL
GASTEIGER

@<TRIPOS>ATOM
      1 C          -3.5162  -17.7902   25.2901 C.3     1  UNL1        0.1152
      2 N          -4.2864  -17.0648   24.2267 N.am    1  UNL1       -0.2739
      3 C          -5.3478  -16.0772   24.6113 C.2     1  UNL1        0.2352
      4 O          -5.6392  -15.8150   26.0591 O.2     1  UNL1       -0.2743
      5 C          -6.1180  -15.3519   23.5479 C.3     1  UNL1        0.1703
      6 C          -7.4475  -15.8778   23.0940 C.2     1  UNL1        0.2354
      7 O          -7.8852  -15.6834   21.6726 O.2     1  UNL1       -0.2742
      8 N          -8.3391  -16.5981   24.0616 N.am    1  UNL1       -0.2835
      9 H          -8.0517  -16.7257   24.9945 H       1  UNL1        0.1549
     10 C          -9.6685  -17.1240   23.6076 C.ar    1  UNL1        0.0503
     11 C         -10.7464  -16.1715   23.1825 C.ar    1  UNL1        0.0147
     12 C         -12.0758  -16.6975   22.7287 C.ar    1  UNL1        0.0013
     13 C         -12.3273  -18.1760   22.6999 C.ar    1  UNL1        0.0001
     14 C         -11.2494  -19.1285   23.1250 C.ar    1  UNL1        0.0013
     15 C          -9.9200  -18.6025   23.5789 C.ar    1  UNL1        0.0147
     16 C          -3.9950  -17.3270   22.7788 C.3     1  UNL1        0.1138
     17 C          -4.6322  -18.4944   22.0850 C.ar    1  UNL1       -0.0029
     18 C          -3.7944  -19.4236   21.2576 C.ar    1  UNL1       -0.0026
     19 C          -4.4316  -20.5909   20.5639 C.ar    1  UNL1       -0.0003
     20 C          -5.9066  -20.8290   20.6976 C.ar    1  UNL1       -0.0000
     21 C          -6.7443  -19.8998   21.5249 C.ar    1  UNL1       -0.0003
     22 C          -6.1071  -18.7325   22.2187 C.ar    1  UNL1       -0.0026
     23 C          -3.0666  -16.4219   22.0247 C.3     1  UNL1        0.0968
     24 N          -2.1851  -16.9807   20.9473 N.3     1  UNL1       -0.2689
     25 C          -0.8661  -17.6645   21.1536 C.3     1  UNL1        0.0748
     26 C          -0.3337  -18.0603   19.8082 C.3     1  UNL1        0.0480
     27 C          -1.3238  -17.6212   18.7705 C.3     1  UNL1        0.1278
     28 O          -1.1927  -17.8152   17.2889 O.3     1  UNL1       -0.3830
     29 C          -2.4680  -16.9540   19.4745 C.3     1  UNL1        0.1017
     30 H          -1.9687  -17.4402   16.8438 H       1  UNL1        0.2104
@<TRIPOS>BOND
     1     1     2    1
     2     2     3   am
     3     3     4    2
     4     3     5    1
     5     5     6    1
     6     6     7    2
     7     6     8   am
     8     8    10    1
     9    10    11   ar
    10    11    12   ar
    11    12    13   ar
    12    13    14   ar
    13    14    15   ar
    14     2    16    1
    15    16    23    1
    16    23    24    1
    17    24    25    1
    18    25    26    1
    19    26    27    1
    20    27    28    1
    21    27    29    1
    22    16    17    1
    23    17    18   ar
    24    18    19   ar
    25    19    20   ar
    26    20    21   ar
    27    21    22   ar
    28    15    10   ar
    29    29    24    1
    30    22    17   ar
    31     8     9    1
    32    28    30    1
@<TRIPOS>MOLECULE
*****
 30 32 0 0 0
SMALL
GASTEIGER

@<TRIPOS>ATOM
      1 C           7.0311   -1.8603   25.5369 C.3     1  UNL1        0.1152
      2 N           6.6984   -2.6170   24.2851 N.am    1  UNL1       -0.2739
      3 C           5.2925   -2.6208   23.7624 C.2     1  UNL1        0.2352
      4 O           4.2192   -1.8680   24.4914 O.2     1  UNL1       -0.2743
      5 C           4.9598   -3.3775   22.5107 C.3     1  UNL1        0.1703
      6 C           4.1656   -2.7164   21.4234 C.2     1  UNL1        0.2354
      7 O           3.8607   -3.4621   20.1581 O.2     1  UNL1       -0.2742
      8 N           3.6765   -1.3096   21.6013 N.am    1  UNL1       -0.2835
      9 H           3.8766   -0.8202   22.4317 H       1  UNL1        0.1549
     10 C           2.8823   -0.6485   20.5139 C.ar    1  UNL1        0.0503
     11 C           1.4347   -0.3232   20.7343 C.ar    1  UNL1        0.0147
     12 C           0.6406    0.3379   19.6470 C.ar    1  UNL1        0.0013
     13 C           1.2941    0.6737   18.3392 C.ar    1  UNL1        0.0001
     14 C           2.7417    0.3484   18.1189 C.ar    1  UNL1        0.0013
     15 C           3.5358   -0.3127   19.2062 C.ar    1  UNL1        0.0147
     16 C           7.7717   -3.3698   23.5562 C.3     1  UNL1        0.1138
     17 C           7.9884   -4.8273   23.8371 C.ar    1  UNL1       -0.0029
     18 C           8.6946   -5.6879   22.8319 C.ar    1  UNL1       -0.0026
     19 C           8.9113   -7.1453   23.1129 C.ar    1  UNL1       -0.0003
     20 C           8.4219   -7.7421   24.3991 C.ar    1  UNL1       -0.0000
     21 C           7.7157   -6.8814   25.4044 C.ar    1  UNL1       -0.0003
     22 C           7.4990   -5.4240   25.1234 C.ar    1  UNL1       -0.0026
     23 C           8.6282   -2.6652   22.5463 C.3     1  UNL1        0.0968
     24 N           8.0183   -2.1434   21.2791 N.3     1  UNL1       -0.2689
     25 C           7.4532   -0.7693   21.0732 C.3     1  UNL1        0.0748
     26 C           6.9521   -0.6807   19.6622 C.3     1  UNL1        0.0480
     27 C           7.2074   -2.0002   18.9960 C.3     1  UNL1        0.1278
     28 O           6.8641   -2.3536   17.5792 O.3     1  UNL1       -0.3830
     29 C           7.8664   -2.9042   19.9953 C.3     1  UNL1        0.1017
     30 H           7.1347   -3.2676   17.3993 H       1  UNL1        0.2104
@<TRIPOS>BOND
     1     1     2    1
     2     2     3   am
     3     3     4    2
     4     3     5    1
     5     5     6    1
     6     6     7    2
     7     6     8   am
     8     8    10    1
     9    10    11   ar
    10    11    12   ar
    11    12    13   ar
    12    13    14   ar
    13    14    15   ar
    14     2    16    1
    15    16    23    1
    16    23    24    1
    17    24    25    1
    18    25    26    1
    19    26    27    1
    20    27    28    1
    21    27    29    1
    22    16    17    1
    23    17    18   ar
    24    18    19   ar
    25    19    20   ar
    26    20    21   ar
    27    21    22   ar
    28    15    10   ar
    29    29    24    1
    30    22    17   ar
    31     8     9    1
    32    28    30    1
@<TRIPOS>MOLECULE
*****
 30 32 0 0 0
SMALL
GASTEIGER

@<TRIPOS>ATOM
      1 C          -7.3645  -14.4291   21.9649 C.3     1  UNL1        0.1152
      2 N          -8.0707  -15.7030   22.3234 N.am    1  UNL1       -0.2739
      3 C          -9.3927  -16.0302   21.6948 C.2     1  UNL1        0.2352
      4 O         -10.0086  -15.0835   20.7077 O.2     1  UNL1       -0.2743
      5 C         -10.0988  -17.3041   22.0534 C.3     1  UNL1        0.1703
      6 C          -9.8407  -18.5527   21.2631 C.2     1  UNL1        0.2354
      7 O         -10.5913  -19.8114   21.5831 O.2     1  UNL1       -0.2742
      8 N          -8.8321  -18.5427   20.1530 N.am    1  UNL1       -0.2835
      9 H          -8.3395  -17.7166   19.9430 H       1  UNL1        0.1549
     10 C          -8.5740  -19.7913   19.3627 C.ar    1  UNL1        0.0503
     11 C          -7.3698  -20.6336   19.6633 C.ar    1  UNL1        0.0147
     12 C          -7.1118  -21.8822   18.8731 C.ar    1  UNL1        0.0013
     13 C          -8.0579  -22.2884   17.7823 C.ar    1  UNL1        0.0001
     14 C          -9.2621  -21.4460   17.4817 C.ar    1  UNL1        0.0013
     15 C          -9.5201  -20.1975   18.2719 C.ar    1  UNL1        0.0147
     16 C          -7.4548  -16.6497   23.3105 C.3     1  UNL1        0.1138
     17 C          -7.4057  -16.2888   24.7657 C.ar    1  UNL1       -0.0029
     18 C          -6.2236  -15.5467   25.3149 C.ar    1  UNL1       -0.0026
     19 C          -6.1746  -15.1858   26.7700 C.ar    1  UNL1       -0.0003
     20 C          -7.3077  -15.5671   27.6759 C.ar    1  UNL1       -0.0000
     21 C          -8.4898  -16.3093   27.1267 C.ar    1  UNL1       -0.0003
     22 C          -8.5389  -16.6701   25.6716 C.ar    1  UNL1       -0.0026
     23 C          -6.8880  -17.9573   22.8426 C.3     1  UNL1        0.0968
     24 N          -5.4050  -18.1183   22.6847 N.3     1  UNL1       -0.2689
     25 C          -4.3643  -17.0995   23.0439 C.3     1  UNL1        0.0748
     26 C          -3.0185  -17.6780   22.7212 C.3     1  UNL1        0.0480
     27 C          -3.2274  -19.0543   22.1625 C.3     1  UNL1        0.1278
     28 O          -2.1505  -19.9936   21.7064 O.3     1  UNL1       -0.3830
     29 C          -4.7024  -19.3264   22.1400 C.3     1  UNL1        0.1017
     30 H          -2.5529  -20.8172   21.3891 H       1  UNL1        0.2104
@<TRIPOS>BOND
     1     1     2    1
     2     2     3   am
     3     3     4    2
     4     3     5    1
     5     5     6    1
     6     6     7    2
     7     6     8   am
     8     8    10    1
     9    10    11   ar
    10    11    12   ar
    11    12    13   ar
    12    13    14   ar
    13    14    15   ar
    14     2    16    1
    15    16    23    1
    16    23    24    1
    17    24    25    1
    18    25    26    1
    19    26    27    1
    20    27    28    1
    21    27    29    1
    22    16    17    1
    23    17    18   ar
    24    18    19   ar
    25    19    20   ar
    26    20    21   ar
    27    21    22   ar
    28    15    10   ar
    29    29    24    1
    30    22    17   ar
    31     8     9    1
    32    28    30    1
@<TRIPOS>MOLECULE
*****
 30 32 0 0 0
SMALL
GASTEIGER

@<TRIPOS>ATOM
      1 C           7.1873    2.2692   35.6544 C.3     1  UNL1        0.1152
      2 N           6.0101    1.4289   35.2566 N.am    1  UNL1       -0.2739
      3 C           6.1923   -0.0340   34.9798 C.2     1  UNL1        0.2352
      4 O           7.5516   -0.6567   35.1007 O.2     1  UNL1       -0.2743
      5 C           5.0152   -0.8743   34.5821 C.3     1  UNL1        0.1703
      6 C           5.1336   -1.8376   33.4383 C.2     1  UNL1        0.2354
      7 O           3.9286   -2.5992   32.9714 O.2     1  UNL1       -0.2742
      8 N           6.4568   -2.0392   32.7614 N.am    1  UNL1       -0.2835
      9 H           7.2477   -1.5394   33.0678 H       1  UNL1        0.1549
     10 C           6.5752   -3.0025   31.6176 C.ar    1  UNL1        0.0503
     11 C           6.4116   -2.5167   30.2080 C.ar    1  UNL1        0.0147
     12 C           6.5300   -3.4800   29.0643 C.ar    1  UNL1        0.0013
     13 C           6.8119   -4.9290   29.3302 C.ar    1  UNL1        0.0001
     14 C           6.9755   -5.4148   30.7399 C.ar    1  UNL1        0.0013
     15 C           6.8571   -4.4516   31.8836 C.ar    1  UNL1        0.0147
     16 C           4.6508    2.0515   35.1357 C.3     1  UNL1        0.1138
     17 C           3.7433    2.1086   36.3287 C.ar    1  UNL1       -0.0029
     18 C           2.7496    3.2243   36.4623 C.ar    1  UNL1       -0.0026
     19 C           1.8421    3.2814   37.6553 C.ar    1  UNL1       -0.0003
     20 C           1.9283    2.2228   38.7146 C.ar    1  UNL1       -0.0000
     21 C           2.9220    1.1072   38.5809 C.ar    1  UNL1       -0.0003
     22 C           3.8295    1.0501   37.3880 C.ar    1  UNL1       -0.0026
     23 C           4.1991    2.6169   33.8219 C.3     1  UNL1        0.0968
     24 N           3.9507    1.7038   32.6580 N.3     1  UNL1       -0.2689
     25 C           4.9129    1.4128   31.5447 C.3     1  UNL1        0.0748
     26 C           4.2534    0.4505   30.6017 C.3     1  UNL1        0.0480
     27 C           2.8836    0.1469   31.1322 C.3     1  UNL1        0.1278
     28 O           1.8776   -0.7703   30.5025 O.3     1  UNL1       -0.3830
     29 C           2.6966    0.9214   32.4031 C.3     1  UNL1        0.1017
     30 H           1.0741   -0.7906   31.0456 H       1  UNL1        0.2104
@<TRIPOS>BOND
     1     1     2    1
     2     2     3   am
     3     3     4    2
     4     3     5    1
     5     5     6    1
     6     6     7    2
     7     6     8   am
     8     8    10    1
     9    10    11   ar
    10    11    12   ar
    11    12    13   ar
    12    13    14   ar
    13    14    15   ar
    14     2    16    1
    15    16    23    1
    16    23    24    1
    17    24    25    1
    18    25    26    1
    19    26    27    1
    20    27    28    1
    21    27    29    1
    22    16    17    1
    23    17    18   ar
    24    18    19   ar
    25    19    20   ar
    26    20    21   ar
    27    21    22   ar
    28    15    10   ar
    29    29    24    1
    30    22    17   ar
    31     8     9    1
    32    28    30    1
@<TRIPOS>MOLECULE
*****
 30 32 0 0 0
SMALL
GASTEIGER

@<TRIPOS>ATOM
      1 C           5.8147    0.8333   18.0591 C.3     1  UNL1        0.1152
      2 N           5.1114   -0.4117   18.5122 N.am    1  UNL1       -0.2739
      3 C           5.6280   -1.7578   18.0984 C.2     1  UNL1        0.2352
      4 O           6.8479   -1.8589   17.2314 O.2     1  UNL1       -0.2743
      5 C           4.9246   -3.0027   18.5515 C.3     1  UNL1        0.1703
      6 C           5.3370   -3.6749   19.8276 C.2     1  UNL1        0.2354
      7 O           4.7057   -4.9752   20.2282 O.2     1  UNL1       -0.2742
      8 N           6.3807   -3.0468   20.7029 N.am    1  UNL1       -0.2835
      9 H           6.7950   -2.1933   20.4399 H       1  UNL1        0.1549
     10 C           6.7930   -3.7190   21.9789 C.ar    1  UNL1        0.0503
     11 C           6.0449   -3.4408   23.2489 C.ar    1  UNL1        0.0147
     12 C           6.4573   -4.1130   24.5248 C.ar    1  UNL1        0.0013
     13 C           7.6178   -5.0633   24.5307 C.ar    1  UNL1        0.0001
     14 C           8.3660   -5.3415   23.2608 C.ar    1  UNL1        0.0013
     15 C           7.9536   -4.6693   21.9848 C.ar    1  UNL1        0.0147
     16 C           3.8915   -0.3106   19.3792 C.3     1  UNL1        0.1138
     17 C           4.0331   -0.2766   20.8722 C.ar    1  UNL1       -0.0029
     18 C           5.0699    0.6017   21.5074 C.ar    1  UNL1       -0.0026
     19 C           5.2115    0.6357   23.0002 C.ar    1  UNL1       -0.0003
     20 C           4.3163   -0.2087   23.8579 C.ar    1  UNL1       -0.0000
     21 C           3.2795   -1.0871   23.2227 C.ar    1  UNL1       -0.0003
     22 C           3.1380   -1.1211   21.7298 C.ar    1  UNL1       -0.0026
     23 C           2.5300   -0.2436   18.7533 C.3     1  UNL1        0.0968
     24 N           1.5909    0.8678   19.1178 N.3     1  UNL1       -0.2689
     25 C           1.6339    2.2691   18.5845 C.3     1  UNL1        0.0748
     26 C           0.5135    3.0404   19.2167 C.3     1  UNL1        0.0480
     27 C          -0.2221    2.1158   20.1408 C.3     1  UNL1        0.1278
     28 O          -1.4142    2.4713   20.9789 O.3     1  UNL1       -0.3830
     29 C           0.4438    0.7730   20.0796 C.3     1  UNL1        0.1017
     30 H          -1.6975    1.6936   21.4847 H       1  UNL1        0.2104
@<TRIPOS>BOND
     1     1     2    1
     2     2     3   am
     3     3     4    2
     4     3     5    1
     5     5     6    1
     6     6     7    2
     7     6     8   am
     8     8    10    1
     9    10    11   ar
    10    11    12   ar
    11    12    13   ar
    12    13    14   ar
    13    14    15   ar
    14     2    16    1
    15    16    23    1
    16    23    24    1
    17    24    25    1
    18    25    26    1
    19    26    27    1
    20    27    28    1
    21    27    29    1
    22    16    17    1
    23    17    18   ar
    24    18    19   ar
    25    19    20   ar
    26    20    21   ar
    27    21    22   ar
    28    15    10   ar
    29    29    24    1
    30    22    17   ar
    31     8     9    1
    32    28    30    1
@<TRIPOS>MOLECULE
*****
 30 32 0 0 0
SMALL
GASTEIGER

@<TRIPOS>ATOM
      1 C           5.9867    1.3161   19.1243 C.3     1  UNL1        0.1152
      2 N           5.1307    0.2811   19.7922 N.am    1  UNL1       -0.2739
      3 C           5.5313   -0.2766   21.1258 C.2     1  UNL1        0.2352
      4 O           6.7879    0.2008   21.7915 O.2     1  UNL1       -0.2743
      5 C           4.6753   -1.3115   21.7938 C.3     1  UNL1        0.1703
      6 C           5.2820   -2.6046   22.2520 C.2     1  UNL1        0.2354
      7 O           4.3980   -3.7310   22.6989 O.2     1  UNL1       -0.2742
      8 N           6.7726   -2.7713   22.2632 N.am    1  UNL1       -0.2835
      9 H           7.3529   -2.0320   21.9698 H       1  UNL1        0.1549
     10 C           7.3793   -4.0644   22.7214 C.ar    1  UNL1        0.0503
     11 C           8.2109   -4.8794   21.7758 C.ar    1  UNL1        0.0147
     12 C           8.8175   -6.1724   22.2340 C.ar    1  UNL1        0.0013
     13 C           8.5926   -6.6505   23.6378 C.ar    1  UNL1        0.0001
     14 C           7.7610   -5.8356   24.5835 C.ar    1  UNL1        0.0013
     15 C           7.1543   -4.5425   24.1252 C.ar    1  UNL1        0.0147
     16 C           3.8741   -0.1963   19.1266 C.3     1  UNL1        0.1138
     17 C           2.5612    0.4536   19.4490 C.ar    1  UNL1       -0.0029
     18 C           2.2735    1.8438   18.9650 C.ar    1  UNL1       -0.0026
     19 C           0.9606    2.4936   19.2875 C.ar    1  UNL1       -0.0003
     20 C          -0.0647    1.7531   20.0940 C.ar    1  UNL1       -0.0000
     21 C           0.2230    0.3628   20.5781 C.ar    1  UNL1       -0.0003
     22 C           1.5359   -0.2869   20.2556 C.ar    1  UNL1       -0.0026
     23 C           3.9304   -1.3234   18.1384 C.3     1  UNL1        0.0968
     24 N           4.1739   -2.7253   18.6129 N.3     1  UNL1       -0.2689
     25 C           5.4725   -3.4715   18.5293 C.3     1  UNL1        0.0748
     26 C           5.2627   -4.8346   19.1190 C.3     1  UNL1        0.0480
     27 C           3.8345   -4.9310   19.5672 C.3     1  UNL1        0.1278
     28 O           3.1920   -6.1218   20.2145 O.3     1  UNL1       -0.3830
     29 C           3.1616   -3.6274   19.2544 C.3     1  UNL1        0.1017
     30 H           2.2618   -5.9236   20.4051 H       1  UNL1        0.2104
@<TRIPOS>BOND
     1     1     2    1
     2     2     3   am
     3     3     4    2
     4     3     5    1
     5     5     6    1
     6     6     7    2
     7     6     8   am
     8     8    10    1
     9    10    11   ar
    10    11    12   ar
    11    12    13   ar
    12    13    14   ar
    13    14    15   ar
    14     2    16    1
    15    16    23    1
    16    23    24    1
    17    24    25    1
    18    25    26    1
    19    26    27    1
    20    27    28    1
    21    27    29    1
    22    16    17    1
    23    17    18   ar
    24    18    19   ar
    25    19    20   ar
    26    20    21   ar
    27    21    22   ar
    28    15    10   ar
    29    29    24    1
    30    22    17   ar
    31     8     9    1
    32    28    30    1
