@<TRIPOS>MOLECULE
*****
 33 36 0 0 0
SMALL
GASTEIGER

@<TRIPOS>ATOM
      1 N           0.4293    3.3958   24.7709 N.am    1  UNL1       -0.2533
      2 C           0.8974    2.1652   24.0524 C.2     1  UNL1        0.3092
      3 O          -0.0046    0.9716   23.9435 O.2     1  UNL1       -0.2521
      4 N           2.2675    2.1280   23.4429 N.am    1  UNL1       -0.2680
      5 H           1.0213    4.1792   24.8424 H       1  UNL1        0.1578
      6 H           2.8595    2.9114   23.5144 H       1  UNL1        0.1564
      7 C           2.7355    0.8973   22.7244 C.ar    1  UNL1        0.0517
      8 C           3.2249   -0.2864   23.5050 C.ar    1  UNL1        0.0162
      9 C           3.6930   -1.5171   22.7865 C.ar    1  UNL1        0.0188
     10 C           3.6717   -1.5642   21.2875 C.ar    1  UNL1        0.0656
     11 C           3.1824   -0.3805   20.5068 C.ar    1  UNL1        0.0188
     12 C           2.7143    0.8502   21.2253 C.ar    1  UNL1        0.0162
     13 N           4.1398   -2.7949   20.5690 N.ar    1  UNL1       -0.2864
     14 C           3.4894   -3.4160   19.3685 C.ar    1  UNL1        0.1022
     15 C           4.2881   -4.6256   18.9824 C.ar    1  UNL1        0.1196
     16 N           5.4321   -4.7520   19.9443 N.ar    1  UNL1       -0.2220
     17 C           5.3405   -3.6205   20.9249 C.ar    1  UNL1        0.1828
     18 N          -1.3347    2.8404   26.7010 N.ar    1  UNL1       -0.2162
     19 N          -2.7948    3.1105   26.9131 N.ar    1  UNL1       -0.1683
     20 C          -3.3034    3.8700   25.7237 C.ar    1  UNL1        0.0810
     21 C          -2.1575    4.0693   24.7765 C.ar    1  UNL1        0.0509
     22 C          -0.9408    3.4330   25.3805 C.ar    1  UNL1        0.1380
     23 C           2.2934   -0.0948   30.4721 C.3     1  UNL1        0.0310
     24 C           1.3864    0.6390   29.5294 C.ar    1  UNL1       -0.0218
     25 C           1.5768    2.1085   29.2966 C.ar    1  UNL1       -0.0027
     26 C           0.6698    2.8423   28.3538 C.ar    1  UNL1        0.0189
     27 C          -0.4277    2.1066   27.6438 C.ar    1  UNL1        0.0842
     28 C          -0.6181    0.6371   27.8765 C.ar    1  UNL1        0.0189
     29 C           0.2889   -0.0967   28.8193 C.ar    1  UNL1       -0.0027
     30 C          -4.7107    4.3465   25.5178 C.3     1  UNL1        0.0372
     31 C          -4.7705    3.6064   24.2145 C.3     1  UNL1        0.0060
     32 C          -4.6508    5.0866   26.8211 C.3     1  UNL1        0.0060
     33 C          -6.1180    4.8230   25.3119 C.3     1  UNL1        0.0060
@<TRIPOS>BOND
     1    23    24    1
     2    24    25   ar
     3    25    26   ar
     4    26    27   ar
     5    27    18    1
     6    18    19   ar
     7    19    20   ar
     8    20    30    1
     9    30    31    1
    10    30    32    1
    11    30    33    1
    12    20    21   ar
    13    21    22   ar
    14    22     1    1
    15     1     2   am
    16     2     3    2
    17     2     4   am
    18     4     7    1
    19     7     8   ar
    20     8     9   ar
    21     9    10   ar
    22    10    13    1
    23    13    14   ar
    24    14    15   ar
    25    15    16   ar
    26    16    17   ar
    27    10    11   ar
    28    11    12   ar
    29    27    28   ar
    30    28    29   ar
    31    29    24   ar
    32    22    18   ar
    33    12     7   ar
    34    17    13   ar
    35     1     5    1
    36     4     6    1
@<TRIPOS>MOLECULE
*****
 33 36 0 0 0
SMALL
GASTEIGER

@<TRIPOS>ATOM
      1 N           3.4813    0.3935   22.0744 N.am    1  UNL1       -0.2533
      2 C           2.1400    0.8839   22.5328 C.2     1  UNL1        0.3092
      3 O           0.8964    0.4453   21.8178 O.2     1  UNL1       -0.2521
      4 N           2.0420    1.8130   23.7064 N.am    1  UNL1       -0.2680
      5 H           4.2974    0.6815   22.5437 H       1  UNL1        0.1578
      6 H           2.8581    2.1009   24.1758 H       1  UNL1        0.1564
      7 C           0.7006    2.3034   24.1649 C.ar    1  UNL1        0.0517
      8 C           0.1644    1.8817   25.5008 C.ar    1  UNL1        0.0162
      9 C          -1.1770    2.3720   25.9592 C.ar    1  UNL1        0.0188
     10 C          -1.9822    3.2841   25.0818 C.ar    1  UNL1        0.0656
     11 C          -1.4459    3.7058   23.7460 C.ar    1  UNL1        0.0188
     12 C          -0.1045    3.2154   23.2875 C.ar    1  UNL1        0.0162
     13 N          -3.3236    3.7745   25.5403 N.ar    1  UNL1       -0.2864
     14 C          -3.6022    4.5217   26.8108 C.ar    1  UNL1        0.1022
     15 C          -5.0727    4.8127   26.8644 C.ar    1  UNL1        0.1196
     16 N          -5.7029    4.2454   25.6271 N.ar    1  UNL1       -0.2220
     17 C          -4.6219    3.6037   24.8087 C.ar    1  UNL1        0.1828
     18 N           3.1849   -0.2172   19.4890 N.ar    1  UNL1       -0.2162
     19 N           3.4507   -1.4310   18.6487 N.ar    1  UNL1       -0.1683
     20 C           4.0094   -2.4994   19.5411 C.ar    1  UNL1        0.0810
     21 C           4.0888   -1.9459   20.9330 C.ar    1  UNL1        0.0509
     22 C           3.5793   -0.5355   20.9008 C.ar    1  UNL1        0.1380
     23 C           0.9384    4.9955   17.5445 C.3     1  UNL1        0.0310
     24 C           1.5000    3.6923   18.0307 C.ar    1  UNL1       -0.0218
     25 C           2.9622    3.5763   18.3447 C.ar    1  UNL1       -0.0027
     26 C           3.5238    2.2731   18.8308 C.ar    1  UNL1        0.0189
     27 C           2.6233    1.0859   19.0029 C.ar    1  UNL1        0.0842
     28 C           1.1611    1.2020   18.6888 C.ar    1  UNL1        0.0189
     29 C           0.5995    2.5051   18.2027 C.ar    1  UNL1       -0.0027
     30 C           4.4170   -3.8790   19.1162 C.3     1  UNL1        0.0372
     31 C           5.8563   -3.4567   19.1261 C.3     1  UNL1        0.0060
     32 C           2.9777   -4.3012   19.1064 C.3     1  UNL1        0.0060
     33 C           4.8247   -5.2586   18.6913 C.3     1  UNL1        0.0060
@<TRIPOS>BOND
     1    23    24    1
     2    24    25   ar
     3    25    26   ar
     4    26    27   ar
     5    27    18    1
     6    18    19   ar
     7    19    20   ar
     8    20    30    1
     9    30    31    1
    10    30    32    1
    11    30    33    1
    12    20    21   ar
    13    21    22   ar
    14    22     1    1
    15     1     2   am
    16     2     3    2
    17     2     4   am
    18     4     7    1
    19     7     8   ar
    20     8     9   ar
    21     9    10   ar
    22    10    13    1
    23    13    14   ar
    24    14    15   ar
    25    15    16   ar
    26    16    17   ar
    27    10    11   ar
    28    11    12   ar
    29    27    28   ar
    30    28    29   ar
    31    29    24   ar
    32    22    18   ar
    33    12     7   ar
    34    17    13   ar
    35     1     5    1
    36     4     6    1
@<TRIPOS>MOLECULE
*****
 33 36 0 0 0
SMALL
GASTEIGER

@<TRIPOS>ATOM
      1 N           4.3046    0.6128   23.7428 N.am    1  UNL1       -0.2533
      2 C           4.6853   -0.7216   24.3121 C.2     1  UNL1        0.3092
      3 O           3.6211   -1.6632   24.7928 O.2     1  UNL1       -0.2521
      4 N           6.1302   -1.1147   24.4007 N.am    1  UNL1       -0.2680
      5 H           5.0031    1.2307   23.4273 H       1  UNL1        0.1578
      6 H           6.8287   -0.4968   24.0853 H       1  UNL1        0.1564
      7 C           6.5108   -2.4493   24.9701 C.ar    1  UNL1        0.0517
      8 C           6.8159   -3.5964   24.0531 C.ar    1  UNL1        0.0162
      9 C           7.1965   -4.9310   24.6224 C.ar    1  UNL1        0.0188
     10 C           7.2721   -5.1184   26.1087 C.ar    1  UNL1        0.0656
     11 C           6.9670   -3.9712   27.0257 C.ar    1  UNL1        0.0188
     12 C           6.5864   -2.6367   26.4563 C.ar    1  UNL1        0.0162
     13 N           7.6527   -6.4529   26.6780 N.ar    1  UNL1       -0.2864
     14 C           8.5155   -6.6837   27.8831 C.ar    1  UNL1        0.1022
     15 C           8.6334   -8.1644   28.0921 C.ar    1  UNL1        0.1196
     16 N           7.8435   -8.8487   27.0161 N.ar    1  UNL1       -0.2220
     17 C           7.2374   -7.7909   26.1421 C.ar    1  UNL1        0.1828
     18 N           2.0058    0.9534   22.4220 N.ar    1  UNL1       -0.2162
     19 N           0.6335    1.4355   22.7885 N.ar    1  UNL1       -0.1683
     20 C           0.6393    1.7860   24.2469 C.ar    1  UNL1        0.0810
     21 C           2.0153    1.5205   24.7819 C.ar    1  UNL1        0.0509
     22 C           2.8598    1.0059   23.6541 C.ar    1  UNL1        0.1380
     23 C           3.7694   -0.8658   16.9833 C.3     1  UNL1        0.0310
     24 C           3.3285   -0.4110   18.3430 C.ar    1  UNL1       -0.0218
     25 C           3.1285   -1.4134   19.4408 C.ar    1  UNL1       -0.0027
     26 C           2.6876   -0.9586   20.8005 C.ar    1  UNL1        0.0189
     27 C           2.4467    0.4986   21.0624 C.ar    1  UNL1        0.0842
     28 C           2.6467    1.5009   19.9646 C.ar    1  UNL1        0.0189
     29 C           3.0876    1.0461   18.6049 C.ar    1  UNL1       -0.0027
     30 C          -0.5262    2.3100   25.0325 C.3     1  UNL1        0.0372
     31 C          -0.2029    1.3590   26.1465 C.3     1  UNL1        0.0060
     32 C          -0.8494    3.2611   23.9184 C.3     1  UNL1        0.0060
     33 C          -1.6917    2.8341   25.8180 C.3     1  UNL1        0.0060
@<TRIPOS>BOND
     1    23    24    1
     2    24    25   ar
     3    25    26   ar
     4    26    27   ar
     5    27    18    1
     6    18    19   ar
     7    19    20   ar
     8    20    30    1
     9    30    31    1
    10    30    32    1
    11    30    33    1
    12    20    21   ar
    13    21    22   ar
    14    22     1    1
    15     1     2   am
    16     2     3    2
    17     2     4   am
    18     4     7    1
    19     7     8   ar
    20     8     9   ar
    21     9    10   ar
    22    10    13    1
    23    13    14   ar
    24    14    15   ar
    25    15    16   ar
    26    16    17   ar
    27    10    11   ar
    28    11    12   ar
    29    27    28   ar
    30    28    29   ar
    31    29    24   ar
    32    22    18   ar
    33    12     7   ar
    34    17    13   ar
    35     1     5    1
    36     4     6    1
@<TRIPOS>MOLECULE
*****
 33 36 0 0 0
SMALL
GASTEIGER

@<TRIPOS>ATOM
      1 N           2.7453    1.1349   20.1190 N.am    1  UNL1       -0.2533
      2 C           1.3043    1.4633   19.8628 C.2     1  UNL1        0.3092
      3 O           0.2805    0.3676   19.8255 O.2     1  UNL1       -0.2521
      4 N           0.8870    2.8873   19.6439 N.am    1  UNL1       -0.2680
      5 H           3.4172    1.8540   20.1435 H       1  UNL1        0.1578
      6 H           1.5589    3.6065   19.6684 H       1  UNL1        0.1564
      7 C          -0.5540    3.2157   19.3878 C.ar    1  UNL1        0.0517
      8 C          -0.9830    3.7048   18.0362 C.ar    1  UNL1        0.0162
      9 C          -2.4240    4.0331   17.7800 C.ar    1  UNL1        0.0188
     10 C          -3.4361    3.8724   18.8753 C.ar    1  UNL1        0.0656
     11 C          -3.0071    3.3833   20.2269 C.ar    1  UNL1        0.0188
     12 C          -1.5661    3.0549   20.4831 C.ar    1  UNL1        0.0162
     13 N          -4.8771    4.2007   18.6191 N.ar    1  UNL1       -0.2864
     14 C          -5.3995    5.4791   18.0335 C.ar    1  UNL1        0.1022
     15 C          -6.8940    5.3768   17.9560 C.ar    1  UNL1        0.1196
     16 N          -7.2953    4.0352   18.4937 N.ar    1  UNL1       -0.2220
     17 C          -6.0487    3.3083   18.9036 C.ar    1  UNL1        0.1828
     18 N           3.2372   -0.9927   21.6606 N.ar    1  UNL1       -0.2162
     19 N           3.6993   -2.3980   21.4126 N.ar    1  UNL1       -0.1683
     20 C           3.9102   -2.5631   19.9367 C.ar    1  UNL1        0.0810
     21 C           3.5785   -1.2597   19.2725 C.ar    1  UNL1        0.0509
     22 C           3.1626   -0.2892   20.3379 C.ar    1  UNL1        0.1380
     23 C           1.9189    1.3953   27.0047 C.3     1  UNL1        0.0310
     24 C           2.2485    0.7983   25.6687 C.ar    1  UNL1       -0.0218
     25 C           1.3428    1.0362   24.4969 C.ar    1  UNL1       -0.0027
     26 C           1.6724    0.4392   23.1609 C.ar    1  UNL1        0.0189
     27 C           2.9076   -0.3957   22.9966 C.ar    1  UNL1        0.0842
     28 C           3.8133   -0.6336   24.1684 C.ar    1  UNL1        0.0189
     29 C           3.4837   -0.0366   25.5044 C.ar    1  UNL1       -0.0027
     30 C           4.3718   -3.8122   19.2463 C.3     1  UNL1        0.0372
     31 C           5.1558   -2.9839   18.2720 C.3     1  UNL1        0.0060
     32 C           3.5879   -4.6404   20.2207 C.3     1  UNL1        0.0060
     33 C           4.8334   -5.0613   18.5559 C.3     1  UNL1        0.0060
@<TRIPOS>BOND
     1    23    24    1
     2    24    25   ar
     3    25    26   ar
     4    26    27   ar
     5    27    18    1
     6    18    19   ar
     7    19    20   ar
     8    20    30    1
     9    30    31    1
    10    30    32    1
    11    30    33    1
    12    20    21   ar
    13    21    22   ar
    14    22     1    1
    15     1     2   am
    16     2     3    2
    17     2     4   am
    18     4     7    1
    19     7     8   ar
    20     8     9   ar
    21     9    10   ar
    22    10    13    1
    23    13    14   ar
    24    14    15   ar
    25    15    16   ar
    26    16    17   ar
    27    10    11   ar
    28    11    12   ar
    29    27    28   ar
    30    28    29   ar
    31    29    24   ar
    32    22    18   ar
    33    12     7   ar
    34    17    13   ar
    35     1     5    1
    36     4     6    1
@<TRIPOS>MOLECULE
*****
 33 36 0 0 0
SMALL
GASTEIGER

@<TRIPOS>ATOM
      1 N          -0.8043    3.8332   20.6103 N.am    1  UNL1       -0.2533
      2 C          -0.1174    2.5091   20.4531 C.2     1  UNL1        0.3092
      3 O          -0.9209    1.2424   20.4538 O.2     1  UNL1       -0.2521
      4 N           1.3732    2.4515   20.2951 N.am    1  UNL1       -0.2680
      5 H          -0.2769    4.6645   20.6098 H       1  UNL1        0.1578
      6 H           1.9006    3.2828   20.2946 H       1  UNL1        0.1564
      7 C           2.0601    1.1274   20.1380 C.ar    1  UNL1        0.0517
      8 C           2.6386    0.7354   18.8106 C.ar    1  UNL1        0.0162
      9 C           3.3255   -0.5888   18.6535 C.ar    1  UNL1        0.0188
     10 C           3.4341   -1.5210   19.8235 C.ar    1  UNL1        0.0656
     11 C           2.8556   -1.1290   21.1508 C.ar    1  UNL1        0.0188
     12 C           2.1687    0.1951   21.3080 C.ar    1  UNL1        0.0162
     13 N           4.1210   -2.8452   19.6663 N.ar    1  UNL1       -0.2864
     14 C           3.5520   -4.0593   18.9939 C.ar    1  UNL1        0.1022
     15 C           4.5769   -5.1522   19.0660 C.ar    1  UNL1        0.1196
     16 N           5.7793   -4.6135   19.7829 N.ar    1  UNL1       -0.2220
     17 C           5.4976   -3.1876   20.1540 C.ar    1  UNL1        0.1828
     18 N          -3.0493    3.7845   22.0603 N.ar    1  UNL1       -0.2162
     19 N          -4.5134    3.8928   21.7524 N.ar    1  UNL1       -0.1683
     20 C          -4.6638    4.0660   20.2700 C.ar    1  UNL1        0.0810
     21 C          -3.2926    4.0647   19.6617 C.ar    1  UNL1        0.0509
     22 C          -2.2949    3.8908   20.7682 C.ar    1  UNL1        0.1380
     23 C          -0.6349    3.0545   27.5043 C.3     1  UNL1        0.0310
     24 C          -1.2385    3.2370   26.1433 C.ar    1  UNL1       -0.0218
     25 C          -0.3959    3.0451   24.9173 C.ar    1  UNL1       -0.0027
     26 C          -0.9995    3.2276   23.5563 C.ar    1  UNL1        0.0189
     27 C          -2.4457    3.6020   23.4213 C.ar    1  UNL1        0.0842
     28 C          -3.2883    3.7939   24.6473 C.ar    1  UNL1        0.0189
     29 C          -2.6847    3.6114   26.0083 C.ar    1  UNL1       -0.0027
     30 C          -5.9580    4.2144   19.5265 C.3     1  UNL1        0.0372
     31 C          -6.6009    4.7794   20.7583 C.3     1  UNL1        0.0060
     32 C          -5.3151    3.6494   18.2946 C.3     1  UNL1        0.0060
     33 C          -7.2523    4.3628   18.7830 C.3     1  UNL1        0.0060
@<TRIPOS>BOND
     1    23    24    1
     2    24    25   ar
     3    25    26   ar
     4    26    27   ar
     5    27    18    1
     6    18    19   ar
     7    19    20   ar
     8    20    30    1
     9    30    31    1
    10    30    32    1
    11    30    33    1
    12    20    21   ar
    13    21    22   ar
    14    22     1    1
    15     1     2   am
    16     2     3    2
    17     2     4   am
    18     4     7    1
    19     7     8   ar
    20     8     9   ar
    21     9    10   ar
    22    10    13    1
    23    13    14   ar
    24    14    15   ar
    25    15    16   ar
    26    16    17   ar
    27    10    11   ar
    28    11    12   ar
    29    27    28   ar
    30    28    29   ar
    31    29    24   ar
    32    22    18   ar
    33    12     7   ar
    34    17    13   ar
    35     1     5    1
    36     4     6    1
@<TRIPOS>MOLECULE
*****
 33 36 0 0 0
SMALL
GASTEIGER

@<TRIPOS>ATOM
      1 N           0.5050    3.6113   23.0018 N.am    1  UNL1       -0.2533
      2 C           0.8626    2.8159   24.2221 C.2     1  UNL1        0.3092
      3 O          -0.1065    1.8127   24.7741 O.2     1  UNL1       -0.2521
      4 N           2.1892    3.0235   24.8907 N.am    1  UNL1       -0.2680
      5 H           1.1410    4.2698   22.6396 H       1  UNL1        0.1578
      6 H           2.8253    3.6819   24.5285 H       1  UNL1        0.1564
      7 C           2.5468    2.2280   26.1110 C.ar    1  UNL1        0.0517
      8 C           3.4503    1.0366   25.9915 C.ar    1  UNL1        0.0162
      9 C           3.8078    0.2411   27.2119 C.ar    1  UNL1        0.0188
     10 C           3.2619    0.6369   28.5518 C.ar    1  UNL1        0.0656
     11 C           2.3585    1.8283   28.6712 C.ar    1  UNL1        0.0188
     12 C           2.0009    2.6238   27.4509 C.ar    1  UNL1        0.0162
     13 N           3.6195   -0.1586   29.7721 N.ar    1  UNL1       -0.2864
     14 C           4.9682   -0.7362   30.0842 C.ar    1  UNL1        0.1022
     15 C           4.8734   -1.4508   31.3996 C.ar    1  UNL1        0.1196
     16 N           3.4661   -1.3149   31.9005 N.ar    1  UNL1       -0.2220
     17 C           2.6911   -0.5162   30.8947 C.ar    1  UNL1        0.1828
     18 N          -1.0591    2.6429   21.0626 N.ar    1  UNL1       -0.2162
     19 N          -2.5279    2.6894   20.7621 N.ar    1  UNL1       -0.1683
     20 C          -3.1983    3.4790   21.8471 C.ar    1  UNL1        0.0810
     21 C          -2.1437    3.9205   22.8181 C.ar    1  UNL1        0.0509
     22 C          -0.8216    3.4037   22.3333 C.ar    1  UNL1        0.1380
     23 C           3.1308   -0.1042   17.7613 C.3     1  UNL1        0.0310
     24 C           2.0833    0.5826   18.5866 C.ar    1  UNL1       -0.0218
     25 C           1.8513    2.0561   18.4291 C.ar    1  UNL1       -0.0027
     26 C           0.8038    2.7428   19.2544 C.ar    1  UNL1        0.0189
     27 C          -0.0116    1.9561   20.2372 C.ar    1  UNL1        0.0842
     28 C           0.2204    0.4826   20.3948 C.ar    1  UNL1        0.0189
     29 C           1.2679   -0.2042   19.5695 C.ar    1  UNL1       -0.0027
     30 C          -4.6656    3.7751   21.9440 C.3     1  UNL1        0.0372
     31 C          -4.6564    4.2823   20.5323 C.3     1  UNL1        0.0060
     32 C          -4.6747    3.2680   23.3556 C.3     1  UNL1        0.0060
     33 C          -6.1328    4.0713   22.0408 C.3     1  UNL1        0.0060
@<TRIPOS>BOND
     1    23    24    1
     2    24    25   ar
     3    25    26   ar
     4    26    27   ar
     5    27    18    1
     6    18    19   ar
     7    19    20   ar
     8    20    30    1
     9    30    31    1
    10    30    32    1
    11    30    33    1
    12    20    21   ar
    13    21    22   ar
    14    22     1    1
    15     1     2   am
    16     2     3    2
    17     2     4   am
    18     4     7    1
    19     7     8   ar
    20     8     9   ar
    21     9    10   ar
    22    10    13    1
    23    13    14   ar
    24    14    15   ar
    25    15    16   ar
    26    16    17   ar
    27    10    11   ar
    28    11    12   ar
    29    27    28   ar
    30    28    29   ar
    31    29    24   ar
    32    22    18   ar
    33    12     7   ar
    34    17    13   ar
    35     1     5    1
    36     4     6    1
@<TRIPOS>MOLECULE
*****
 33 36 0 0 0
SMALL
GASTEIGER

@<TRIPOS>ATOM
      1 N          -0.5313    4.3717   22.7219 N.am    1  UNL1       -0.2533
      2 C           0.2406    3.2759   22.0486 C.2     1  UNL1        0.3092
      3 O          -0.3637    1.9102   21.9077 O.2     1  UNL1       -0.2521
      4 N           1.6167    3.5456   21.5163 N.am    1  UNL1       -0.2680
      5 H          -0.1346    5.2680   22.8144 H       1  UNL1        0.1578
      6 H           2.0134    4.4419   21.6088 H       1  UNL1        0.1564
      7 C           2.3886    2.4497   20.8430 C.ar    1  UNL1        0.0517
      8 C           2.3033    2.2770   19.3554 C.ar    1  UNL1        0.0162
      9 C           3.0751    1.1811   18.6821 C.ar    1  UNL1        0.0188
     10 C           3.9322    0.2579   19.4964 C.ar    1  UNL1        0.0656
     11 C           4.0174    0.4306   20.9840 C.ar    1  UNL1        0.0188
     12 C           3.2456    1.5265   21.6572 C.ar    1  UNL1        0.0162
     13 N           4.7040   -0.8380   18.8231 N.ar    1  UNL1       -0.2864
     14 C           4.5191   -2.3102   19.0431 C.ar    1  UNL1        0.1022
     15 C           5.4970   -3.0362   18.1676 C.ar    1  UNL1        0.1196
     16 N           6.2864   -2.0127   17.4065 N.ar    1  UNL1       -0.2220
     17 C           5.7963   -0.6540   17.8116 C.ar    1  UNL1        0.1828
     18 N          -2.2341    3.4923   24.5852 N.ar    1  UNL1       -0.2162
     19 N          -3.7271    3.4082   24.7026 N.ar    1  UNL1       -0.1683
     20 C          -4.3232    3.9659   23.4442 C.ar    1  UNL1        0.0810
     21 C          -3.1986    4.3947   22.5490 C.ar    1  UNL1        0.0509
     22 C          -1.9075    4.1020   23.2542 C.ar    1  UNL1        0.1380
     23 C           1.7346    1.7039   28.7145 C.3     1  UNL1        0.0310
     24 C           0.7424    2.1510   27.6822 C.ar    1  UNL1       -0.0218
     25 C           0.5403    1.3412   26.4359 C.ar    1  UNL1       -0.0027
     26 C          -0.4518    1.7883   25.4036 C.ar    1  UNL1        0.0189
     27 C          -1.2419    3.0452   25.6175 C.ar    1  UNL1        0.0842
     28 C          -1.0399    3.8550   26.8639 C.ar    1  UNL1        0.0189
     29 C          -0.0477    3.4079   27.8962 C.ar    1  UNL1       -0.0027
     30 C          -5.7870    4.0755   23.1352 C.3     1  UNL1        0.0372
     31 C          -6.0805    4.2674   24.5936 C.3     1  UNL1        0.0060
     32 C          -5.4934    3.8837   21.6767 C.3     1  UNL1        0.0060
     33 C          -7.2507    4.1852   22.8262 C.3     1  UNL1        0.0060
@<TRIPOS>BOND
     1    23    24    1
     2    24    25   ar
     3    25    26   ar
     4    26    27   ar
     5    27    18    1
     6    18    19   ar
     7    19    20   ar
     8    20    30    1
     9    30    31    1
    10    30    32    1
    11    30    33    1
    12    20    21   ar
    13    21    22   ar
    14    22     1    1
    15     1     2   am
    16     2     3    2
    17     2     4   am
    18     4     7    1
    19     7     8   ar
    20     8     9   ar
    21     9    10   ar
    22    10    13    1
    23    13    14   ar
    24    14    15   ar
    25    15    16   ar
    26    16    17   ar
    27    10    11   ar
    28    11    12   ar
    29    27    28   ar
    30    28    29   ar
    31    29    24   ar
    32    22    18   ar
    33    12     7   ar
    34    17    13   ar
    35     1     5    1
    36     4     6    1
@<TRIPOS>MOLECULE
*****
 33 36 0 0 0
SMALL
GASTEIGER

@<TRIPOS>ATOM
      1 N           2.2545    1.7766   22.3257 N.am    1  UNL1       -0.2533
      2 C           0.7885    2.0897   22.3759 C.2     1  UNL1        0.3092
      3 O          -0.1696    1.3374   21.5005 O.2     1  UNL1       -0.2521
      4 N           0.2803    3.1552   23.3014 N.am    1  UNL1       -0.2680
      5 H           2.8833    2.2704   22.9002 H       1  UNL1        0.1578
      6 H           0.9091    3.6490   23.8760 H       1  UNL1        0.1564
      7 C          -1.1858    3.4682   23.3516 C.ar    1  UNL1        0.0517
      8 C          -1.8843    3.9866   22.1295 C.ar    1  UNL1        0.0162
      9 C          -3.3504    4.2996   22.1797 C.ar    1  UNL1        0.0188
     10 C          -4.1180    4.0944   23.4519 C.ar    1  UNL1        0.0656
     11 C          -3.4195    3.5761   24.6740 C.ar    1  UNL1        0.0188
     12 C          -1.9534    3.2630   24.6238 C.ar    1  UNL1        0.0162
     13 N          -5.5841    4.4075   23.5021 N.ar    1  UNL1       -0.2864
     14 C          -6.3426    4.8875   24.7039 C.ar    1  UNL1        0.1022
     15 C          -7.7764    5.0722   24.3038 C.ar    1  UNL1        0.1196
     16 N          -7.9041    4.7064   22.8547 N.ar    1  UNL1       -0.2220
     17 C          -6.5492    4.2955   22.3592 C.ar    1  UNL1        0.1828
     18 N           3.0839    0.8867   19.9455 N.ar    1  UNL1       -0.2162
     19 N           3.5585   -0.4329   19.4131 N.ar    1  UNL1       -0.1683
     20 C           3.5307   -1.4239   20.5387 C.ar    1  UNL1        0.0810
     21 C           3.0388   -0.7169   21.7668 C.ar    1  UNL1        0.0509
     22 C           2.7627    0.7112   21.4001 C.ar    1  UNL1        0.1380
     23 C           2.5617    5.9739   16.8073 C.3     1  UNL1        0.0310
     24 C           2.6922    4.7021   17.5919 C.ar    1  UNL1       -0.0218
     25 C           1.4635    3.9661   18.0372 C.ar    1  UNL1       -0.0027
     26 C           1.5940    2.6943   18.8217 C.ar    1  UNL1        0.0189
     27 C           2.9533    2.1585   19.1609 C.ar    1  UNL1        0.0842
     28 C           4.1821    2.8945   18.7156 C.ar    1  UNL1        0.0189
     29 C           4.0516    4.1663   17.9311 C.ar    1  UNL1       -0.0027
     30 C           3.9255   -2.8684   20.4516 C.3     1  UNL1        0.0372
     31 C           3.5911   -2.8716   18.9893 C.3     1  UNL1        0.0060
     32 C           4.2599   -2.8653   21.9138 C.3     1  UNL1        0.0060
     33 C           4.3202   -4.3129   20.3644 C.3     1  UNL1        0.0060
@<TRIPOS>BOND
     1    23    24    1
     2    24    25   ar
     3    25    26   ar
     4    26    27   ar
     5    27    18    1
     6    18    19   ar
     7    19    20   ar
     8    20    30    1
     9    30    31    1
    10    30    32    1
    11    30    33    1
    12    20    21   ar
    13    21    22   ar
    14    22     1    1
    15     1     2   am
    16     2     3    2
    17     2     4   am
    18     4     7    1
    19     7     8   ar
    20     8     9   ar
    21     9    10   ar
    22    10    13    1
    23    13    14   ar
    24    14    15   ar
    25    15    16   ar
    26    16    17   ar
    27    10    11   ar
    28    11    12   ar
    29    27    28   ar
    30    28    29   ar
    31    29    24   ar
    32    22    18   ar
    33    12     7   ar
    34    17    13   ar
    35     1     5    1
    36     4     6    1
@<TRIPOS>MOLECULE
*****
 33 36 0 0 0
SMALL
GASTEIGER

@<TRIPOS>ATOM
      1 N           2.2250    1.0605   19.6866 N.am    1  UNL1       -0.2533
      2 C           0.9203    1.3929   20.3476 C.2     1  UNL1        0.3092
      3 O           0.3125    0.4368   21.3308 O.2     1  UNL1       -0.2521
      4 N           0.2231    2.6815   20.0256 N.am    1  UNL1       -0.2680
      5 H           2.6239    1.6880   19.0414 H       1  UNL1        0.1578
      6 H           0.6220    3.3090   19.3803 H       1  UNL1        0.1564
      7 C          -1.0816    3.0138   20.6867 C.ar    1  UNL1        0.0517
      8 C          -1.1280    3.2833   22.1615 C.ar    1  UNL1        0.0162
      9 C          -2.4328    3.6156   22.8226 C.ar    1  UNL1        0.0188
     10 C          -3.6912    3.6786   22.0089 C.ar    1  UNL1        0.0656
     11 C          -3.6449    3.4092   20.5340 C.ar    1  UNL1        0.0188
     12 C          -2.3401    3.0768   19.8730 C.ar    1  UNL1        0.0162
     13 N          -4.9960    4.0110   22.6700 N.ar    1  UNL1       -0.2864
     14 C          -6.2873    4.3141   21.9695 C.ar    1  UNL1        0.1022
     15 C          -7.3280    4.5891   23.0142 C.ar    1  UNL1        0.1196
     16 N          -6.6799    4.4559   24.3604 N.ar    1  UNL1       -0.2220
     17 C          -5.2386    4.0986   24.1476 C.ar    1  UNL1        0.1828
     18 N           3.4704   -0.6231   21.3478 N.ar    1  UNL1       -0.2162
     19 N           4.0805   -1.9869   21.2148 N.ar    1  UNL1       -0.1683
     20 C           3.9094   -2.4347   19.7935 C.ar    1  UNL1        0.0810
     21 C           3.1935   -1.3477   19.0480 C.ar    1  UNL1        0.0509
     22 C           2.9222   -0.2280   20.0087 C.ar    1  UNL1        0.1380
     23 C           3.2597    2.6731   26.3569 C.3     1  UNL1        0.0310
     24 C           3.3123    1.8490   25.1046 C.ar    1  UNL1       -0.0218
     25 C           4.0450    2.3611   23.9001 C.ar    1  UNL1       -0.0027
     26 C           4.0977    1.5371   22.6478 C.ar    1  UNL1        0.0189
     27 C           3.4177    0.2009   22.6001 C.ar    1  UNL1        0.0842
     28 C           2.6850   -0.3111   23.8046 C.ar    1  UNL1        0.0189
     29 C           2.6323    0.5129   25.0569 C.ar    1  UNL1       -0.0027
     30 C           4.3728   -3.7404   19.2186 C.3     1  UNL1        0.0372
     31 C           2.9546   -4.2276   19.1818 C.3     1  UNL1        0.0060
     32 C           5.7910   -3.2532   19.2553 C.3     1  UNL1        0.0060
     33 C           4.8362   -5.0460   18.6437 C.3     1  UNL1        0.0060
@<TRIPOS>BOND
     1    23    24    1
     2    24    25   ar
     3    25    26   ar
     4    26    27   ar
     5    27    18    1
     6    18    19   ar
     7    19    20   ar
     8    20    30    1
     9    30    31    1
    10    30    32    1
    11    30    33    1
    12    20    21   ar
    13    21    22   ar
    14    22     1    1
    15     1     2   am
    16     2     3    2
    17     2     4   am
    18     4     7    1
    19     7     8   ar
    20     8     9   ar
    21     9    10   ar
    22    10    13    1
    23    13    14   ar
    24    14    15   ar
    25    15    16   ar
    26    16    17   ar
    27    10    11   ar
    28    11    12   ar
    29    27    28   ar
    30    28    29   ar
    31    29    24   ar
    32    22    18   ar
    33    12     7   ar
    34    17    13   ar
    35     1     5    1
    36     4     6    1
