@<TRIPOS>MOLECULE
*****
 31 34 0 0 0
SMALL
GASTEIGER

@<TRIPOS>ATOM
      1 C           7.9769   -4.7874   28.2876 C.ar    1  UNL1        0.1056
      2 C           8.1351   -5.8111   27.2027 C.ar    1  UNL1        0.0214
      3 C           7.5055   -5.5847   25.8603 C.ar    1  UNL1        0.0379
      4 C           6.7176   -4.3345   25.6027 C.ar    1  UNL1        0.1342
      5 C           6.5594   -3.3108   26.6875 C.ar    1  UNL1        0.0132
      6 C           7.1891   -3.5373   28.0300 C.ar    1  UNL1        0.0171
      7 C           5.7715   -2.0606   26.4300 C.3     1  UNL1        0.0330
      8 C           5.1418   -1.8341   25.0875 C.3     1  UNL1        0.0449
      9 C           5.3000   -2.8578   24.0026 C.3     1  UNL1        0.1367
     10 C           4.5122   -1.6077   23.7450 C.3     1  UNL1        0.0616
     11 C           3.8825   -1.3813   22.4026 C.3     1  UNL1        0.0973
     12 N           4.0407   -2.4050   21.3177 N.am    1  UNL1       -0.2758
     13 C           3.4109   -2.1785   19.9752 C.2     1  UNL1        0.2490
     14 O           3.5691   -3.2022   18.8903 O.2     1  UNL1       -0.2699
     15 C           4.8285   -3.6551   21.5753 C.3     1  UNL1        0.0973
     16 C           5.4582   -3.8816   22.9177 C.3     1  UNL1        0.0616
     17 O           6.0879   -4.1080   24.2602 O.3     1  UNL1       -0.4828
     18 C           2.6231   -0.9283   19.7177 C.ar    1  UNL1        0.0536
     19 C           1.2208   -0.8054   20.2358 C.ar    1  UNL1        0.0045
     20 C           0.4330    0.4448   19.9782 C.ar    1  UNL1        0.0040
     21 C           1.0474    1.5721   19.2025 C.ar    1  UNL1        0.0714
     22 C           2.4497    1.4492   18.6844 C.ar    1  UNL1        0.0040
     23 C           3.2376    0.1990   18.9419 C.ar    1  UNL1        0.0045
     24 C           0.2596    2.8222   18.9450 C.3     1  UNL1        0.4186
     25 F          -0.5283    4.0725   18.6874 F       1  UNL1       -0.1659
     26 F          -0.7708    2.3779   19.9403 F       1  UNL1       -0.1659
     27 F           1.2900    3.2665   17.9496 F       1  UNL1       -0.1659
     28 C           9.2363   -5.2403   30.9725 C.3     1  UNL1        0.1816
     29 S           8.6066   -5.0138   29.6300 S.O2    1  UNL1        0.0104
     30 O           7.6796   -6.1683   29.8701 O.2     1  UNL1       -0.1686
     31 O           9.5337   -3.8594   29.3899 O.2     1  UNL1       -0.1686
@<TRIPOS>BOND
     1    28    29    1
     2    29    30    2
     3    29    31    2
     4    29     1    1
     5     1     2   ar
     6     2     3   ar
     7     3     4   ar
     8     4     5   ar
     9     5     6   ar
    10     5     7    1
    11     7     8    1
    12     8     9    1
    13     9    10    1
    14    10    11    1
    15    11    12    1
    16    12    13   am
    17    13    14    2
    18    13    18    1
    19    18    19   ar
    20    19    20   ar
    21    20    21   ar
    22    21    24    1
    23    24    25    1
    24    24    26    1
    25    24    27    1
    26    21    22   ar
    27    22    23   ar
    28    12    15    1
    29    15    16    1
    30     9    17    1
    31     6     1   ar
    32    16     9    1
    33    17     4    1
    34    23    18   ar
@<TRIPOS>MOLECULE
*****
 31 34 0 0 0
SMALL
GASTEIGER

@<TRIPOS>ATOM
      1 C           5.5373   -1.6197   32.6135 C.ar    1  UNL1        0.1056
      2 C           6.4095   -2.8272   32.4372 C.ar    1  UNL1        0.0214
      3 C           6.6843   -3.3597   31.0622 C.ar    1  UNL1        0.0379
      4 C           6.0868   -2.6847   29.8632 C.ar    1  UNL1        0.1342
      5 C           5.2145   -1.4772   30.0394 C.ar    1  UNL1        0.0132
      6 C           4.9397   -0.9447   31.4146 C.ar    1  UNL1        0.0171
      7 C           4.6169   -0.8022   28.8406 C.3     1  UNL1        0.0330
      8 C           4.8917   -1.3347   27.4654 C.3     1  UNL1        0.0449
      9 C           5.7640   -2.5422   27.2892 C.3     1  UNL1        0.1367
     10 C           5.1665   -1.8672   26.0903 C.3     1  UNL1        0.0616
     11 C           5.4412   -2.3997   24.7152 C.3     1  UNL1        0.0973
     12 N           6.3135   -3.6072   24.5390 N.am    1  UNL1       -0.2758
     13 C           6.5882   -4.1397   23.1638 C.2     1  UNL1        0.2490
     14 O           7.4605   -5.3472   22.9876 O.2     1  UNL1       -0.2699
     15 C           6.9110   -4.2822   25.7379 C.3     1  UNL1        0.0973
     16 C           6.6363   -3.7497   27.1129 C.3     1  UNL1        0.0616
     17 O           6.3615   -3.2172   28.4881 O.3     1  UNL1       -0.4828
     18 C           5.9907   -3.4647   21.9650 C.ar    1  UNL1        0.0536
     19 C           6.7732   -2.4213   21.2241 C.ar    1  UNL1        0.0045
     20 C           6.1756   -1.7462   20.0252 C.ar    1  UNL1        0.0040
     21 C           4.7956   -2.1147   19.5672 C.ar    1  UNL1        0.0714
     22 C           4.0131   -3.1581   20.3081 C.ar    1  UNL1        0.0040
     23 C           4.6106   -3.8331   21.5070 C.ar    1  UNL1        0.0045
     24 C           4.1981   -1.4397   18.3684 C.3     1  UNL1        0.4186
     25 F           3.6005   -0.7646   17.1695 F       1  UNL1       -0.1659
     26 F           5.4873   -1.6212   17.6236 F       1  UNL1       -0.1659
     27 F           2.9088   -1.2581   19.1132 F       1  UNL1       -0.1659
     28 C           4.9878   -0.5546   35.3637 C.3     1  UNL1        0.1816
     29 S           5.2625   -1.0872   33.9885 S.O2    1  UNL1        0.0104
     30 O           3.9255   -1.7672   33.9847 O.2     1  UNL1       -0.1686
     31 O           6.5995   -0.4072   33.9924 O.2     1  UNL1       -0.1686
@<TRIPOS>BOND
     1    28    29    1
     2    29    30    2
     3    29    31    2
     4    29     1    1
     5     1     2   ar
     6     2     3   ar
     7     3     4   ar
     8     4     5   ar
     9     5     6   ar
    10     5     7    1
    11     7     8    1
    12     8     9    1
    13     9    10    1
    14    10    11    1
    15    11    12    1
    16    12    13   am
    17    13    14    2
    18    13    18    1
    19    18    19   ar
    20    19    20   ar
    21    20    21   ar
    22    21    24    1
    23    24    25    1
    24    24    26    1
    25    24    27    1
    26    21    22   ar
    27    22    23   ar
    28    12    15    1
    29    15    16    1
    30     9    17    1
    31     6     1   ar
    32    16     9    1
    33    17     4    1
    34    23    18   ar
@<TRIPOS>MOLECULE
*****
 31 34 0 0 0
SMALL
GASTEIGER

@<TRIPOS>ATOM
      1 C           8.3998   -6.8788   25.9711 C.ar    1  UNL1        0.1056
      2 C           9.0622   -7.2812   24.6868 C.ar    1  UNL1        0.0214
      3 C           8.7576   -6.5371   23.4206 C.ar    1  UNL1        0.0379
      4 C           7.7905   -5.3906   23.4385 C.ar    1  UNL1        0.1342
      5 C           7.1281   -4.9882   24.7227 C.ar    1  UNL1        0.0132
      6 C           7.4327   -5.7324   25.9890 C.ar    1  UNL1        0.0171
      7 C           6.1610   -3.8418   24.7407 C.3     1  UNL1        0.0330
      8 C           5.8563   -3.0976   23.4743 C.3     1  UNL1        0.0449
      9 C           6.5188   -3.5000   22.1901 C.3     1  UNL1        0.1367
     10 C           5.5517   -2.3535   22.2081 C.3     1  UNL1        0.0616
     11 C           5.2471   -1.6095   20.9418 C.3     1  UNL1        0.0973
     12 N           5.9095   -2.0118   19.6576 N.am    1  UNL1       -0.2758
     13 C           5.6048   -1.2677   18.3912 C.2     1  UNL1        0.2490
     14 O           6.2673   -1.6701   17.1070 O.2     1  UNL1       -0.2699
     15 C           6.8766   -3.1583   19.6396 C.3     1  UNL1        0.0973
     16 C           7.1812   -3.9024   20.9059 C.3     1  UNL1        0.0616
     17 O           7.4859   -4.6465   22.1722 O.3     1  UNL1       -0.4828
     18 C           4.6378   -0.1212   18.4092 C.ar    1  UNL1        0.0536
     19 C           3.1718   -0.3735   18.2158 C.ar    1  UNL1        0.0045
     20 C           2.2048    0.7731   18.2338 C.ar    1  UNL1        0.0040
     21 C           2.7036    2.1718   18.4451 C.ar    1  UNL1        0.0714
     22 C           4.1696    2.4240   18.6385 C.ar    1  UNL1        0.0040
     23 C           5.1366    1.2776   18.6206 C.ar    1  UNL1        0.0045
     24 C           1.7366    3.3183   18.4631 C.3     1  UNL1        0.4186
     25 F           0.7695    4.4648   18.4810 F       1  UNL1       -0.1659
     26 F           0.8017    2.5162   19.3190 F       1  UNL1       -0.1659
     27 F           2.6715    4.1203   17.6072 F       1  UNL1       -0.1659
     28 C           9.0091   -8.3670   28.5037 C.3     1  UNL1        0.1816
     29 S           8.7044   -7.6229   27.2373 S.O2    1  UNL1        0.0104
     30 O           7.9003   -8.7896   26.7452 O.2     1  UNL1       -0.1686
     31 O           9.5086   -6.4563   27.7294 O.2     1  UNL1       -0.1686
@<TRIPOS>BOND
     1    28    29    1
     2    29    30    2
     3    29    31    2
     4    29     1    1
     5     1     2   ar
     6     2     3   ar
     7     3     4   ar
     8     4     5   ar
     9     5     6   ar
    10     5     7    1
    11     7     8    1
    12     8     9    1
    13     9    10    1
    14    10    11    1
    15    11    12    1
    16    12    13   am
    17    13    14    2
    18    13    18    1
    19    18    19   ar
    20    19    20   ar
    21    20    21   ar
    22    21    24    1
    23    24    25    1
    24    24    26    1
    25    24    27    1
    26    21    22   ar
    27    22    23   ar
    28    12    15    1
    29    15    16    1
    30     9    17    1
    31     6     1   ar
    32    16     9    1
    33    17     4    1
    34    23    18   ar
@<TRIPOS>MOLECULE
*****
 31 34 0 0 0
SMALL
GASTEIGER

@<TRIPOS>ATOM
      1 C           4.8294   -2.6262   21.6518 C.ar    1  UNL1        0.1056
      2 C           5.8806   -3.6568   21.9398 C.ar    1  UNL1        0.0214
      3 C           6.3454   -3.8807   23.3483 C.ar    1  UNL1        0.0379
      4 C           5.7589   -3.0741   24.4688 C.ar    1  UNL1        0.1342
      5 C           4.7077   -2.0436   24.1808 C.ar    1  UNL1        0.0132
      6 C           4.2430   -1.8196   22.7722 C.ar    1  UNL1        0.0171
      7 C           4.1212   -1.2370   25.3012 C.3     1  UNL1        0.0330
      8 C           4.5860   -1.4609   26.7098 C.3     1  UNL1        0.0449
      9 C           5.6372   -2.4914   26.9978 C.3     1  UNL1        0.1367
     10 C           5.0507   -1.6848   28.1182 C.3     1  UNL1        0.0616
     11 C           5.5155   -1.9088   29.5267 C.3     1  UNL1        0.0973
     12 N           6.5667   -2.9393   29.8147 N.am    1  UNL1       -0.2758
     13 C           7.0315   -3.1632   31.2233 C.2     1  UNL1        0.2490
     14 O           8.0827   -4.1938   31.5113 O.2     1  UNL1       -0.2699
     15 C           7.1532   -3.7459   28.6943 C.3     1  UNL1        0.0973
     16 C           6.6884   -3.5220   27.2858 C.3     1  UNL1        0.0616
     17 O           6.2237   -3.2980   25.8773 O.3     1  UNL1       -0.4828
     18 C           6.4450   -2.3566   32.3437 C.ar    1  UNL1        0.0536
     19 C           5.0705   -2.6716   32.8550 C.ar    1  UNL1        0.0045
     20 C           4.4840   -1.8649   33.9755 C.ar    1  UNL1        0.0040
     21 C           5.2721   -0.7434   34.5846 C.ar    1  UNL1        0.0714
     22 C           6.6466   -0.4285   34.0733 C.ar    1  UNL1        0.0040
     23 C           7.2331   -1.2350   32.9529 C.ar    1  UNL1        0.0045
     24 C           4.6856    0.0632   35.7051 C.3     1  UNL1        0.4186
     25 F           4.0992    0.8698   36.8256 F       1  UNL1       -0.1659
     26 F           3.7259    0.7001   34.7442 F       1  UNL1       -0.1659
     27 F           5.6453   -0.5737   36.6659 F       1  UNL1       -0.1659
     28 C           3.8998   -2.1783   18.8348 C.3     1  UNL1        0.1816
     29 S           4.3647   -2.4023   20.2433 S.O2    1  UNL1        0.0104
     30 O           5.5563   -3.1552   19.7304 O.2     1  UNL1       -0.1686
     31 O           3.1730   -1.6494   20.7562 O.2     1  UNL1       -0.1686
@<TRIPOS>BOND
     1    28    29    1
     2    29    30    2
     3    29    31    2
     4    29     1    1
     5     1     2   ar
     6     2     3   ar
     7     3     4   ar
     8     4     5   ar
     9     5     6   ar
    10     5     7    1
    11     7     8    1
    12     8     9    1
    13     9    10    1
    14    10    11    1
    15    11    12    1
    16    12    13   am
    17    13    14    2
    18    13    18    1
    19    18    19   ar
    20    19    20   ar
    21    20    21   ar
    22    21    24    1
    23    24    25    1
    24    24    26    1
    25    24    27    1
    26    21    22   ar
    27    22    23   ar
    28    12    15    1
    29    15    16    1
    30     9    17    1
    31     6     1   ar
    32    16     9    1
    33    17     4    1
    34    23    18   ar
@<TRIPOS>MOLECULE
*****
 31 34 0 0 0
SMALL
GASTEIGER

@<TRIPOS>ATOM
      1 C           4.4545    3.4132   39.0135 C.ar    1  UNL1        0.1056
      2 C           5.1802    2.1458   38.6717 C.ar    1  UNL1        0.0214
      3 C           4.9582    1.4899   37.3411 C.ar    1  UNL1        0.0379
      4 C           4.0105    2.1015   36.3522 C.ar    1  UNL1        0.1342
      5 C           3.2848    3.3690   36.6940 C.ar    1  UNL1        0.0132
      6 C           3.5068    4.0248   38.0247 C.ar    1  UNL1        0.0171
      7 C           2.3371    3.9806   35.7052 C.3     1  UNL1        0.0330
      8 C           2.1151    3.3247   34.3745 C.3     1  UNL1        0.0449
      9 C           2.8408    2.0572   34.0327 C.3     1  UNL1        0.1367
     10 C           1.8931    2.6688   33.0439 C.3     1  UNL1        0.0616
     11 C           1.6712    2.0130   31.7134 C.3     1  UNL1        0.0973
     12 N           2.3969    0.7455   31.3716 N.am    1  UNL1       -0.2758
     13 C           2.1749    0.0896   30.0409 C.2     1  UNL1        0.2490
     14 O           2.9006   -1.1779   29.6991 O.2     1  UNL1       -0.2699
     15 C           3.3446    0.1339   32.3604 C.3     1  UNL1        0.0973
     16 C           3.5665    0.7898   33.6910 C.3     1  UNL1        0.0616
     17 O           3.7885    1.4456   35.0216 O.3     1  UNL1       -0.4828
     18 C           1.2272    0.7012   29.0521 C.ar    1  UNL1        0.0536
     19 C           1.7257    1.7108   28.0610 C.ar    1  UNL1        0.0045
     20 C           0.7780    2.3224   27.0721 C.ar    1  UNL1        0.0040
     21 C          -0.6682    1.9245   27.0744 C.ar    1  UNL1        0.0714
     22 C          -1.1668    0.9149   28.0655 C.ar    1  UNL1        0.0040
     23 C          -0.2191    0.3033   29.0543 C.ar    1  UNL1        0.0045
     24 C          -1.6159    2.5361   26.0856 C.3     1  UNL1        0.4186
     25 F          -2.5637    3.1477   25.0968 F       1  UNL1       -0.1659
     26 F          -0.7632    2.0345   24.9582 F       1  UNL1       -0.1659
     27 F          -2.4686    3.0376   27.2131 F       1  UNL1       -0.1659
     28 C           4.8984    4.7250   41.6748 C.3     1  UNL1        0.1816
     29 S           4.6764    4.0691   40.3441 S.O2    1  UNL1        0.0104
     30 O           3.9124    5.2729   39.8782 O.2     1  UNL1       -0.1686
     31 O           5.4405    2.8653   40.8100 O.2     1  UNL1       -0.1686
@<TRIPOS>BOND
     1    28    29    1
     2    29    30    2
     3    29    31    2
     4    29     1    1
     5     1     2   ar
     6     2     3   ar
     7     3     4   ar
     8     4     5   ar
     9     5     6   ar
    10     5     7    1
    11     7     8    1
    12     8     9    1
    13     9    10    1
    14    10    11    1
    15    11    12    1
    16    12    13   am
    17    13    14    2
    18    13    18    1
    19    18    19   ar
    20    19    20   ar
    21    20    21   ar
    22    21    24    1
    23    24    25    1
    24    24    26    1
    25    24    27    1
    26    21    22   ar
    27    22    23   ar
    28    12    15    1
    29    15    16    1
    30     9    17    1
    31     6     1   ar
    32    16     9    1
    33    17     4    1
    34    23    18   ar
@<TRIPOS>MOLECULE
*****
 31 34 0 0 0
SMALL
GASTEIGER

@<TRIPOS>ATOM
      1 C           1.2626    1.2798   19.7645 C.ar    1  UNL1        0.1056
      2 C           2.1161    0.8153   18.6218 C.ar    1  UNL1        0.0214
      3 C           3.2137   -0.1786   18.8611 C.ar    1  UNL1        0.0379
      4 C           3.4579   -0.7082   20.2432 C.ar    1  UNL1        0.1342
      5 C           2.6044   -0.2437   21.3859 C.ar    1  UNL1        0.0132
      6 C           1.5067    0.7503   21.1465 C.ar    1  UNL1        0.0171
      7 C           2.8484   -0.7732   22.7679 C.3     1  UNL1        0.0330
      8 C           3.9461   -1.7672   23.0073 C.3     1  UNL1        0.0449
      9 C           4.7996   -2.2317   21.8645 C.3     1  UNL1        0.1367
     10 C           5.0437   -2.7611   23.2465 C.3     1  UNL1        0.0616
     11 C           6.1413   -3.7551   23.4858 C.3     1  UNL1        0.0973
     12 N           6.9948   -4.2195   22.3431 N.am    1  UNL1       -0.2758
     13 C           8.0924   -5.2135   22.5825 C.2     1  UNL1        0.2490
     14 O           8.9460   -5.6780   21.4398 O.2     1  UNL1       -0.2699
     15 C           6.7507   -3.6900   20.9611 C.3     1  UNL1        0.0973
     16 C           5.6531   -2.6961   20.7218 C.3     1  UNL1        0.0616
     17 O           4.5555   -1.7021   20.4825 O.3     1  UNL1       -0.4828
     18 C           8.3365   -5.7430   23.9645 C.ar    1  UNL1        0.0536
     19 C           8.8098   -4.8204   25.0484 C.ar    1  UNL1        0.0045
     20 C           9.0539   -5.3500   26.4305 C.ar    1  UNL1        0.0040
     21 C           8.8247   -6.8021   26.7286 C.ar    1  UNL1        0.0714
     22 C           8.3514   -7.7247   25.6447 C.ar    1  UNL1        0.0040
     23 C           8.1074   -7.1952   24.2627 C.ar    1  UNL1        0.0045
     24 C           9.0688   -7.3316   28.1106 C.3     1  UNL1        0.4186
     25 F           9.3129   -7.8611   29.4927 F       1  UNL1       -0.1659
     26 F           8.8977   -8.7330   27.6039 F       1  UNL1       -0.1659
     27 F           9.2399   -5.9302   28.6173 F       1  UNL1       -0.1659
     28 C          -0.9326    3.2677   19.2859 C.3     1  UNL1        0.1816
     29 S           0.1650    2.2737   19.5252 S.O2    1  UNL1        0.0104
     30 O          -0.6200    1.6793   20.6567 O.2     1  UNL1       -0.1686
     31 O           0.9500    2.8682   18.3937 O.2     1  UNL1       -0.1686
@<TRIPOS>BOND
     1    28    29    1
     2    29    30    2
     3    29    31    2
     4    29     1    1
     5     1     2   ar
     6     2     3   ar
     7     3     4   ar
     8     4     5   ar
     9     5     6   ar
    10     5     7    1
    11     7     8    1
    12     8     9    1
    13     9    10    1
    14    10    11    1
    15    11    12    1
    16    12    13   am
    17    13    14    2
    18    13    18    1
    19    18    19   ar
    20    19    20   ar
    21    20    21   ar
    22    21    24    1
    23    24    25    1
    24    24    26    1
    25    24    27    1
    26    21    22   ar
    27    22    23   ar
    28    12    15    1
    29    15    16    1
    30     9    17    1
    31     6     1   ar
    32    16     9    1
    33    17     4    1
    34    23    18   ar
@<TRIPOS>MOLECULE
*****
 31 34 0 0 0
SMALL
GASTEIGER

@<TRIPOS>ATOM
      1 C          -6.0963    5.8332   25.9736 C.ar    1  UNL1        0.1056
      2 C          -6.6653    6.2697   24.6561 C.ar    1  UNL1        0.0214
      3 C          -5.9350    5.9580   23.3835 C.ar    1  UNL1        0.0379
      4 C          -4.6357    5.2097   23.4283 C.ar    1  UNL1        0.1342
      5 C          -4.0667    4.7733   24.7458 C.ar    1  UNL1        0.0132
      6 C          -4.7970    5.0850   26.0184 C.ar    1  UNL1        0.0171
      7 C          -2.7674    4.0251   24.7907 C.3     1  UNL1        0.0330
      8 C          -2.0371    3.7133   23.5181 C.3     1  UNL1        0.0449
      9 C          -2.6061    4.1498   22.2006 C.3     1  UNL1        0.1367
     10 C          -1.3068    3.4016   22.2455 C.3     1  UNL1        0.0616
     11 C          -0.5765    3.0899   20.9729 C.3     1  UNL1        0.0973
     12 N          -1.1455    3.5264   19.6555 N.am    1  UNL1       -0.2758
     13 C          -0.4152    3.2146   18.3828 C.2     1  UNL1        0.2490
     14 O          -0.9842    3.6511   17.0654 O.2     1  UNL1       -0.2699
     15 C          -2.4448    4.2746   19.6106 C.3     1  UNL1        0.0973
     16 C          -3.1751    4.5863   20.8831 C.3     1  UNL1        0.0616
     17 O          -3.9054    4.8980   22.1558 O.3     1  UNL1       -0.4828
     18 C           0.8841    2.4664   18.4277 C.ar    1  UNL1        0.0536
     19 C           2.1822    3.2178   18.4386 C.ar    1  UNL1        0.0045
     20 C           3.4816    2.4695   18.4835 C.ar    1  UNL1        0.0040
     21 C           3.4826    0.9700   18.5175 C.ar    1  UNL1        0.0714
     22 C           2.1845    0.2186   18.5066 C.ar    1  UNL1        0.0040
     23 C           0.8852    0.9668   18.4618 C.ar    1  UNL1        0.0045
     24 C           4.7819    0.2218   18.5624 C.3     1  UNL1        0.4186
     25 F           6.0813   -0.5264   18.6072 F       1  UNL1       -0.1659
     26 F           4.1587   -0.8068   19.4588 F       1  UNL1       -0.1659
     27 F           5.4052    1.2503   17.6660 F       1  UNL1       -0.1659
     28 C          -7.5569    6.4567   28.5188 C.3     1  UNL1        0.1816
     29 S          -6.8265    6.1449   27.2461 S.O2    1  UNL1        0.0104
     30 O          -5.5329    6.0855   28.0030 O.2     1  UNL1       -0.1686
     31 O          -8.1201    6.2044   26.4892 O.2     1  UNL1       -0.1686
@<TRIPOS>BOND
     1    28    29    1
     2    29    30    2
     3    29    31    2
     4    29     1    1
     5     1     2   ar
     6     2     3   ar
     7     3     4   ar
     8     4     5   ar
     9     5     6   ar
    10     5     7    1
    11     7     8    1
    12     8     9    1
    13     9    10    1
    14    10    11    1
    15    11    12    1
    16    12    13   am
    17    13    14    2
    18    13    18    1
    19    18    19   ar
    20    19    20   ar
    21    20    21   ar
    22    21    24    1
    23    24    25    1
    24    24    26    1
    25    24    27    1
    26    21    22   ar
    27    22    23   ar
    28    12    15    1
    29    15    16    1
    30     9    17    1
    31     6     1   ar
    32    16     9    1
    33    17     4    1
    34    23    18   ar
@<TRIPOS>MOLECULE
*****
 31 34 0 0 0
SMALL
GASTEIGER

@<TRIPOS>ATOM
      1 C           6.4518   -2.5148   20.2128 C.ar    1  UNL1        0.1056
      2 C           6.6699   -1.5456   19.0889 C.ar    1  UNL1        0.0214
      3 C           5.6222   -0.5214   18.7678 C.ar    1  UNL1        0.0379
      4 C           4.3562   -0.4662   19.5705 C.ar    1  UNL1        0.1342
      5 C           4.1381   -1.4354   20.6944 C.ar    1  UNL1        0.0132
      6 C           5.1859   -2.4597   21.0155 C.ar    1  UNL1        0.0171
      7 C           2.8722   -1.3803   21.4972 C.3     1  UNL1        0.0330
      8 C           1.8244   -0.3561   21.1760 C.3     1  UNL1        0.0449
      9 C           2.0426    0.6131   20.0522 C.3     1  UNL1        0.1367
     10 C           0.7767    0.6682   20.8549 C.3     1  UNL1        0.0616
     11 C          -0.2710    1.6924   20.5338 C.3     1  UNL1        0.0973
     12 N          -0.0529    2.6616   19.4099 N.am    1  UNL1       -0.2758
     13 C          -1.1007    3.6859   19.0888 C.2     1  UNL1        0.2490
     14 O          -0.8825    4.6550   17.9649 O.2     1  UNL1       -0.2699
     15 C           1.2130    2.6065   18.6072 C.3     1  UNL1        0.0973
     16 C           2.2607    1.5823   18.9283 C.3     1  UNL1        0.0616
     17 O           3.3085    0.5580   19.2494 O.3     1  UNL1       -0.4828
     18 C          -2.3666    3.7409   19.8915 C.ar    1  UNL1        0.0536
     19 C          -2.3051    3.9510   21.3755 C.ar    1  UNL1        0.0045
     20 C          -3.5711    4.0060   22.1782 C.ar    1  UNL1        0.0040
     21 C          -4.8984    3.8511   21.4970 C.ar    1  UNL1        0.0714
     22 C          -4.9599    3.6410   20.0131 C.ar    1  UNL1        0.0040
     23 C          -3.6940    3.5860   19.2103 C.ar    1  UNL1        0.0045
     24 C          -6.1643    3.9061   22.2998 C.3     1  UNL1        0.4186
     25 F          -7.4303    3.9612   23.1025 F       1  UNL1       -0.1659
     26 F          -5.4448    3.3136   23.4750 F       1  UNL1       -0.1659
     27 F          -6.8838    4.4987   21.1246 F       1  UNL1       -0.1659
     28 C           8.5473   -4.5633   20.8550 C.3     1  UNL1        0.1816
     29 S           7.4995   -3.5390   20.5339 S.O2    1  UNL1        0.0104
     30 O           6.5088   -4.2890   21.3742 O.2     1  UNL1       -0.1686
     31 O           8.4902   -2.7891   19.6936 O.2     1  UNL1       -0.1686
@<TRIPOS>BOND
     1    28    29    1
     2    29    30    2
     3    29    31    2
     4    29     1    1
     5     1     2   ar
     6     2     3   ar
     7     3     4   ar
     8     4     5   ar
     9     5     6   ar
    10     5     7    1
    11     7     8    1
    12     8     9    1
    13     9    10    1
    14    10    11    1
    15    11    12    1
    16    12    13   am
    17    13    14    2
    18    13    18    1
    19    18    19   ar
    20    19    20   ar
    21    20    21   ar
    22    21    24    1
    23    24    25    1
    24    24    26    1
    25    24    27    1
    26    21    22   ar
    27    22    23   ar
    28    12    15    1
    29    15    16    1
    30     9    17    1
    31     6     1   ar
    32    16     9    1
    33    17     4    1
    34    23    18   ar
@<TRIPOS>MOLECULE
*****
 31 34 0 0 0
SMALL
GASTEIGER

@<TRIPOS>ATOM
      1 C           5.8309   -1.1594   18.8548 C.ar    1  UNL1        0.1056
      2 C           5.3771   -0.5701   17.5522 C.ar    1  UNL1        0.0214
      3 C           4.1144    0.2373   17.4937 C.ar    1  UNL1        0.0379
      4 C           3.3053    0.4555   18.7379 C.ar    1  UNL1        0.1342
      5 C           3.7591   -0.1338   20.0405 C.ar    1  UNL1        0.0132
      6 C           5.0219   -0.9413   20.0990 C.ar    1  UNL1        0.0171
      7 C           2.9501    0.0843   21.2847 C.3     1  UNL1        0.0330
      8 C           1.6873    0.8918   21.2263 C.3     1  UNL1        0.0449
      9 C           1.2335    1.4811   19.9237 C.3     1  UNL1        0.1367
     10 C           0.4246    1.6992   21.1678 C.3     1  UNL1        0.0616
     11 C          -0.8382    2.5067   21.1094 C.3     1  UNL1        0.0973
     12 N          -1.2920    3.0960   19.8068 N.am    1  UNL1       -0.2758
     13 C          -2.5548    3.9035   19.7483 C.2     1  UNL1        0.2490
     14 O          -3.0086    4.4928   18.4457 O.2     1  UNL1       -0.2699
     15 C          -0.4830    2.8779   18.5626 C.3     1  UNL1        0.0973
     16 C           0.7797    2.0704   18.6211 C.3     1  UNL1        0.0616
     17 O           2.0426    1.2629   18.6795 O.3     1  UNL1       -0.4828
     18 C          -3.3637    4.1216   20.9925 C.ar    1  UNL1        0.0536
     19 C          -4.4541    3.1580   21.3567 C.ar    1  UNL1        0.0045
     20 C          -5.2631    3.3762   22.6009 C.ar    1  UNL1        0.0040
     21 C          -4.9817    4.5579   23.4809 C.ar    1  UNL1        0.0714
     22 C          -3.8913    5.5215   23.1167 C.ar    1  UNL1        0.0040
     23 C          -3.0824    5.3033   21.8725 C.ar    1  UNL1        0.0045
     24 C          -5.7907    4.7760   24.7250 C.3     1  UNL1        0.4186
     25 F          -6.5997    4.9941   25.9692 F       1  UNL1       -0.1659
     26 F          -6.3464    6.0413   24.1418 F       1  UNL1       -0.1659
     27 F          -5.2350    3.5107   25.3082 F       1  UNL1       -0.1659
     28 C           8.3564   -2.7744   18.9717 C.3     1  UNL1        0.1816
     29 S           7.0936   -1.9669   18.9133 S.O2    1  UNL1        0.0104
     30 O           7.2692   -1.5881   20.3540 O.2     1  UNL1       -0.1686
     31 O           6.9181   -2.3457   17.4726 O.2     1  UNL1       -0.1686
@<TRIPOS>BOND
     1    28    29    1
     2    29    30    2
     3    29    31    2
     4    29     1    1
     5     1     2   ar
     6     2     3   ar
     7     3     4   ar
     8     4     5   ar
     9     5     6   ar
    10     5     7    1
    11     7     8    1
    12     8     9    1
    13     9    10    1
    14    10    11    1
    15    11    12    1
    16    12    13   am
    17    13    14    2
    18    13    18    1
    19    18    19   ar
    20    19    20   ar
    21    20    21   ar
    22    21    24    1
    23    24    25    1
    24    24    26    1
    25    24    27    1
    26    21    22   ar
    27    22    23   ar
    28    12    15    1
    29    15    16    1
    30     9    17    1
    31     6     1   ar
    32    16     9    1
    33    17     4    1
    34    23    18   ar
