@<TRIPOS>MOLECULE
*****
 24 26 0 0 0
SMALL
GASTEIGER

@<TRIPOS>ATOM
      1 C         -10.6053  -19.4695   21.3762 C.ar    1  UNL1        0.1386
      2 C          -9.8781  -19.2998   20.0754 C.ar    1  UNL1        0.0369
      3 C          -8.3803  -19.3705   20.0387 C.ar    1  UNL1        0.0032
      4 C          -7.6096  -19.6109   21.3030 C.ar    1  UNL1        0.0016
      5 C          -8.3369  -19.7805   22.6039 C.ar    1  UNL1        0.0032
      6 C          -9.8347  -19.7098   22.6405 C.ar    1  UNL1        0.0369
      7 C          -6.1117  -19.6816   21.2663 C.ar    1  UNL1        0.0175
      8 C          -5.4283  -20.6256   20.3220 C.ar    1  UNL1        0.0064
      9 C          -3.9304  -20.6963   20.2854 C.ar    1  UNL1        0.0608
     10 C          -3.1159  -19.8229   21.1930 C.ar    1  UNL1        0.2610
     11 O          -1.6181  -19.8936   21.1564 O.2     1  UNL1       -0.2670
     12 N          -3.7994  -18.8789   22.1374 N.ar    1  UNL1       -0.2922
     13 C          -2.9849  -18.0055   23.0450 C.3     1  UNL1        0.1336
     14 C          -5.2972  -18.8082   22.1740 C.ar    1  UNL1        0.0783
     15 O         -12.1033  -19.3988   21.4129 O.3     1  UNL1       -0.4754
     16 C         -12.7881  -18.0726   21.5617 C.3     1  UNL1        0.2068
     17 C         -12.8299  -17.3960   22.8999 C.3     1  UNL1        0.0646
     18 C         -12.0476  -16.1368   23.1284 C.3     1  UNL1        0.0759
     19 C         -10.2815  -15.6402   20.4296 C.3     1  UNL1        0.0173
     20 C          -9.7387  -15.9290   21.7978 C.3     1  UNL1        0.0576
     21 C          -8.2887  -16.0402   22.1656 C.3     1  UNL1        0.0174
     22 C          -8.2044  -16.3372   23.6336 C.3     1  UNL1        0.0187
     23 C          -9.6022  -16.4095   24.1728 C.3     1  UNL1        0.0721
     24 N         -10.5504  -16.1572   23.0383 N.3     1  UNL1       -0.2738
@<TRIPOS>BOND
     1    20    19    1
     2    20    21    1
     3    21    22    1
     4    22    23    1
     5    23    24    1
     6    24    18    1
     7    18    17    1
     8    17    16    1
     9    16    15    1
    10    15     1    1
    11     1     2   ar
    12     2     3   ar
    13     3     4   ar
    14     4     7    1
    15     7     8   ar
    16     8     9   ar
    17     9    10   ar
    18    10    11    2
    19    10    12   ar
    20    12    13    1
    21    12    14   ar
    22     4     5   ar
    23     5     6   ar
    24    24    20    1
    25     6     1   ar
    26    14     7   ar
@<TRIPOS>MOLECULE
*****
 24 26 0 0 0
SMALL
GASTEIGER

@<TRIPOS>ATOM
      1 C         -10.4885  -18.8276   24.2923 C.ar    1  UNL1        0.1386
      2 C          -9.9003  -20.1898   24.0727 C.ar    1  UNL1        0.0369
      3 C          -8.5998  -20.3359   23.3396 C.ar    1  UNL1        0.0032
      4 C          -7.8876  -19.1197   22.8261 C.ar    1  UNL1        0.0016
      5 C          -8.4758  -17.7575   23.0456 C.ar    1  UNL1        0.0032
      6 C          -9.7763  -17.6114   23.7787 C.ar    1  UNL1        0.0369
      7 C          -6.5871  -19.2659   22.0930 C.ar    1  UNL1        0.0175
      8 C          -6.4826  -20.2098   20.9319 C.ar    1  UNL1        0.0064
      9 C          -5.1821  -20.3559   20.1988 C.ar    1  UNL1        0.0608
     10 C          -3.9861  -19.5581   20.6268 C.ar    1  UNL1        0.2610
     11 O          -2.6857  -19.7042   19.8937 O.2     1  UNL1       -0.2670
     12 N          -4.0907  -18.6141   21.7879 N.ar    1  UNL1       -0.2922
     13 C          -2.8947  -17.8163   22.2158 C.3     1  UNL1        0.1336
     14 C          -5.3912  -18.4680   22.5209 C.ar    1  UNL1        0.0783
     15 O         -11.7890  -18.6814   25.0254 O.3     1  UNL1       -0.4754
     16 C         -13.0600  -18.4583   24.2608 C.3     1  UNL1        0.2068
     17 C         -13.0982  -17.4562   23.1452 C.3     1  UNL1        0.0646
     18 C         -13.2019  -17.9209   21.7228 C.3     1  UNL1        0.0759
     19 C         -11.2595  -15.9833   19.9559 C.3     1  UNL1        0.0173
     20 C         -11.0768  -17.4567   20.1693 C.3     1  UNL1        0.0576
     21 C          -9.9692  -18.2982   19.6080 C.3     1  UNL1        0.0174
     22 C         -10.1775  -19.7090   20.0733 C.3     1  UNL1        0.0187
     23 C         -11.4138  -19.7393   20.9222 C.3     1  UNL1        0.0721
     24 N         -11.9696  -18.3474   20.9815 N.3     1  UNL1       -0.2738
@<TRIPOS>BOND
     1    20    19    1
     2    20    21    1
     3    21    22    1
     4    22    23    1
     5    23    24    1
     6    24    18    1
     7    18    17    1
     8    17    16    1
     9    16    15    1
    10    15     1    1
    11     1     2   ar
    12     2     3   ar
    13     3     4   ar
    14     4     7    1
    15     7     8   ar
    16     8     9   ar
    17     9    10   ar
    18    10    11    2
    19    10    12   ar
    20    12    13    1
    21    12    14   ar
    22     4     5   ar
    23     5     6   ar
    24    24    20    1
    25     6     1   ar
    26    14     7   ar
@<TRIPOS>MOLECULE
*****
 24 26 0 0 0
SMALL
GASTEIGER

@<TRIPOS>ATOM
      1 C          -9.0515  -19.5771   21.3779 C.ar    1  UNL1        0.1386
      2 C          -8.5211  -19.2934   20.0038 C.ar    1  UNL1        0.0369
      3 C          -7.0433  -19.1640   19.7822 C.ar    1  UNL1        0.0032
      4 C          -6.0957  -19.3183   20.9347 C.ar    1  UNL1        0.0016
      5 C          -6.6260  -19.6021   22.3088 C.ar    1  UNL1        0.0032
      6 C          -8.1039  -19.7314   22.5304 C.ar    1  UNL1        0.0369
      7 C          -4.6178  -19.1890   20.7131 C.ar    1  UNL1        0.0175
      8 C          -3.6569  -19.7133   21.7385 C.ar    1  UNL1        0.0064
      9 C          -2.1790  -19.5839   21.5169 C.ar    1  UNL1        0.0608
     10 C          -1.6620  -18.9302   20.2697 C.ar    1  UNL1        0.2610
     11 O          -0.1842  -18.8008   20.0481 O.2     1  UNL1       -0.2670
     12 N          -2.6230  -18.4058   19.2442 N.ar    1  UNL1       -0.2922
     13 C          -2.1061  -17.7521   17.9971 C.3     1  UNL1        0.1336
     14 C          -4.1009  -18.5352   19.4659 C.ar    1  UNL1        0.0783
     15 O         -10.5294  -19.7065   21.5995 O.3     1  UNL1       -0.4754
     16 C         -11.0882  -19.6365   22.9897 C.3     1  UNL1        0.2068
     17 C         -12.1662  -18.6456   23.3158 C.3     1  UNL1        0.0646
     18 C         -11.8363  -17.1861   23.4211 C.3     1  UNL1        0.0759
     19 C         -10.6491  -16.0929   20.5848 C.3     1  UNL1        0.0173
     20 C          -9.8880  -16.2121   21.8719 C.3     1  UNL1        0.0576
     21 C          -8.4476  -15.8498   22.0811 C.3     1  UNL1        0.0174
     22 C          -8.1030  -16.1283   23.5142 C.3     1  UNL1        0.0187
     23 C          -9.3305  -16.6628   24.1906 C.3     1  UNL1        0.0721
     24 N         -10.4337  -16.7146   23.1756 N.3     1  UNL1       -0.2738
@<TRIPOS>BOND
     1    20    19    1
     2    20    21    1
     3    21    22    1
     4    22    23    1
     5    23    24    1
     6    24    18    1
     7    18    17    1
     8    17    16    1
     9    16    15    1
    10    15     1    1
    11     1     2   ar
    12     2     3   ar
    13     3     4   ar
    14     4     7    1
    15     7     8   ar
    16     8     9   ar
    17     9    10   ar
    18    10    11    2
    19    10    12   ar
    20    12    13    1
    21    12    14   ar
    22     4     5   ar
    23     5     6   ar
    24    24    20    1
    25     6     1   ar
    26    14     7   ar
@<TRIPOS>MOLECULE
*****
 24 26 0 0 0
SMALL
GASTEIGER

@<TRIPOS>ATOM
      1 C          -9.0017  -19.6766   21.2865 C.ar    1  UNL1        0.1386
      2 C          -8.4664  -19.3011   19.9365 C.ar    1  UNL1        0.0369
      3 C          -6.9883  -19.1484   19.7319 C.ar    1  UNL1        0.0032
      4 C          -6.0456  -19.3712   20.8772 C.ar    1  UNL1        0.0016
      5 C          -6.5810  -19.7467   22.2271 C.ar    1  UNL1        0.0032
      6 C          -8.0590  -19.8994   22.4317 C.ar    1  UNL1        0.0369
      7 C          -4.5674  -19.2185   20.6725 C.ar    1  UNL1        0.0175
      8 C          -3.6093  -19.7600   21.6916 C.ar    1  UNL1        0.0064
      9 C          -2.1311  -19.6073   21.4869 C.ar    1  UNL1        0.0608
     10 C          -1.6112  -18.9131   20.2631 C.ar    1  UNL1        0.2610
     11 O          -0.1331  -18.7604   20.0583 O.2     1  UNL1       -0.2670
     12 N          -2.5695  -18.3716   19.2439 N.ar    1  UNL1       -0.2922
     13 C          -2.0496  -17.6774   18.0201 C.3     1  UNL1        0.1336
     14 C          -4.0475  -18.5243   19.4487 C.ar    1  UNL1        0.0783
     15 O         -10.4799  -19.8293   21.4912 O.3     1  UNL1       -0.4754
     16 C         -11.0749  -19.6142   22.8512 C.3     1  UNL1        0.2068
     17 C         -12.0920  -18.5320   23.0623 C.3     1  UNL1        0.0646
     18 C         -11.6499  -17.1070   23.2163 C.3     1  UNL1        0.0759
     19 C          -9.4205  -17.5269   25.5621 C.3     1  UNL1        0.0173
     20 C          -9.1692  -16.9521   24.1996 C.3     1  UNL1        0.0576
     21 C          -7.8490  -16.4693   23.6762 C.3     1  UNL1        0.0174
     22 C          -8.0578  -15.9779   22.2744 C.3     1  UNL1        0.0187
     23 C          -9.5070  -16.1570   21.9315 C.3     1  UNL1        0.0721
     24 N         -10.1939  -16.7590   23.1214 N.3     1  UNL1       -0.2738
@<TRIPOS>BOND
     1    20    19    1
     2    20    21    1
     3    21    22    1
     4    22    23    1
     5    23    24    1
     6    24    18    1
     7    18    17    1
     8    17    16    1
     9    16    15    1
    10    15     1    1
    11     1     2   ar
    12     2     3   ar
    13     3     4   ar
    14     4     7    1
    15     7     8   ar
    16     8     9   ar
    17     9    10   ar
    18    10    11    2
    19    10    12   ar
    20    12    13    1
    21    12    14   ar
    22     4     5   ar
    23     5     6   ar
    24    24    20    1
    25     6     1   ar
    26    14     7   ar
@<TRIPOS>MOLECULE
*****
 24 26 0 0 0
SMALL
GASTEIGER

@<TRIPOS>ATOM
      1 C          -5.7703  -15.6275   26.1068 C.ar    1  UNL1        0.1386
      2 C          -4.8262  -16.7828   26.2621 C.ar    1  UNL1        0.0369
      3 C          -4.0308  -17.2647   25.0853 C.ar    1  UNL1        0.0032
      4 C          -4.1795  -16.5914   23.7531 C.ar    1  UNL1        0.0016
      5 C          -5.1235  -15.4362   23.5978 C.ar    1  UNL1        0.0032
      6 C          -5.9189  -14.9542   24.7747 C.ar    1  UNL1        0.0369
      7 C          -3.3840  -17.0734   22.5762 C.ar    1  UNL1        0.0175
      8 C          -2.2724  -16.2297   22.0261 C.ar    1  UNL1        0.0064
      9 C          -1.4769  -16.7117   20.8492 C.ar    1  UNL1        0.0608
     10 C          -1.7931  -18.0373   20.2225 C.ar    1  UNL1        0.2610
     11 O          -0.9977  -18.5193   19.0457 O.2     1  UNL1       -0.2670
     12 N          -2.9047  -18.8810   20.7727 N.ar    1  UNL1       -0.2922
     13 C          -3.2209  -20.2066   20.1460 C.3     1  UNL1        0.1336
     14 C          -3.7001  -18.3990   21.9495 C.ar    1  UNL1        0.0783
     15 O          -6.5658  -15.1456   27.2837 O.3     1  UNL1       -0.4754
     16 C          -8.0364  -15.4301   27.3621 C.3     1  UNL1        0.2068
     17 C          -8.5913  -16.6839   26.7537 C.3     1  UNL1        0.0646
     18 C          -9.1126  -16.6680   25.3473 C.3     1  UNL1        0.0759
     19 C          -8.0080  -17.3735   22.3587 C.3     1  UNL1        0.0173
     20 C          -8.8159  -18.2820   23.2374 C.3     1  UNL1        0.0576
     21 C          -9.2580  -19.6742   22.8965 C.3     1  UNL1        0.0174
     22 C         -10.0389  -20.2105   24.0596 C.3     1  UNL1        0.0187
     23 C         -10.0795  -19.1495   25.1192 C.3     1  UNL1        0.0721
     24 N          -9.3237  -17.9577   24.6110 N.3     1  UNL1       -0.2738
@<TRIPOS>BOND
     1    20    19    1
     2    20    21    1
     3    21    22    1
     4    22    23    1
     5    23    24    1
     6    24    18    1
     7    18    17    1
     8    17    16    1
     9    16    15    1
    10    15     1    1
    11     1     2   ar
    12     2     3   ar
    13     3     4   ar
    14     4     7    1
    15     7     8   ar
    16     8     9   ar
    17     9    10   ar
    18    10    11    2
    19    10    12   ar
    20    12    13    1
    21    12    14   ar
    22     4     5   ar
    23     5     6   ar
    24    24    20    1
    25     6     1   ar
    26    14     7   ar
@<TRIPOS>MOLECULE
*****
 24 26 0 0 0
SMALL
GASTEIGER

@<TRIPOS>ATOM
      1 C          -9.2150  -19.5296   23.7664 C.ar    1  UNL1        0.1386
      2 C          -8.7231  -18.1712   23.3631 C.ar    1  UNL1        0.0369
      3 C          -7.4305  -18.0334   22.6146 C.ar    1  UNL1        0.0032
      4 C          -6.6299  -19.2540   22.2695 C.ar    1  UNL1        0.0016
      5 C          -7.1218  -20.6124   22.6729 C.ar    1  UNL1        0.0032
      6 C          -8.4144  -20.7502   23.4213 C.ar    1  UNL1        0.0369
      7 C          -5.3372  -19.1162   21.5210 C.ar    1  UNL1        0.0175
      8 C          -5.1041  -19.9153   20.2733 C.ar    1  UNL1        0.0064
      9 C          -3.8115  -19.7775   19.5248 C.ar    1  UNL1        0.0608
     10 C          -2.7520  -18.8404   20.0242 C.ar    1  UNL1        0.2610
     11 O          -1.4594  -18.7025   19.2757 O.2     1  UNL1       -0.2670
     12 N          -2.9851  -18.0412   21.2720 N.ar    1  UNL1       -0.2922
     13 C          -1.9256  -17.1041   21.7713 C.3     1  UNL1        0.1336
     14 C          -4.2777  -18.1791   22.0204 C.ar    1  UNL1        0.0783
     15 O         -10.5077  -19.6675   24.5149 O.3     1  UNL1       -0.4754
     16 C         -11.4583  -18.5096   24.5895 C.3     1  UNL1        0.2068
     17 C         -12.7153  -18.5173   23.7710 C.3     1  UNL1        0.0646
     18 C         -12.7161  -17.9266   22.3923 C.3     1  UNL1        0.0759
     19 C         -10.9872  -16.0012   20.4040 C.3     1  UNL1        0.0173
     20 C         -10.9129  -17.4981   20.4663 C.3     1  UNL1        0.0576
     21 C         -10.0308  -18.3728   19.6256 C.3     1  UNL1        0.0174
     22 C         -10.2803  -19.7984   20.0199 C.3     1  UNL1        0.0187
     23 C         -11.3166  -19.8047   21.1043 C.3     1  UNL1        0.0721
     24 N         -11.7076  -18.3831   21.3802 N.3     1  UNL1       -0.2738
@<TRIPOS>BOND
     1    20    19    1
     2    20    21    1
     3    21    22    1
     4    22    23    1
     5    23    24    1
     6    24    18    1
     7    18    17    1
     8    17    16    1
     9    16    15    1
    10    15     1    1
    11     1     2   ar
    12     2     3   ar
    13     3     4   ar
    14     4     7    1
    15     7     8   ar
    16     8     9   ar
    17     9    10   ar
    18    10    11    2
    19    10    12   ar
    20    12    13    1
    21    12    14   ar
    22     4     5   ar
    23     5     6   ar
    24    24    20    1
    25     6     1   ar
    26    14     7   ar
@<TRIPOS>MOLECULE
*****
 24 26 0 0 0
SMALL
GASTEIGER

@<TRIPOS>ATOM
      1 C          -5.9024  -20.2799   20.4997 C.ar    1  UNL1        0.1386
      2 C          -6.2111  -20.6025   21.9317 C.ar    1  UNL1        0.0369
      3 C          -7.5210  -20.1822   22.5295 C.ar    1  UNL1        0.0032
      4 C          -8.5222  -19.4394   21.6954 C.ar    1  UNL1        0.0016
      5 C          -8.2135  -19.1168   20.2634 C.ar    1  UNL1        0.0032
      6 C          -6.9036  -19.5370   19.6656 C.ar    1  UNL1        0.0369
      7 C          -9.8322  -19.0191   22.2933 C.ar    1  UNL1        0.0175
      8 C         -10.2483  -19.5470   23.6342 C.ar    1  UNL1        0.0064
      9 C         -11.5583  -19.1267   24.2321 C.ar    1  UNL1        0.0608
     10 C         -12.4521  -18.1785   23.4890 C.ar    1  UNL1        0.2610
     11 O         -13.7620  -17.7583   24.0869 O.2     1  UNL1       -0.2670
     12 N         -12.0359  -17.6507   22.1480 N.ar    1  UNL1       -0.2922
     13 C         -12.9296  -16.7025   21.4050 C.3     1  UNL1        0.1336
     14 C         -10.7260  -18.0709   21.5502 C.ar    1  UNL1        0.0783
     15 O          -4.5924  -20.7002   19.9018 O.3     1  UNL1       -0.4754
     16 C          -3.5700  -19.6663   19.5335 C.3     1  UNL1        0.2068
     17 C          -2.2921  -19.5644   20.3123 C.3     1  UNL1        0.0646
     18 C          -2.3333  -19.3888   21.8014 C.3     1  UNL1        0.0759
     19 C          -1.5783  -16.2552   21.2914 C.3     1  UNL1        0.0173
     20 C          -2.6876  -16.7642   22.1633 C.3     1  UNL1        0.0576
     21 C          -3.6447  -15.9222   22.9539 C.3     1  UNL1        0.0174
     22 C          -4.5832  -16.8422   23.6771 C.3     1  UNL1        0.0187
     23 C          -4.2062  -18.2528   23.3333 C.3     1  UNL1        0.0721
     24 N          -3.0347  -18.2046   22.3978 N.3     1  UNL1       -0.2738
@<TRIPOS>BOND
     1    20    19    1
     2    20    21    1
     3    21    22    1
     4    22    23    1
     5    23    24    1
     6    24    18    1
     7    18    17    1
     8    17    16    1
     9    16    15    1
    10    15     1    1
    11     1     2   ar
    12     2     3   ar
    13     3     4   ar
    14     4     7    1
    15     7     8   ar
    16     8     9   ar
    17     9    10   ar
    18    10    11    2
    19    10    12   ar
    20    12    13    1
    21    12    14   ar
    22     4     5   ar
    23     5     6   ar
    24    24    20    1
    25     6     1   ar
    26    14     7   ar
@<TRIPOS>MOLECULE
*****
 24 26 0 0 0
SMALL
GASTEIGER

@<TRIPOS>ATOM
      1 C          -9.9200  -19.5266   21.5637 C.ar    1  UNL1        0.1386
      2 C          -9.3281  -19.2432   20.2149 C.ar    1  UNL1        0.0369
      3 C          -7.8386  -19.1913   20.0454 C.ar    1  UNL1        0.0032
      4 C          -6.9411  -19.4227   21.2247 C.ar    1  UNL1        0.0016
      5 C          -7.5329  -19.7061   22.5735 C.ar    1  UNL1        0.0032
      6 C          -9.0224  -19.7581   22.7430 C.ar    1  UNL1        0.0369
      7 C          -5.4515  -19.3708   21.0552 C.ar    1  UNL1        0.0175
      8 C          -4.8081  -20.0284   19.8705 C.ar    1  UNL1        0.0064
      9 C          -3.3186  -19.9764   19.7010 C.ar    1  UNL1        0.0608
     10 C          -2.4725  -19.2668   20.7161 C.ar    1  UNL1        0.2610
     11 O          -0.9831  -19.2148   20.5466 O.2     1  UNL1       -0.2670
     12 N          -3.1160  -18.6091   21.9009 N.ar    1  UNL1       -0.2922
     13 C          -2.2700  -17.8995   22.9160 C.3     1  UNL1        0.1336
     14 C          -4.6055  -18.6611   22.0703 C.ar    1  UNL1        0.0783
     15 O         -11.4095  -19.5786   21.7332 O.3     1  UNL1       -0.4754
     16 C         -12.0354  -19.1102   23.0133 C.3     1  UNL1        0.2068
     17 C         -11.4010  -17.9986   23.7956 C.3     1  UNL1        0.0646
     18 C         -11.5431  -16.5791   23.3321 C.3     1  UNL1        0.0759
     19 C          -8.8366  -15.6536   21.7613 C.3     1  UNL1        0.0173
     20 C         -10.1952  -15.8277   21.1497 C.3     1  UNL1        0.0576
     21 C         -10.5481  -15.6069   19.7086 C.3     1  UNL1        0.0174
     22 C         -12.0104  -15.8959   19.5400 C.3     1  UNL1        0.0187
     23 C         -12.5611  -16.2953   20.8769 C.3     1  UNL1        0.0721
     24 N         -11.4392  -16.2531   21.8717 N.3     1  UNL1       -0.2738
@<TRIPOS>BOND
     1    20    19    1
     2    20    21    1
     3    21    22    1
     4    22    23    1
     5    23    24    1
     6    24    18    1
     7    18    17    1
     8    17    16    1
     9    16    15    1
    10    15     1    1
    11     1     2   ar
    12     2     3   ar
    13     3     4   ar
    14     4     7    1
    15     7     8   ar
    16     8     9   ar
    17     9    10   ar
    18    10    11    2
    19    10    12   ar
    20    12    13    1
    21    12    14   ar
    22     4     5   ar
    23     5     6   ar
    24    24    20    1
    25     6     1   ar
    26    14     7   ar
@<TRIPOS>MOLECULE
*****
 24 26 0 0 0
SMALL
GASTEIGER

@<TRIPOS>ATOM
      1 C          -5.8657  -15.5928   26.0925 C.ar    1  UNL1        0.1386
      2 C          -5.9914  -15.1185   24.6751 C.ar    1  UNL1        0.0369
      3 C          -5.1477  -15.7366   23.5998 C.ar    1  UNL1        0.0032
      4 C          -4.1783  -16.8289   23.9421 C.ar    1  UNL1        0.0016
      5 C          -4.0526  -17.3032   25.3595 C.ar    1  UNL1        0.0032
      6 C          -4.8963  -16.6852   26.4347 C.ar    1  UNL1        0.0369
      7 C          -3.3346  -17.4470   22.8668 C.ar    1  UNL1        0.0175
      8 C          -3.4962  -18.8993   22.5285 C.ar    1  UNL1        0.0064
      9 C          -2.6524  -19.5174   21.4532 C.ar    1  UNL1        0.0608
     10 C          -1.6472  -18.6830   20.7162 C.ar    1  UNL1        0.2610
     11 O          -0.8035  -19.3010   19.6409 O.2     1  UNL1       -0.2670
     12 N          -1.4856  -17.2305   21.0545 N.ar    1  UNL1       -0.2922
     13 C          -0.4803  -16.3961   20.3175 C.3     1  UNL1        0.1336
     14 C          -2.3293  -16.6126   22.1297 C.ar    1  UNL1        0.0783
     15 O          -6.7094  -14.9748   27.1678 O.3     1  UNL1       -0.4754
     16 C          -8.1588  -15.3418   27.2877 C.3     1  UNL1        0.2068
     17 C          -8.6774  -16.5786   26.6159 C.3     1  UNL1        0.0646
     18 C          -9.1241  -16.5237   25.1850 C.3     1  UNL1        0.0759
     19 C         -11.2546  -16.3290   22.7208 C.3     1  UNL1        0.0173
     20 C         -10.8777  -17.5762   23.4640 C.3     1  UNL1        0.0576
     21 C         -11.4140  -18.9529   23.2051 C.3     1  UNL1        0.0174
     22 C         -10.7662  -19.8933   24.1777 C.3     1  UNL1        0.0187
     23 C          -9.8295  -19.0977   25.0378 C.3     1  UNL1        0.0721
     24 N          -9.8985  -17.6657   24.5967 N.3     1  UNL1       -0.2738
@<TRIPOS>BOND
     1    20    19    1
     2    20    21    1
     3    21    22    1
     4    22    23    1
     5    23    24    1
     6    24    18    1
     7    18    17    1
     8    17    16    1
     9    16    15    1
    10    15     1    1
    11     1     2   ar
    12     2     3   ar
    13     3     4   ar
    14     4     7    1
    15     7     8   ar
    16     8     9   ar
    17     9    10   ar
    18    10    11    2
    19    10    12   ar
    20    12    13    1
    21    12    14   ar
    22     4     5   ar
    23     5     6   ar
    24    24    20    1
    25     6     1   ar
    26    14     7   ar
