@<TRIPOS>MOLECULE
*****
 28 32 0 0 0
SMALL
GASTEIGER

@<TRIPOS>ATOM
      1 O           9.1125   -3.3947   31.2846 O.2     1  UNL1       -0.2526
      2 C           7.6627   -3.6493   31.5732 C.2     1  UNL1        0.3039
      3 N           6.9758   -4.8389   30.9708 N.am    1  UNL1       -0.2901
      4 N           6.8999   -2.7142   32.4641 N.am    1  UNL1       -0.2642
      5 C           7.5868   -1.5246   33.0665 C.3     1  UNL1        0.0954
      6 C           6.8240   -0.5896   33.9575 C.3     1  UNL1        0.0308
      7 C           5.3742   -0.8442   34.2461 C.3     1  UNL1        0.0800
      8 C           4.6873   -2.0338   33.6437 C.3     1  UNL1        0.0308
      9 C           5.4501   -2.9688   32.7528 C.3     1  UNL1        0.0954
     10 H           6.0242   -5.0060   31.1602 H       1  UNL1        0.1509
     11 C           4.6114    0.0908   35.1371 C.ar    1  UNL1        0.2053
     12 N           3.9102    1.3446   34.7053 N.ar    1  UNL1       -0.2121
     13 C           3.2812    1.9649   35.9176 C.ar    1  UNL1        0.1185
     14 C           2.4644    3.2098   36.0987 C.ar    1  UNL1        0.0223
     15 C           1.9600    3.5844   37.4608 C.ar    1  UNL1        0.0017
     16 C           2.2726    2.7140   38.6418 C.ar    1  UNL1        0.0032
     17 C           3.0895    1.4691   38.4607 C.ar    1  UNL1        0.0391
     18 C           3.5938    1.0945   37.0986 C.ar    1  UNL1        0.1644
     19 O           4.4159   -0.0637   36.6162 O.2     1  UNL1       -0.4384
     20 C           7.7386   -5.7739   30.0798 C.3     1  UNL1        0.0774
     21 C           8.7066   -6.9072   29.9110 C.3     1  UNL1        0.0259
     22 C           8.0918   -6.2601   28.7055 C.3     1  UNL1        0.0420
     23 C           7.9407   -6.1671   27.2160 C.ar    1  UNL1       -0.0208
     24 C           7.4904   -4.8823   26.5865 C.ar    1  UNL1       -0.0042
     25 C           7.3393   -4.7893   25.0970 C.ar    1  UNL1       -0.0003
     26 C           7.6387   -5.9813   24.2370 C.ar    1  UNL1       -0.0000
     27 C           8.0891   -7.2662   24.8665 C.ar    1  UNL1       -0.0003
     28 C           8.2401   -7.3591   26.3560 C.ar    1  UNL1       -0.0042
@<TRIPOS>BOND
     1     1     2    2
     2     2     3   am
     3     3    20    1
     4    20    21    1
     5    21    22    1
     6    22    23    1
     7    23    24   ar
     8    24    25   ar
     9    25    26   ar
    10    26    27   ar
    11    27    28   ar
    12     2     4   am
    13     4     5    1
    14     5     6    1
    15     6     7    1
    16     7    11    1
    17    11    12   ar
    18    12    13   ar
    19    13    14   ar
    20    14    15   ar
    21    15    16   ar
    22    16    17   ar
    23    17    18   ar
    24    18    19   ar
    25     7     8    1
    26     8     9    1
    27    22    20    1
    28    28    23   ar
    29     9     4    1
    30    19    11   ar
    31    18    13   ar
    32     3    10    1
@<TRIPOS>MOLECULE
*****
 28 32 0 0 0
SMALL
GASTEIGER

@<TRIPOS>ATOM
      1 O           5.0434    1.8017   32.7144 O.2     1  UNL1       -0.2526
      2 C           5.3165    0.4519   33.3089 C.2     1  UNL1        0.3039
      3 N           5.2256    0.2538   34.7929 N.am    1  UNL1       -0.2901
      4 N           5.6806   -0.6996   32.4193 N.am    1  UNL1       -0.2642
      5 C           5.7716   -0.5014   30.9353 C.3     1  UNL1        0.0954
      6 C           6.1357   -1.6530   30.0458 C.3     1  UNL1        0.0308
      7 C           6.4088   -3.0028   30.6402 C.3     1  UNL1        0.0800
      8 C           6.3178   -3.2010   32.1243 C.3     1  UNL1        0.0308
      9 C           5.9538   -2.0494   33.0138 C.3     1  UNL1        0.0954
     10 H           5.4048   -0.6322   35.1831 H       1  UNL1        0.1509
     11 C           6.7729   -4.1544   29.7507 C.ar    1  UNL1        0.2053
     12 N           6.2988   -4.3656   28.3434 N.ar    1  UNL1       -0.2121
     13 C           6.9079   -5.6387   27.8352 C.ar    1  UNL1        0.1185
     14 C           6.7980   -6.3482   26.5182 C.ar    1  UNL1        0.0223
     15 C           7.5385   -7.6332   26.2945 C.ar    1  UNL1        0.0017
     16 C           8.3891   -8.2088   27.3877 C.ar    1  UNL1        0.0032
     17 C           8.4990   -7.4994   28.7047 C.ar    1  UNL1        0.0391
     18 C           7.7585   -6.2143   28.9284 C.ar    1  UNL1        0.1644
     19 O           7.6750   -5.2969   30.1123 O.2     1  UNL1       -0.4384
     20 C           4.8615    1.4053   35.6825 C.3     1  UNL1        0.0774
     21 C           5.1094    2.8043   36.1633 C.3     1  UNL1        0.0259
     22 C           3.9829    2.0009   36.7423 C.3     1  UNL1        0.0420
     23 C           2.8251    1.8808   37.6886 C.ar    1  UNL1       -0.0208
     24 C           2.6091    0.6076   38.4516 C.ar    1  UNL1       -0.0042
     25 C           1.4513    0.4875   39.3978 C.ar    1  UNL1       -0.0003
     26 C           0.5097    1.6407   39.5810 C.ar    1  UNL1       -0.0000
     27 C           0.7258    2.9140   38.8179 C.ar    1  UNL1       -0.0003
     28 C           1.8835    3.0340   37.8718 C.ar    1  UNL1       -0.0042
@<TRIPOS>BOND
     1     1     2    2
     2     2     3   am
     3     3    20    1
     4    20    21    1
     5    21    22    1
     6    22    23    1
     7    23    24   ar
     8    24    25   ar
     9    25    26   ar
    10    26    27   ar
    11    27    28   ar
    12     2     4   am
    13     4     5    1
    14     5     6    1
    15     6     7    1
    16     7    11    1
    17    11    12   ar
    18    12    13   ar
    19    13    14   ar
    20    14    15   ar
    21    15    16   ar
    22    16    17   ar
    23    17    18   ar
    24    18    19   ar
    25     7     8    1
    26     8     9    1
    27    22    20    1
    28    28    23   ar
    29     9     4    1
    30    19    11   ar
    31    18    13   ar
    32     3    10    1
@<TRIPOS>MOLECULE
*****
 28 32 0 0 0
SMALL
GASTEIGER

@<TRIPOS>ATOM
      1 O           1.8003    1.4564   22.5782 O.2     1  UNL1       -0.2526
      2 C           1.2270    1.2734   23.9521 C.2     1  UNL1        0.3039
      3 N           1.8942    0.3479   24.9260 N.am    1  UNL1       -0.2901
      4 N          -0.0134    2.0158   24.3523 N.am    1  UNL1       -0.2642
      5 C          -0.6805    2.9413   23.3785 C.3     1  UNL1        0.0954
      6 C          -1.9209    3.6838   23.7786 C.3     1  UNL1        0.0308
      7 C          -2.4942    3.5007   25.1526 C.3     1  UNL1        0.0800
      8 C          -1.8271    2.5752   26.1264 C.3     1  UNL1        0.0308
      9 C          -0.5867    1.8328   25.7263 C.3     1  UNL1        0.0954
     10 H           1.5179    0.2277   25.8278 H       1  UNL1        0.1509
     11 C          -3.7346    4.2432   25.5527 C.ar    1  UNL1        0.2053
     12 N          -4.0147    4.8274   26.9056 N.ar    1  UNL1       -0.2121
     13 C          -5.3660    5.4771   26.8593 C.ar    1  UNL1        0.1185
     14 C          -6.1627    6.2114   27.8965 C.ar    1  UNL1        0.0223
     15 C          -7.5144    6.7630   27.5523 C.ar    1  UNL1        0.0017
     16 C          -8.0694    6.5803   26.1708 C.ar    1  UNL1        0.0032
     17 C          -7.2727    5.8459   25.1335 C.ar    1  UNL1        0.0391
     18 C          -5.9210    5.2943   25.4778 C.ar    1  UNL1        0.1644
     19 O          -4.9128    4.5317   24.6703 O.2     1  UNL1       -0.4384
     20 C           3.1346   -0.3946   24.5258 C.3     1  UNL1        0.0774
     21 C           4.5453   -0.8165   24.8121 C.3     1  UNL1        0.0259
     22 C           3.8724   -1.2586   23.5465 C.3     1  UNL1        0.0420
     23 C           3.9098   -2.0126   22.2503 C.ar    1  UNL1       -0.0208
     24 C           4.6204   -3.3312   22.1699 C.ar    1  UNL1       -0.0042
     25 C           4.6579   -4.0852   20.8737 C.ar    1  UNL1       -0.0003
     26 C           3.9847   -3.5207   19.6579 C.ar    1  UNL1       -0.0000
     27 C           3.2741   -2.2021   19.7383 C.ar    1  UNL1       -0.0003
     28 C           3.2367   -1.4481   21.0345 C.ar    1  UNL1       -0.0042
@<TRIPOS>BOND
     1     1     2    2
     2     2     3   am
     3     3    20    1
     4    20    21    1
     5    21    22    1
     6    22    23    1
     7    23    24   ar
     8    24    25   ar
     9    25    26   ar
    10    26    27   ar
    11    27    28   ar
    12     2     4   am
    13     4     5    1
    14     5     6    1
    15     6     7    1
    16     7    11    1
    17    11    12   ar
    18    12    13   ar
    19    13    14   ar
    20    14    15   ar
    21    15    16   ar
    22    16    17   ar
    23    17    18   ar
    24    18    19   ar
    25     7     8    1
    26     8     9    1
    27    22    20    1
    28    28    23   ar
    29     9     4    1
    30    19    11   ar
    31    18    13   ar
    32     3    10    1
@<TRIPOS>MOLECULE
*****
 28 32 0 0 0
SMALL
GASTEIGER

@<TRIPOS>ATOM
      1 O           4.9083   -4.3370   21.1625 O.2     1  UNL1       -0.2526
      2 C           5.5886   -3.0587   20.7713 C.2     1  UNL1        0.3039
      3 N           7.0813   -2.9442   20.8653 N.am    1  UNL1       -0.2901
      4 N           4.7762   -1.8948   20.2861 N.am    1  UNL1       -0.2642
      5 C           3.2836   -2.0092   20.1921 C.3     1  UNL1        0.0954
      6 C           2.4712   -0.8453   19.7069 C.3     1  UNL1        0.0308
      7 C           3.1515    0.4330   19.3157 C.3     1  UNL1        0.0800
      8 C           4.6441    0.5474   19.4097 C.3     1  UNL1        0.0308
      9 C           5.4565   -0.6165   19.8949 C.3     1  UNL1        0.0954
     10 H           7.5278   -2.1052   20.6085 H       1  UNL1        0.1509
     11 C           2.3391    1.5969   18.8306 C.ar    1  UNL1        0.2053
     12 N           0.8802    1.5701   18.4831 N.ar    1  UNL1       -0.2121
     13 C           0.4824    2.9486   18.0454 C.ar    1  UNL1        0.1185
     14 C          -0.8277    3.5171   17.5868 C.ar    1  UNL1        0.0223
     15 C          -0.9246    4.9644   17.2051 C.ar    1  UNL1        0.0017
     16 C           0.2885    5.8432   17.2820 C.ar    1  UNL1        0.0032
     17 C           1.5986    5.2747   17.7407 C.ar    1  UNL1        0.0391
     18 C           1.6956    3.8274   18.1224 C.ar    1  UNL1        0.1644
     19 O           2.8431    2.9920   18.6076 O.2     1  UNL1       -0.4384
     20 C           7.8936   -4.1081   21.3505 C.3     1  UNL1        0.0774
     21 C           8.9961   -5.1023   21.1357 C.3     1  UNL1        0.0259
     22 C           8.1982   -5.1298   22.4056 C.3     1  UNL1        0.0420
     23 C           7.9133   -5.7357   23.7480 C.ar    1  UNL1       -0.0208
     24 C           7.2437   -4.9185   24.8128 C.ar    1  UNL1       -0.0042
     25 C           6.9589   -5.5243   26.1552 C.ar    1  UNL1       -0.0003
     26 C           7.3436   -6.9473   26.4327 C.ar    1  UNL1       -0.0000
     27 C           8.0133   -7.7645   25.3678 C.ar    1  UNL1       -0.0003
     28 C           8.2981   -7.1587   24.0255 C.ar    1  UNL1       -0.0042
@<TRIPOS>BOND
     1     1     2    2
     2     2     3   am
     3     3    20    1
     4    20    21    1
     5    21    22    1
     6    22    23    1
     7    23    24   ar
     8    24    25   ar
     9    25    26   ar
    10    26    27   ar
    11    27    28   ar
    12     2     4   am
    13     4     5    1
    14     5     6    1
    15     6     7    1
    16     7    11    1
    17    11    12   ar
    18    12    13   ar
    19    13    14   ar
    20    14    15   ar
    21    15    16   ar
    22    16    17   ar
    23    17    18   ar
    24    18    19   ar
    25     7     8    1
    26     8     9    1
    27    22    20    1
    28    28    23   ar
    29     9     4    1
    30    19    11   ar
    31    18    13   ar
    32     3    10    1
@<TRIPOS>MOLECULE
*****
 28 32 0 0 0
SMALL
GASTEIGER

@<TRIPOS>ATOM
      1 O           6.7211   -5.2781   26.6803 O.2     1  UNL1       -0.2526
      2 C           6.3927   -3.8280   26.8780 C.2     1  UNL1        0.3039
      3 N           6.1086   -2.9549   25.6918 N.am    1  UNL1       -0.2901
      4 N           6.3483   -3.2509   28.2618 N.am    1  UNL1       -0.2642
      5 C           6.6323   -4.1240   29.4480 C.3     1  UNL1        0.0954
      6 C           6.5880   -3.5469   30.8318 C.3     1  UNL1        0.0308
      7 C           6.2596   -2.0967   31.0295 C.3     1  UNL1        0.0800
      8 C           5.9755   -1.2236   29.8433 C.3     1  UNL1        0.0308
      9 C           6.0199   -1.8007   28.4595 C.3     1  UNL1        0.0954
     10 H           5.8931   -2.0031   25.8216 H       1  UNL1        0.1509
     11 C           6.2152   -1.5196   32.4133 C.ar    1  UNL1        0.2053
     12 N           5.0043   -1.4338   33.2944 N.ar    1  UNL1       -0.2121
     13 C           5.4146   -0.7882   34.5847 C.ar    1  UNL1        0.1185
     14 C           4.6439   -0.4450   35.8249 C.ar    1  UNL1        0.0223
     15 C           5.3378    0.2113   36.9815 C.ar    1  UNL1        0.0017
     16 C           6.8023    0.5245   36.8978 C.ar    1  UNL1        0.0032
     17 C           7.5730    0.1814   35.6576 C.ar    1  UNL1        0.0391
     18 C           6.8792   -0.4750   34.5010 C.ar    1  UNL1        0.1644
     19 O           7.3739   -0.9270   33.1591 O.2     1  UNL1       -0.4384
     20 C           6.1530   -3.5320   24.3080 C.3     1  UNL1        0.0774
     21 C           6.7443   -4.4930   23.3197 C.3     1  UNL1        0.0259
     22 C           5.6386   -3.5705   22.8995 C.3     1  UNL1        0.0420
     23 C           4.7032   -3.0601   21.8437 C.ar    1  UNL1       -0.0208
     24 C           3.9114   -1.8091   22.0844 C.ar    1  UNL1       -0.0042
     25 C           2.9760   -1.2987   21.0286 C.ar    1  UNL1       -0.0003
     26 C           2.8325   -2.0394   19.7322 C.ar    1  UNL1       -0.0000
     27 C           3.6243   -3.2905   19.4915 C.ar    1  UNL1       -0.0003
     28 C           4.5596   -3.8008   20.5473 C.ar    1  UNL1       -0.0042
@<TRIPOS>BOND
     1     1     2    2
     2     2     3   am
     3     3    20    1
     4    20    21    1
     5    21    22    1
     6    22    23    1
     7    23    24   ar
     8    24    25   ar
     9    25    26   ar
    10    26    27   ar
    11    27    28   ar
    12     2     4   am
    13     4     5    1
    14     5     6    1
    15     6     7    1
    16     7    11    1
    17    11    12   ar
    18    12    13   ar
    19    13    14   ar
    20    14    15   ar
    21    15    16   ar
    22    16    17   ar
    23    17    18   ar
    24    18    19   ar
    25     7     8    1
    26     8     9    1
    27    22    20    1
    28    28    23   ar
    29     9     4    1
    30    19    11   ar
    31    18    13   ar
    32     3    10    1
@<TRIPOS>MOLECULE
*****
 28 32 0 0 0
SMALL
GASTEIGER

@<TRIPOS>ATOM
      1 O           5.0227    0.8895   32.9811 O.2     1  UNL1       -0.2526
      2 C           5.2631   -0.5326   33.3929 C.2     1  UNL1        0.3039
      3 N           5.0799   -0.9399   34.8249 N.am    1  UNL1       -0.2901
      4 N           5.6868   -1.5475   32.3728 N.am    1  UNL1       -0.2642
      5 C           5.8700   -1.1402   30.9409 C.3     1  UNL1        0.0954
      6 C           6.2936   -2.1550   29.9208 C.3     1  UNL1        0.0308
      7 C           6.5341   -3.5772   30.3326 C.3     1  UNL1        0.0800
      8 C           6.3509   -3.9845   31.7646 C.3     1  UNL1        0.0308
      9 C           5.9272   -2.9696   32.7847 C.3     1  UNL1        0.0954
     10 H           5.2377   -1.8733   35.0952 H       1  UNL1        0.1509
     11 C           6.9578   -4.5920   29.3125 C.ar    1  UNL1        0.2053
     12 N           7.6406   -5.8968   29.5977 N.ar    1  UNL1       -0.2121
     13 C           7.8778   -6.5915   28.2896 C.ar    1  UNL1        0.1185
     14 C           8.5128   -7.9081   27.9530 C.ar    1  UNL1        0.0223
     15 C           8.6116   -8.3492   26.5227 C.ar    1  UNL1        0.0017
     16 C           8.0754   -7.4737   25.4291 C.ar    1  UNL1        0.0032
     17 C           7.4404   -6.1571   25.7657 C.ar    1  UNL1        0.0391
     18 C           7.3416   -5.7160   27.1959 C.ar    1  UNL1        0.1644
     19 O           6.7730   -4.4803   27.8282 O.2     1  UNL1       -0.4384
     20 C           4.6562    0.0749   35.8450 C.3     1  UNL1        0.0774
     21 C           4.6849    0.5917   37.2528 C.3     1  UNL1        0.0259
     22 C           3.8939    1.3158   36.2039 C.3     1  UNL1        0.0420
     23 C           2.9970    2.4503   35.8056 C.ar    1  UNL1       -0.0208
     24 C           2.5399    2.5811   34.3830 C.ar    1  UNL1       -0.0042
     25 C           1.6430    3.7156   33.9847 C.ar    1  UNL1       -0.0003
     26 C           1.2033    4.7193   35.0091 C.ar    1  UNL1       -0.0000
     27 C           1.6604    4.5884   36.4318 C.ar    1  UNL1       -0.0003
     28 C           2.5572    3.4539   36.8300 C.ar    1  UNL1       -0.0042
@<TRIPOS>BOND
     1     1     2    2
     2     2     3   am
     3     3    20    1
     4    20    21    1
     5    21    22    1
     6    22    23    1
     7    23    24   ar
     8    24    25   ar
     9    25    26   ar
    10    26    27   ar
    11    27    28   ar
    12     2     4   am
    13     4     5    1
    14     5     6    1
    15     6     7    1
    16     7    11    1
    17    11    12   ar
    18    12    13   ar
    19    13    14   ar
    20    14    15   ar
    21    15    16   ar
    22    16    17   ar
    23    17    18   ar
    24    18    19   ar
    25     7     8    1
    26     8     9    1
    27    22    20    1
    28    28    23   ar
    29     9     4    1
    30    19    11   ar
    31    18    13   ar
    32     3    10    1
@<TRIPOS>MOLECULE
*****
 28 32 0 0 0
SMALL
GASTEIGER

@<TRIPOS>ATOM
      1 O           2.7885   -0.6520   23.7074 O.2     1  UNL1       -0.2526
      2 C           3.8436   -1.4674   24.3944 C.2     1  UNL1        0.3039
      3 N           4.6407   -2.4716   23.6159 N.am    1  UNL1       -0.2901
      4 N           4.1015   -1.2785   25.8599 N.am    1  UNL1       -0.2642
      5 C           3.3044   -0.2743   26.6384 C.3     1  UNL1        0.0954
      6 C           3.5623   -0.0855   28.1040 C.3     1  UNL1        0.0308
      7 C           4.6173   -0.9008   28.7910 C.3     1  UNL1        0.0800
      8 C           5.4144   -1.9051   28.0125 C.3     1  UNL1        0.0308
      9 C           5.1565   -2.0939   26.5470 C.3     1  UNL1        0.0954
     10 H           5.3331   -3.0068   24.0668 H       1  UNL1        0.1509
     11 C           4.8752   -0.7120   30.2566 C.ar    1  UNL1        0.2053
     12 N           5.9066    0.1942   30.8607 N.ar    1  UNL1       -0.2121
     13 C           5.8159    0.0701   32.3528 C.ar    1  UNL1        0.1185
     14 C           6.5830    0.7251   33.4629 C.ar    1  UNL1        0.0223
     15 C           6.2626    0.3972   34.8911 C.ar    1  UNL1        0.0017
     16 C           5.1751   -0.5858   35.2092 C.ar    1  UNL1        0.0032
     17 C           4.4080   -1.2408   34.0990 C.ar    1  UNL1        0.0391
     18 C           4.7284   -0.9129   32.6709 C.ar    1  UNL1        0.1644
     19 O           4.1471   -1.3962   31.3753 O.2     1  UNL1       -0.4384
     20 C           4.3827   -2.6604   22.1503 C.3     1  UNL1        0.0774
     21 C           4.5348   -3.4730   20.8987 C.3     1  UNL1        0.0259
     22 C           3.7839   -2.1750   20.8636 C.3     1  UNL1        0.0420
     23 C           3.0046   -1.1452   20.1004 C.ar    1  UNL1       -0.0208
     24 C           1.5875   -0.8397   20.4856 C.ar    1  UNL1       -0.0042
     25 C           0.8082    0.1901   19.7224 C.ar    1  UNL1       -0.0003
     26 C           1.4461    0.9143   18.5741 C.ar    1  UNL1       -0.0000
     27 C           2.8633    0.6087   18.1890 C.ar    1  UNL1       -0.0003
     28 C           3.6425   -0.4210   18.9521 C.ar    1  UNL1       -0.0042
@<TRIPOS>BOND
     1     1     2    2
     2     2     3   am
     3     3    20    1
     4    20    21    1
     5    21    22    1
     6    22    23    1
     7    23    24   ar
     8    24    25   ar
     9    25    26   ar
    10    26    27   ar
    11    27    28   ar
    12     2     4   am
    13     4     5    1
    14     5     6    1
    15     6     7    1
    16     7    11    1
    17    11    12   ar
    18    12    13   ar
    19    13    14   ar
    20    14    15   ar
    21    15    16   ar
    22    16    17   ar
    23    17    18   ar
    24    18    19   ar
    25     7     8    1
    26     8     9    1
    27    22    20    1
    28    28    23   ar
    29     9     4    1
    30    19    11   ar
    31    18    13   ar
    32     3    10    1
@<TRIPOS>MOLECULE
*****
 28 32 0 0 0
SMALL
GASTEIGER

@<TRIPOS>ATOM
      1 O           2.4969    1.9913   21.8377 O.2     1  UNL1       -0.2526
      2 C           1.3378    2.2055   20.9101 C.2     1  UNL1        0.3039
      3 N           1.4905    1.9312   19.4433 N.am    1  UNL1       -0.2901
      4 N           0.0261    2.6941   21.4492 N.am    1  UNL1       -0.2642
      5 C          -0.1266    2.9684   22.9159 C.3     1  UNL1        0.0954
      6 C          -1.4383    3.4570   23.4550 C.3     1  UNL1        0.0308
      7 C          -2.5974    3.6712   22.5274 C.3     1  UNL1        0.0800
      8 C          -2.4448    3.3969   21.0606 C.3     1  UNL1        0.0308
      9 C          -1.1330    2.9083   20.5215 C.3     1  UNL1        0.0954
     10 H           0.7297    2.0718   18.8344 H       1  UNL1        0.1509
     11 C          -3.9091    4.1598   23.0665 C.ar    1  UNL1        0.2053
     12 N          -5.2686    3.7553   22.5785 N.ar    1  UNL1       -0.2121
     13 C          -6.2914    4.4841   23.3986 C.ar    1  UNL1        0.1185
     14 C          -7.7911    4.4797   23.3680 C.ar    1  UNL1        0.0223
     15 C          -8.5633    5.3303   24.3324 C.ar    1  UNL1        0.0017
     16 C          -7.8360    6.1853   25.3274 C.ar    1  UNL1        0.0032
     17 C          -6.3363    6.1897   25.3580 C.ar    1  UNL1        0.0391
     18 C          -5.5640    5.3391   24.3936 C.ar    1  UNL1        0.1644
     19 O          -4.0917    5.1386   24.1883 O.2     1  UNL1       -0.4384
     20 C           2.8022    1.4426   18.9042 C.3     1  UNL1        0.0774
     21 C           4.1219    1.7216   18.2481 C.3     1  UNL1        0.0259
     22 C           3.7545    0.3174   18.6266 C.3     1  UNL1        0.0420
     23 C           4.0921   -1.1430   18.6849 C.ar    1  UNL1       -0.0208
     24 C           3.1485   -2.1052   19.3434 C.ar    1  UNL1       -0.0042
     25 C           3.4862   -3.5656   19.4017 C.ar    1  UNL1       -0.0003
     26 C           4.7675   -4.0637   18.8015 C.ar    1  UNL1       -0.0000
     27 C           5.7111   -3.1013   18.1429 C.ar    1  UNL1       -0.0003
     28 C           5.3734   -1.6410   18.0847 C.ar    1  UNL1       -0.0042
@<TRIPOS>BOND
     1     1     2    2
     2     2     3   am
     3     3    20    1
     4    20    21    1
     5    21    22    1
     6    22    23    1
     7    23    24   ar
     8    24    25   ar
     9    25    26   ar
    10    26    27   ar
    11    27    28   ar
    12     2     4   am
    13     4     5    1
    14     5     6    1
    15     6     7    1
    16     7    11    1
    17    11    12   ar
    18    12    13   ar
    19    13    14   ar
    20    14    15   ar
    21    15    16   ar
    22    16    17   ar
    23    17    18   ar
    24    18    19   ar
    25     7     8    1
    26     8     9    1
    27    22    20    1
    28    28    23   ar
    29     9     4    1
    30    19    11   ar
    31    18    13   ar
    32     3    10    1
@<TRIPOS>MOLECULE
*****
 28 32 0 0 0
SMALL
GASTEIGER

@<TRIPOS>ATOM
      1 O           3.2792    2.1813   30.6718 O.2     1  UNL1       -0.2526
      2 C           2.2659    1.1981   30.1653 C.2     1  UNL1        0.3039
      3 N           2.3360   -0.2381   30.5920 N.am    1  UNL1       -0.2901
      4 N           1.1825    1.6513   29.2321 N.am    1  UNL1       -0.2642
      5 C           1.1123    3.0875   28.8053 C.3     1  UNL1        0.0954
      6 C           0.0289    3.5406   27.8721 C.3     1  UNL1        0.0308
      7 C          -0.9844    2.5575   27.3656 C.3     1  UNL1        0.0800
      8 C          -0.9143    1.1212   27.7924 C.3     1  UNL1        0.0308
      9 C           0.1692    0.6681   28.7256 C.3     1  UNL1        0.0954
     10 H           1.6709   -0.8835   30.2596 H       1  UNL1        0.1509
     11 C          -2.0678    3.0106   26.4324 C.ar    1  UNL1        0.2053
     12 N          -3.3935    3.5864   26.8338 N.ar    1  UNL1       -0.2121
     13 C          -4.1608    3.8991   25.5834 C.ar    1  UNL1        0.1185
     14 C          -5.5247    4.4828   25.3624 C.ar    1  UNL1        0.0223
     15 C          -6.0372    4.6839   23.9671 C.ar    1  UNL1        0.0017
     16 C          -5.1858    4.3015   22.7929 C.ar    1  UNL1        0.0032
     17 C          -3.8218    3.7178   23.0140 C.ar    1  UNL1        0.0391
     18 C          -3.3093    3.5167   24.4092 C.ar    1  UNL1        0.1644
     19 O          -2.0158    2.9675   24.9340 O.2     1  UNL1       -0.4384
     20 C           3.4194   -0.6913   31.5252 C.3     1  UNL1        0.0774
     21 C           4.5970   -1.5731   31.8179 C.3     1  UNL1        0.0259
     22 C           4.1183   -0.5943   32.8489 C.3     1  UNL1        0.0420
     23 C           4.2455    0.0268   34.2083 C.ar    1  UNL1       -0.0208
     24 C           5.0206   -0.6748   35.2839 C.ar    1  UNL1       -0.0042
     25 C           5.1477   -0.0536   36.6434 C.ar    1  UNL1       -0.0003
     26 C           4.4997    1.2691   36.9272 C.ar    1  UNL1       -0.0000
     27 C           3.7246    1.9707   35.8515 C.ar    1  UNL1       -0.0003
     28 C           3.5975    1.3496   34.4921 C.ar    1  UNL1       -0.0042
@<TRIPOS>BOND
     1     1     2    2
     2     2     3   am
     3     3    20    1
     4    20    21    1
     5    21    22    1
     6    22    23    1
     7    23    24   ar
     8    24    25   ar
     9    25    26   ar
    10    26    27   ar
    11    27    28   ar
    12     2     4   am
    13     4     5    1
    14     5     6    1
    15     6     7    1
    16     7    11    1
    17    11    12   ar
    18    12    13   ar
    19    13    14   ar
    20    14    15   ar
    21    15    16   ar
    22    16    17   ar
    23    17    18   ar
    24    18    19   ar
    25     7     8    1
    26     8     9    1
    27    22    20    1
    28    28    23   ar
    29     9     4    1
    30    19    11   ar
    31    18    13   ar
    32     3    10    1
