@<TRIPOS>MOLECULE
*****
 31 33 0 0 0
SMALL
GASTEIGER

@<TRIPOS>ATOM
      1 N          -9.9874  -19.7089   19.5010 N.pl3   1  UNL1       -0.3288
      2 C          -9.5678  -18.8458   20.6538 C.ar    1  UNL1        0.1948
      3 N         -10.4836  -18.2012   21.6517 N.ar    1  UNL1       -0.2139
      4 C          -9.6406  -17.4328   22.6258 C.ar    1  UNL1        0.0999
      5 C          -9.9956  -16.6005   23.8221 C.ar    1  UNL1        0.0206
      6 C          -8.9139  -15.9379   24.6225 C.ar    1  UNL1        0.0055
      7 C          -7.4770  -16.1077   24.2267 C.ar    1  UNL1        0.0730
      8 C          -7.1220  -16.9400   23.0304 C.ar    1  UNL1        0.0226
      9 C          -8.2037  -17.6026   22.2300 C.ar    1  UNL1        0.0799
     10 N          -8.1588  -18.4759   21.0112 N.ar    1  UNL1       -0.2971
     11 H         -10.9418  -19.8957   19.3477 H       1  UNL1        0.1451
     12 H          -9.3084  -20.0887   18.8977 H       1  UNL1        0.1451
     13 C          -6.3952  -15.4451   25.0272 C.3     1  UNL1        0.4186
     14 F          -5.3135  -14.7825   25.8276 F       1  UNL1       -0.1659
     15 F          -7.3214  -15.3541   26.2036 F       1  UNL1       -0.1659
     16 F          -5.4691  -15.5361   23.8508 F       1  UNL1       -0.1659
     17 C          -6.9219  -18.9040   20.2785 C.3     1  UNL1        0.1424
     18 C          -5.7762  -19.5116   21.0322 C.3     1  UNL1        0.1561
     19 O          -6.0262  -20.6200   22.0114 O.3     1  UNL1       -0.3780
     20 H          -5.1855  -20.8965   22.4084 H       1  UNL1        0.2109
     21 C          -4.3804  -19.0108   20.8067 C.ar    1  UNL1        0.0167
     22 C          -3.7903  -19.0298   19.4277 C.ar    1  UNL1       -0.0011
     23 C          -2.3945  -18.5290   19.2022 C.ar    1  UNL1        0.0037
     24 C          -1.5887  -18.0092   20.3557 C.ar    1  UNL1        0.0722
     25 C          -2.1787  -17.9902   21.7346 C.ar    1  UNL1        0.0150
     26 C          -3.5746  -18.4910   21.9601 C.ar    1  UNL1        0.0559
     27 CL         -4.1646  -18.4719   23.3390 Cl      1  UNL1       -0.0825
     28 C          -0.1928  -17.5084   20.1302 C.3     1  UNL1        0.4186
     29 F           1.2030  -17.0075   19.9049 F       1  UNL1       -0.1659
     30 F          -0.6274  -16.1248   20.5136 F       1  UNL1       -0.1659
     31 F           0.2417  -18.8919   19.7469 F       1  UNL1       -0.1659
@<TRIPOS>BOND
     1     1     2    1
     2     2     3   ar
     3     3     4   ar
     4     4     5   ar
     5     5     6   ar
     6     6     7   ar
     7     7    13    1
     8    13    14    1
     9    13    15    1
    10    13    16    1
    11     7     8   ar
    12     8     9   ar
    13     9    10   ar
    14    10    17    1
    15    17    18    1
    16    18    19    1
    17    18    21    1
    18    21    22   ar
    19    22    23   ar
    20    23    24   ar
    21    24    28    1
    22    28    29    1
    23    28    30    1
    24    28    31    1
    25    24    25   ar
    26    25    26   ar
    27    26    27    1
    28    10     2   ar
    29    26    21   ar
    30     9     4   ar
    31     1    11    1
    32     1    12    1
    33    19    20    1
@<TRIPOS>MOLECULE
*****
 31 33 0 0 0
SMALL
GASTEIGER

@<TRIPOS>ATOM
      1 N          -7.7278  -14.4122   24.6074 N.pl3   1  UNL1       -0.3288
      2 C          -6.8493  -15.4940   24.0525 C.ar    1  UNL1        0.1948
      3 N          -5.5153  -15.9120   24.5961 N.ar    1  UNL1       -0.2139
      4 C          -4.9921  -17.0241   23.7361 C.ar    1  UNL1        0.0999
      5 C          -3.7259  -17.8263   23.7932 C.ar    1  UNL1        0.0206
      6 C          -3.4705  -18.8978   22.7750 C.ar    1  UNL1        0.0055
      7 C          -4.4813  -19.1671   21.6999 C.ar    1  UNL1        0.0730
      8 C          -5.7474  -18.3649   21.6429 C.ar    1  UNL1        0.0226
      9 C          -6.0028  -17.2934   22.6610 C.ar    1  UNL1        0.0799
     10 N          -7.1506  -16.3477   22.8566 N.ar    1  UNL1       -0.2971
     11 H          -7.4416  -13.9041   25.4006 H       1  UNL1        0.1451
     12 H          -8.5906  -14.2102   24.1784 H       1  UNL1        0.1451
     13 C          -4.2258  -20.2386   20.6817 C.3     1  UNL1        0.4186
     14 F          -3.9704  -21.3101   19.6636 F       1  UNL1       -0.1659
     15 F          -2.7656  -20.2160   21.0242 F       1  UNL1       -0.1659
     16 F          -5.6860  -20.2613   20.3393 F       1  UNL1       -0.1659
     17 C          -8.3834  -16.2695   22.0055 C.3     1  UNL1        0.1424
     18 C          -9.1809  -17.5085   21.7249 C.3     1  UNL1        0.1561
     19 O          -8.6959  -18.4983   20.7075 O.3     1  UNL1       -0.3780
     20 H          -9.3235  -19.2355   20.6488 H       1  UNL1        0.2109
     21 C         -10.4635  -17.7578   22.4617 C.ar    1  UNL1        0.0167
     22 C         -10.4403  -18.4349   23.7999 C.ar    1  UNL1       -0.0011
     23 C         -11.7228  -18.6842   24.5367 C.ar    1  UNL1        0.0037
     24 C         -13.0287  -18.2564   23.9352 C.ar    1  UNL1        0.0722
     25 C         -13.0519  -17.5794   22.5969 C.ar    1  UNL1        0.0150
     26 C         -11.7693  -17.3300   21.8602 C.ar    1  UNL1        0.0559
     27 CL        -11.7925  -16.6529   20.5219 Cl      1  UNL1       -0.0825
     28 C         -14.3113  -18.5057   24.6719 C.3     1  UNL1        0.4186
     29 F         -15.5940  -18.7550   25.4085 F       1  UNL1       -0.1659
     30 F         -15.0597  -18.4965   23.3719 F       1  UNL1       -0.1659
     31 F         -13.5629  -18.5149   25.9718 F       1  UNL1       -0.1659
@<TRIPOS>BOND
     1     1     2    1
     2     2     3   ar
     3     3     4   ar
     4     4     5   ar
     5     5     6   ar
     6     6     7   ar
     7     7    13    1
     8    13    14    1
     9    13    15    1
    10    13    16    1
    11     7     8   ar
    12     8     9   ar
    13     9    10   ar
    14    10    17    1
    15    17    18    1
    16    18    19    1
    17    18    21    1
    18    21    22   ar
    19    22    23   ar
    20    23    24   ar
    21    24    28    1
    22    28    29    1
    23    28    30    1
    24    28    31    1
    25    24    25   ar
    26    25    26   ar
    27    26    27    1
    28    10     2   ar
    29    26    21   ar
    30     9     4   ar
    31     1    11    1
    32     1    12    1
    33    19    20    1
@<TRIPOS>MOLECULE
*****
 31 33 0 0 0
SMALL
GASTEIGER

@<TRIPOS>ATOM
      1 N         -10.6483  -19.7873   19.3351 N.pl3   1  UNL1       -0.3288
      2 C          -9.2456  -19.5415   19.8062 C.ar    1  UNL1        0.1948
      3 N          -8.0252  -19.4610   18.9379 N.ar    1  UNL1       -0.2139
      4 C          -6.8423  -19.2029   19.8234 C.ar    1  UNL1        0.0999
      5 C          -5.3829  -19.0296   19.5236 C.ar    1  UNL1        0.0206
      6 C          -4.4128  -18.7772   20.6394 C.ar    1  UNL1        0.0055
      7 C          -4.9022  -18.6981   22.0552 C.ar    1  UNL1        0.0730
      8 C          -6.3616  -18.8714   22.3550 C.ar    1  UNL1        0.0226
      9 C          -7.3317  -19.1238   21.2391 C.ar    1  UNL1        0.0799
     10 N          -8.8170  -19.3331   21.2285 N.ar    1  UNL1       -0.2971
     11 H         -10.8305  -19.9129   18.3758 H       1  UNL1        0.1451
     12 H         -11.3868  -19.8230   19.9852 H       1  UNL1        0.1451
     13 C          -3.9320  -18.4457   23.1711 C.3     1  UNL1        0.4186
     14 F          -2.9619  -18.1934   24.2869 F       1  UNL1       -0.1659
     15 F          -4.7604  -17.2818   23.6281 F       1  UNL1       -0.1659
     16 F          -3.1036  -19.6097   22.7140 F       1  UNL1       -0.1659
     17 C          -9.7159  -19.3338   22.4294 C.3     1  UNL1        0.1424
     18 C         -10.2454  -18.0391   22.9707 C.3     1  UNL1        0.1561
     19 O         -11.5370  -17.4810   22.4506 O.3     1  UNL1       -0.3780
     20 H         -11.7336  -16.6456   22.9027 H       1  UNL1        0.2109
     21 C          -9.4834  -17.3023   24.0321 C.ar    1  UNL1        0.0167
     22 C          -9.6129  -17.7119   25.4692 C.ar    1  UNL1       -0.0011
     23 C          -8.8509  -16.9750   26.5306 C.ar    1  UNL1        0.0037
     24 C          -7.9595  -15.8287   26.1548 C.ar    1  UNL1        0.0722
     25 C          -7.8301  -15.4191   24.7177 C.ar    1  UNL1        0.0150
     26 C          -8.5921  -16.1559   23.6563 C.ar    1  UNL1        0.0559
     27 CL         -8.4627  -15.7463   22.2191 Cl      1  UNL1       -0.0825
     28 C          -7.1975  -15.0918   27.2162 C.3     1  UNL1        0.4186
     29 F          -6.4356  -14.3549   28.2776 F       1  UNL1       -0.1659
     30 F          -8.4886  -14.6072   27.8065 F       1  UNL1       -0.1659
     31 F          -5.9066  -15.5763   26.6258 F       1  UNL1       -0.1659
@<TRIPOS>BOND
     1     1     2    1
     2     2     3   ar
     3     3     4   ar
     4     4     5   ar
     5     5     6   ar
     6     6     7   ar
     7     7    13    1
     8    13    14    1
     9    13    15    1
    10    13    16    1
    11     7     8   ar
    12     8     9   ar
    13     9    10   ar
    14    10    17    1
    15    17    18    1
    16    18    19    1
    17    18    21    1
    18    21    22   ar
    19    22    23   ar
    20    23    24   ar
    21    24    28    1
    22    28    29    1
    23    28    30    1
    24    28    31    1
    25    24    25   ar
    26    25    26   ar
    27    26    27    1
    28    10     2   ar
    29    26    21   ar
    30     9     4   ar
    31     1    11    1
    32     1    12    1
    33    19    20    1
@<TRIPOS>MOLECULE
*****
 31 33 0 0 0
SMALL
GASTEIGER

@<TRIPOS>ATOM
      1 N          -1.7948  -17.7864   23.4343 N.pl3   1  UNL1       -0.3288
      2 C          -2.9927  -18.3482   22.7276 C.ar    1  UNL1        0.1948
      3 N          -2.9733  -19.4060   21.6642 N.ar    1  UNL1       -0.2139
      4 C          -4.3889  -19.6624   21.2395 C.ar    1  UNL1        0.0999
      5 C          -4.9790  -20.5985   20.2269 C.ar    1  UNL1        0.0206
      6 C          -6.4635  -20.6354   20.0153 C.ar    1  UNL1        0.0055
      7 C          -7.3579  -19.7361   20.8162 C.ar    1  UNL1        0.0730
      8 C          -6.7677  -18.8000   21.8288 C.ar    1  UNL1        0.0226
      9 C          -5.2832  -18.7631   22.0404 C.ar    1  UNL1        0.0799
     10 N          -4.4203  -17.9509   22.9600 N.ar    1  UNL1       -0.2971
     11 H          -0.8934  -18.1132   23.2110 H       1  UNL1        0.1451
     12 H          -1.9101  -17.0909   24.1215 H       1  UNL1        0.1451
     13 C          -8.8425  -19.7730   20.6046 C.3     1  UNL1        0.4186
     14 F         -10.3270  -19.8100   20.3930 F       1  UNL1       -0.1659
     15 F          -8.6299  -19.8115   19.1202 F       1  UNL1       -0.1659
     16 F          -9.0550  -19.7346   22.0889 F       1  UNL1       -0.1659
     17 C          -4.9007  -16.9221   23.9402 C.3     1  UNL1        0.1424
     18 C          -5.8060  -15.8166   23.4839 C.3     1  UNL1        0.1561
     19 O          -5.2292  -14.4888   23.0907 O.3     1  UNL1       -0.3780
     20 H          -5.9453  -13.8917   22.8231 H       1  UNL1        0.2109
     21 C          -7.2881  -16.0387   23.4206 C.ar    1  UNL1        0.0167
     22 C          -7.9769  -16.1292   22.0912 C.ar    1  UNL1       -0.0011
     23 C          -9.4590  -16.3513   22.0280 C.ar    1  UNL1        0.0037
     24 C         -10.2524  -16.4829   23.2942 C.ar    1  UNL1        0.0722
     25 C          -9.5636  -16.3925   24.6236 C.ar    1  UNL1        0.0150
     26 C          -8.0815  -16.1703   24.6868 C.ar    1  UNL1        0.0559
     27 CL         -7.3927  -16.0798   26.0162 Cl      1  UNL1       -0.0825
     28 C         -11.7345  -16.7051   23.2310 C.3     1  UNL1        0.4186
     29 F         -13.2167  -16.9273   23.1680 F       1  UNL1       -0.1659
     30 F         -11.5901  -17.9162   24.1041 F       1  UNL1       -0.1659
     31 F         -11.8788  -15.4940   22.3580 F       1  UNL1       -0.1659
@<TRIPOS>BOND
     1     1     2    1
     2     2     3   ar
     3     3     4   ar
     4     4     5   ar
     5     5     6   ar
     6     6     7   ar
     7     7    13    1
     8    13    14    1
     9    13    15    1
    10    13    16    1
    11     7     8   ar
    12     8     9   ar
    13     9    10   ar
    14    10    17    1
    15    17    18    1
    16    18    19    1
    17    18    21    1
    18    21    22   ar
    19    22    23   ar
    20    23    24   ar
    21    24    28    1
    22    28    29    1
    23    28    30    1
    24    28    31    1
    25    24    25   ar
    26    25    26   ar
    27    26    27    1
    28    10     2   ar
    29    26    21   ar
    30     9     4   ar
    31     1    11    1
    32     1    12    1
    33    19    20    1
@<TRIPOS>MOLECULE
*****
 31 33 0 0 0
SMALL
GASTEIGER

@<TRIPOS>ATOM
      1 N          -9.8158  -21.0961   24.9800 N.pl3   1  UNL1       -0.3288
      2 C         -10.3420  -20.0479   24.0449 C.ar    1  UNL1        0.1948
      3 N         -11.7505  -19.5341   23.9990 N.ar    1  UNL1       -0.2139
      4 C         -11.8310  -18.4980   22.9172 C.ar    1  UNL1        0.0999
      5 C         -12.9661  -17.6535   22.4188 C.ar    1  UNL1        0.0206
      6 C         -12.7423  -16.6825   21.2976 C.ar    1  UNL1        0.0055
      7 C         -11.3836  -16.5561   20.6749 C.ar    1  UNL1        0.0730
      8 C         -10.2486  -17.4006   21.1733 C.ar    1  UNL1        0.0226
      9 C         -10.4723  -18.3716   22.2945 C.ar    1  UNL1        0.0799
     10 N          -9.5520  -19.3294   22.9914 N.ar    1  UNL1       -0.2971
     11 H         -10.4155  -21.5120   25.6408 H       1  UNL1        0.1451
     12 H          -8.8709  -21.3682   24.9329 H       1  UNL1        0.1451
     13 C         -11.1599  -15.5850   19.5537 C.3     1  UNL1        0.4186
     14 F         -10.9362  -14.6140   18.4325 F       1  UNL1       -0.1659
     15 F         -12.2985  -16.1991   18.7946 F       1  UNL1       -0.1659
     16 F         -10.0213  -14.9709   20.3128 F       1  UNL1       -0.1659
     17 C          -8.0972  -19.5330   22.6881 C.3     1  UNL1        0.1424
     18 C          -7.1539  -18.3673   22.7211 C.3     1  UNL1        0.1561
     19 O          -7.5683  -17.0855   23.3809 O.3     1  UNL1       -0.3780
     20 H          -6.8476  -16.4398   23.3141 H       1  UNL1        0.2109
     21 C          -5.7960  -18.4833   22.0943 C.ar    1  UNL1        0.0167
     22 C          -4.5702  -18.1559   22.8943 C.ar    1  UNL1       -0.0011
     23 C          -3.2124  -18.2718   22.2675 C.ar    1  UNL1        0.0037
     24 C          -3.0804  -18.7151   20.8406 C.ar    1  UNL1        0.0722
     25 C          -4.3062  -19.0426   20.0406 C.ar    1  UNL1        0.0150
     26 C          -5.6641  -18.9266   20.6674 C.ar    1  UNL1        0.0559
     27 CL         -6.8899  -19.2540   19.8673 Cl      1  UNL1       -0.0825
     28 C          -1.7226  -18.8311   20.2137 C.3     1  UNL1        0.4186
     29 F          -0.3648  -18.9471   19.5869 F       1  UNL1       -0.1659
     30 F          -1.0883  -18.7327   21.5694 F       1  UNL1       -0.1659
     31 F          -2.3569  -18.9295   18.8581 F       1  UNL1       -0.1659
@<TRIPOS>BOND
     1     1     2    1
     2     2     3   ar
     3     3     4   ar
     4     4     5   ar
     5     5     6   ar
     6     6     7   ar
     7     7    13    1
     8    13    14    1
     9    13    15    1
    10    13    16    1
    11     7     8   ar
    12     8     9   ar
    13     9    10   ar
    14    10    17    1
    15    17    18    1
    16    18    19    1
    17    18    21    1
    18    21    22   ar
    19    22    23   ar
    20    23    24   ar
    21    24    28    1
    22    28    29    1
    23    28    30    1
    24    28    31    1
    25    24    25   ar
    26    25    26   ar
    27    26    27    1
    28    10     2   ar
    29    26    21   ar
    30     9     4   ar
    31     1    11    1
    32     1    12    1
    33    19    20    1
@<TRIPOS>MOLECULE
*****
 31 33 0 0 0
SMALL
GASTEIGER

@<TRIPOS>ATOM
      1 N          -3.8681  -17.5195   24.1247 N.pl3   1  UNL1       -0.3288
      2 C          -4.7218  -18.1804   23.0833 C.ar    1  UNL1        0.1948
      3 N          -4.3233  -19.3447   22.2255 N.ar    1  UNL1       -0.2139
      4 C          -5.4790  -19.6769   21.3289 C.ar    1  UNL1        0.0999
      5 C          -5.6619  -20.7287   20.2753 C.ar    1  UNL1        0.0206
      6 C          -6.9576  -20.8217   19.5253 C.ar    1  UNL1        0.0055
      7 C          -8.0704  -19.8628   19.8289 C.ar    1  UNL1        0.0730
      8 C          -7.8875  -18.8110   20.8826 C.ar    1  UNL1        0.0226
      9 C          -6.5919  -18.7181   21.6326 C.ar    1  UNL1        0.0799
     10 N          -6.1238  -17.7932   22.7168 N.ar    1  UNL1       -0.2971
     11 H          -2.9555  -17.8476   24.2938 H       1  UNL1        0.1451
     12 H          -4.2205  -16.7576   24.6390 H       1  UNL1        0.1451
     13 C          -9.3661  -19.9558   19.0789 C.3     1  UNL1        0.4186
     14 F         -10.6618  -20.0487   18.3289 F       1  UNL1       -0.1659
     15 F          -8.8141  -21.0889   18.2657 F       1  UNL1       -0.1659
     16 F          -9.9181  -18.8227   19.8921 F       1  UNL1       -0.1659
     17 C          -6.9184  -16.6770   23.3274 C.3     1  UNL1        0.1424
     18 C          -8.1030  -16.1142   22.5996 C.3     1  UNL1        0.1561
     19 O          -7.9116  -15.0308   21.5799 O.3     1  UNL1       -0.3780
     20 H          -8.7717  -14.7824   21.2067 H       1  UNL1        0.2109
     21 C          -9.4793  -16.6348   22.8913 C.ar    1  UNL1        0.0167
     22 C          -9.7099  -17.5201   24.0800 C.ar    1  UNL1       -0.0011
     23 C         -11.0861  -18.0406   24.3717 C.ar    1  UNL1        0.0037
     24 C         -12.2317  -17.6758   23.4747 C.ar    1  UNL1        0.0722
     25 C         -12.0010  -16.7905   22.2860 C.ar    1  UNL1        0.0150
     26 C         -10.6248  -16.2699   21.9943 C.ar    1  UNL1        0.0559
     27 CL        -10.3942  -15.3846   20.8057 Cl      1  UNL1       -0.0825
     28 C         -13.6080  -18.1963   23.7663 C.3     1  UNL1        0.4186
     29 F         -14.9842  -18.7168   24.0581 F       1  UNL1       -0.1659
     30 F         -13.2390  -18.3622   25.2108 F       1  UNL1       -0.1659
     31 F         -13.9768  -18.0304   22.3219 F       1  UNL1       -0.1659
@<TRIPOS>BOND
     1     1     2    1
     2     2     3   ar
     3     3     4   ar
     4     4     5   ar
     5     5     6   ar
     6     6     7   ar
     7     7    13    1
     8    13    14    1
     9    13    15    1
    10    13    16    1
    11     7     8   ar
    12     8     9   ar
    13     9    10   ar
    14    10    17    1
    15    17    18    1
    16    18    19    1
    17    18    21    1
    18    21    22   ar
    19    22    23   ar
    20    23    24   ar
    21    24    28    1
    22    28    29    1
    23    28    30    1
    24    28    31    1
    25    24    25   ar
    26    25    26   ar
    27    26    27    1
    28    10     2   ar
    29    26    21   ar
    30     9     4   ar
    31     1    11    1
    32     1    12    1
    33    19    20    1
@<TRIPOS>MOLECULE
*****
 31 33 0 0 0
SMALL
GASTEIGER

@<TRIPOS>ATOM
      1 N         -10.3617  -18.7551   20.3726 N.pl3   1  UNL1       -0.3288
      2 C          -8.8960  -19.0188   20.5522 C.ar    1  UNL1        0.1948
      3 N          -8.1408  -20.2001   20.0192 N.ar    1  UNL1       -0.2139
      4 C          -6.7063  -20.0589   20.4339 C.ar    1  UNL1        0.0999
      5 C          -5.5027  -20.9216   20.1947 C.ar    1  UNL1        0.0206
      6 C          -4.1677  -20.5156   20.7450 C.ar    1  UNL1        0.0055
      7 C          -4.0362  -19.2469   21.5344 C.ar    1  UNL1        0.0730
      8 C          -5.2397  -18.3842   21.7736 C.ar    1  UNL1        0.0226
      9 C          -6.5747  -18.7902   21.2233 C.ar    1  UNL1        0.0799
     10 N          -7.9281  -18.1474   21.2964 N.ar    1  UNL1       -0.2971
     11 H         -10.9174  -19.3897   19.8650 H       1  UNL1        0.1451
     12 H         -10.7679  -17.9474   20.7624 H       1  UNL1        0.1451
     13 C          -2.7011  -18.8409   22.0846 C.3     1  UNL1        0.4186
     14 F          -1.3660  -18.4350   22.6348 F       1  UNL1       -0.1659
     15 F          -3.2331  -17.4660   22.3612 F       1  UNL1       -0.1659
     16 F          -2.1691  -20.2158   21.8081 F       1  UNL1       -0.1659
     17 C          -8.2559  -16.8593   21.9917 C.3     1  UNL1        0.1424
     18 C          -8.8327  -16.8800   23.3761 C.3     1  UNL1        0.1561
     19 O          -7.9770  -16.5084   24.5508 O.3     1  UNL1       -0.3780
     20 H          -8.4998  -16.5736   25.3652 H       1  UNL1        0.2109
     21 C         -10.2652  -17.2722   23.5861 C.ar    1  UNL1        0.0167
     22 C         -11.3634  -16.4642   22.9607 C.ar    1  UNL1       -0.0011
     23 C         -12.7959  -16.8564   23.1707 C.ar    1  UNL1        0.0037
     24 C         -13.1302  -18.0566   24.0061 C.ar    1  UNL1        0.0722
     25 C         -12.0320  -18.8646   24.6314 C.ar    1  UNL1        0.0150
     26 C         -10.5995  -18.4723   24.4215 C.ar    1  UNL1        0.0559
     27 CL         -9.5013  -19.2803   25.0468 Cl      1  UNL1       -0.0825
     28 C         -14.5628  -18.4489   24.2161 C.3     1  UNL1        0.4186
     29 F         -15.9952  -18.8412   24.4262 F       1  UNL1       -0.1659
     30 F         -14.3513  -18.4258   25.7009 F       1  UNL1       -0.1659
     31 F         -14.7741  -18.4720   22.7313 F       1  UNL1       -0.1659
@<TRIPOS>BOND
     1     1     2    1
     2     2     3   ar
     3     3     4   ar
     4     4     5   ar
     5     5     6   ar
     6     6     7   ar
     7     7    13    1
     8    13    14    1
     9    13    15    1
    10    13    16    1
    11     7     8   ar
    12     8     9   ar
    13     9    10   ar
    14    10    17    1
    15    17    18    1
    16    18    19    1
    17    18    21    1
    18    21    22   ar
    19    22    23   ar
    20    23    24   ar
    21    24    28    1
    22    28    29    1
    23    28    30    1
    24    28    31    1
    25    24    25   ar
    26    25    26   ar
    27    26    27    1
    28    10     2   ar
    29    26    21   ar
    30     9     4   ar
    31     1    11    1
    32     1    12    1
    33    19    20    1
@<TRIPOS>MOLECULE
*****
 31 33 0 0 0
SMALL
GASTEIGER

@<TRIPOS>ATOM
      1 N          -3.5665  -17.3489   24.4675 N.pl3   1  UNL1       -0.3288
      2 C          -4.4927  -17.9935   23.4793 C.ar    1  UNL1        0.1948
      3 N          -4.2465  -19.2811   22.7502 N.ar    1  UNL1       -0.2139
      4 C          -5.4294  -19.5471   21.8670 C.ar    1  UNL1        0.0999
      5 C          -5.7429  -20.6670   20.9195 C.ar    1  UNL1        0.0206
      6 C          -7.0336  -20.6637   20.1554 C.ar    1  UNL1        0.0055
      7 C          -8.0109  -19.5406   20.3387 C.ar    1  UNL1        0.0730
      8 C          -7.6974  -18.4207   21.2862 C.ar    1  UNL1        0.0226
      9 C          -6.4067  -18.4240   22.0503 C.ar    1  UNL1        0.0799
     10 N          -5.8277  -17.4639   23.0468 N.ar    1  UNL1       -0.2971
     11 H          -2.7071  -17.7757   24.6876 H       1  UNL1        0.1451
     12 H          -3.8180  -16.4989   24.8960 H       1  UNL1        0.1451
     13 C          -9.3017  -19.5373   19.5745 C.3     1  UNL1        0.4186
     14 F         -10.5924  -19.5341   18.8104 F       1  UNL1       -0.1659
     15 F         -10.0627  -19.6793   20.8593 F       1  UNL1       -0.1659
     16 F          -8.5407  -19.3953   18.2898 F       1  UNL1       -0.1659
     17 C          -6.4710  -16.1965   23.5264 C.3     1  UNL1        0.1424
     18 C          -7.6838  -16.2576   24.4068 C.3     1  UNL1        0.1561
     19 O          -7.5671  -15.9376   25.8677 O.3     1  UNL1       -0.3780
     20 H          -8.4369  -16.0242   26.2882 H       1  UNL1        0.2109
     21 C          -9.0135  -16.6387   23.8265 C.ar    1  UNL1        0.0167
     22 C          -9.4872  -16.0006   22.5543 C.ar    1  UNL1       -0.0011
     23 C         -10.8169  -16.3817   21.9740 C.ar    1  UNL1        0.0037
     24 C         -11.6729  -17.4008   22.6659 C.ar    1  UNL1        0.0722
     25 C         -11.1992  -18.0388   23.9381 C.ar    1  UNL1        0.0150
     26 C          -9.8695  -17.6577   24.5184 C.ar    1  UNL1        0.0559
     27 CL         -9.3958  -18.2958   25.7906 Cl      1  UNL1       -0.0825
     28 C         -13.0026  -17.7819   22.0856 C.3     1  UNL1        0.4186
     29 F         -14.3322  -18.1631   21.5053 F       1  UNL1       -0.1659
     30 F         -12.3774  -17.8937   20.7267 F       1  UNL1       -0.1659
     31 F         -13.6276  -17.6701   23.4446 F       1  UNL1       -0.1659
@<TRIPOS>BOND
     1     1     2    1
     2     2     3   ar
     3     3     4   ar
     4     4     5   ar
     5     5     6   ar
     6     6     7   ar
     7     7    13    1
     8    13    14    1
     9    13    15    1
    10    13    16    1
    11     7     8   ar
    12     8     9   ar
    13     9    10   ar
    14    10    17    1
    15    17    18    1
    16    18    19    1
    17    18    21    1
    18    21    22   ar
    19    22    23   ar
    20    23    24   ar
    21    24    28    1
    22    28    29    1
    23    28    30    1
    24    28    31    1
    25    24    25   ar
    26    25    26   ar
    27    26    27    1
    28    10     2   ar
    29    26    21   ar
    30     9     4   ar
    31     1    11    1
    32     1    12    1
    33    19    20    1
@<TRIPOS>MOLECULE
*****
 31 33 0 0 0
SMALL
GASTEIGER

@<TRIPOS>ATOM
      1 N          -2.2497  -20.2014   20.8554 N.pl3   1  UNL1       -0.3288
      2 C          -3.7171  -19.8966   20.9164 C.ar    1  UNL1        0.1948
      3 N          -4.7649  -20.4141   19.9760 N.ar    1  UNL1       -0.2139
      4 C          -6.0898  -19.8581   20.4068 C.ar    1  UNL1        0.0999
      5 C          -7.4751  -20.0247   19.8563 C.ar    1  UNL1        0.0206
      6 C          -8.6314  -19.3302   20.5124 C.ar    1  UNL1        0.0055
      7 C          -8.4024  -18.4690   21.7191 C.ar    1  UNL1        0.0730
      8 C          -7.0171  -18.3024   22.2696 C.ar    1  UNL1        0.0226
      9 C          -5.8608  -18.9970   21.6135 C.ar    1  UNL1        0.0799
     10 N          -4.3944  -19.0208   21.9284 N.ar    1  UNL1       -0.2971
     11 H          -1.8983  -20.7909   20.1495 H       1  UNL1        0.1451
     12 H          -1.6380  -19.8119   21.5213 H       1  UNL1        0.1451
     13 C          -9.5588  -17.7745   22.3752 C.3     1  UNL1        0.4186
     14 F         -10.7151  -17.0800   23.0313 F       1  UNL1       -0.1659
     15 F         -10.2377  -17.6468   21.0437 F       1  UNL1       -0.1659
     16 F          -8.8800  -17.9021   23.7066 F       1  UNL1       -0.1659
     17 C          -3.7232  -18.2960   23.0572 C.3     1  UNL1        0.1424
     18 C          -3.9435  -16.8235   23.2394 C.3     1  UNL1        0.1561
     19 O          -3.1480  -15.8406   22.4324 O.3     1  UNL1       -0.3780
     20 H          -3.4116  -14.9381   22.6708 H       1  UNL1        0.2109
     21 C          -4.9592  -16.3338   24.2286 C.ar    1  UNL1        0.0167
     22 C          -6.1279  -15.5176   23.7618 C.ar    1  UNL1       -0.0011
     23 C          -7.1436  -15.0279   24.7510 C.ar    1  UNL1        0.0037
     24 C          -6.9906  -15.3544   26.2070 C.ar    1  UNL1        0.0722
     25 C          -5.8219  -16.1706   26.6738 C.ar    1  UNL1        0.0150
     26 C          -4.8062  -16.6603   25.6846 C.ar    1  UNL1        0.0559
     27 CL         -3.6375  -17.4765   26.1514 Cl      1  UNL1       -0.0825
     28 C          -8.0063  -14.8648   27.1963 C.3     1  UNL1        0.4186
     29 F          -9.0219  -14.3751   28.1856 F       1  UNL1       -0.1659
     30 F          -6.9029  -14.4527   28.1251 F       1  UNL1       -0.1659
     31 F          -9.1096  -15.2769   26.2675 F       1  UNL1       -0.1659
@<TRIPOS>BOND
     1     1     2    1
     2     2     3   ar
     3     3     4   ar
     4     4     5   ar
     5     5     6   ar
     6     6     7   ar
     7     7    13    1
     8    13    14    1
     9    13    15    1
    10    13    16    1
    11     7     8   ar
    12     8     9   ar
    13     9    10   ar
    14    10    17    1
    15    17    18    1
    16    18    19    1
    17    18    21    1
    18    21    22   ar
    19    22    23   ar
    20    23    24   ar
    21    24    28    1
    22    28    29    1
    23    28    30    1
    24    28    31    1
    25    24    25   ar
    26    25    26   ar
    27    26    27    1
    28    10     2   ar
    29    26    21   ar
    30     9     4   ar
    31     1    11    1
    32     1    12    1
    33    19    20    1
