@<TRIPOS>MOLECULE
*****
 34 36 0 0 0
SMALL
GASTEIGER

@<TRIPOS>ATOM
      1 C          -6.1324  -15.3512   23.7981 C.2     1  UNL1        0.2270
      2 O          -6.9282  -15.1588   22.5413 O.2     1  UNL1       -0.2748
      3 N          -6.8346  -15.6050   25.0990 N.am    1  UNL1       -0.2797
      4 C          -6.1759  -15.8154   26.4301 C.3     1  UNL1        0.0934
      5 C          -7.2530  -16.0333   27.4511 C.3     1  UNL1        0.0233
      6 C          -8.5774  -15.9576   26.7509 C.3     1  UNL1        0.0230
      7 C          -8.3188  -15.6929   25.2973 C.3     1  UNL1        0.0931
      8 C          -4.6343  -15.2900   23.7539 C.3     1  UNL1        0.1010
      9 N          -2.9243  -15.9378   21.9083 N.3     1  UNL1       -0.3215
     10 C          -3.8624  -16.3379   23.0083 C.3     1  UNL1        0.0644
     11 H          -2.9359  -14.9233   21.8038 H       1  UNL1        0.1188
     12 H          -3.2198  -16.3730   21.0344 H       1  UNL1        0.1188
     13 C          -4.0286  -17.7860   23.3626 C.3     1  UNL1        0.0447
     14 C          -4.6375  -18.7351   22.3733 C.ar    1  UNL1        0.0090
     15 C          -6.1269  -18.7884   22.2040 C.ar    1  UNL1        0.0300
     16 C          -6.7357  -19.7375   21.2148 C.ar    1  UNL1        0.1672
     17 F          -8.2252  -19.7909   21.0453 F       1  UNL1       -0.2018
     18 C          -5.8550  -20.6333   20.3949 C.ar    1  UNL1        0.1696
     19 F          -6.4639  -21.5824   19.4057 F       1  UNL1       -0.2017
     20 C          -4.3656  -20.5799   20.5643 C.ar    1  UNL1        0.0612
     21 C          -3.7568  -19.6308   21.5535 C.ar    1  UNL1        0.1386
     22 F          -2.2673  -19.5775   21.7229 F       1  UNL1       -0.2044
     23 C          -9.3614  -15.5425   24.2294 C.3     1  UNL1        0.1153
     24 N          -9.8627  -16.7505   23.4950 N.3     1  UNL1       -0.1518
     25 C          -9.7752  -18.1056   24.1323 C.3     1  UNL1        0.0796
     26 C          -9.9796  -18.9979   25.3205 C.3     1  UNL1        0.0191
     27 C          -9.4194  -19.5604   24.0477 C.3     1  UNL1        0.0191
     28 S         -10.4514  -16.6035   22.1232 S.O2    1  UNL1        0.1303
     29 O         -11.7819  -16.2693   22.7300 O.2     1  UNL1       -0.1495
     30 O          -9.1209  -16.9377   21.5164 O.2     1  UNL1       -0.1495
     31 C         -11.0401  -16.4564   20.7514 C.3     1  UNL1        0.5359
     32 F         -11.8234  -17.7198   20.9522 F       1  UNL1       -0.1493
     33 F         -10.2567  -15.1930   20.5506 F       1  UNL1       -0.1493
     34 F         -11.6289  -16.3094   19.3796 F       1  UNL1       -0.1493
@<TRIPOS>BOND
     1    10     9    1
     2    10     8    1
     3     8     1    1
     4     1     2    2
     5     1     3   am
     6     3     4    1
     7     4     5    1
     8     5     6    1
     9     6     7    1
    10     7    23    1
    11    23    24    1
    12    24    25    1
    13    25    26    1
    14    26    27    1
    15    24    28    1
    16    28    29    2
    17    28    30    2
    18    28    31    1
    19    31    32    1
    20    31    33    1
    21    31    34    1
    22    10    13    1
    23    13    14    1
    24    14    15   ar
    25    15    16   ar
    26    16    17    1
    27    16    18   ar
    28    18    19    1
    29    18    20   ar
    30    20    21   ar
    31    21    22    1
    32     7     3    1
    33    27    25    1
    34    21    14   ar
    35     9    11    1
    36     9    12    1
@<TRIPOS>MOLECULE
*****
 34 36 0 0 0
SMALL
GASTEIGER

@<TRIPOS>ATOM
      1 C          -7.7835  -18.5075   22.5431 C.2     1  UNL1        0.2270
      2 O          -8.7561  -19.6457   22.4510 O.2     1  UNL1       -0.2748
      3 N          -8.1073  -17.3107   23.3873 N.am    1  UNL1       -0.2797
      4 C          -7.2378  -16.1030   23.5752 C.3     1  UNL1        0.0934
      5 C          -7.9505  -15.1573   24.4959 C.3     1  UNL1        0.0233
      6 C          -9.2606  -15.7807   24.8770 C.3     1  UNL1        0.0230
      7 C          -9.3574  -17.1115   24.1919 C.3     1  UNL1        0.0931
      8 C          -6.4871  -18.5661   21.7909 C.3     1  UNL1        0.1010
      9 N          -7.5425  -19.3661   19.5557 N.3     1  UNL1       -0.3215
     10 C          -6.3928  -19.3559   20.5191 C.3     1  UNL1        0.0644
     11 H          -8.2983  -18.7875   19.9222 H       1  UNL1        0.1188
     12 H          -7.8751  -20.3226   19.4334 H       1  UNL1        0.1188
     13 C          -5.1490  -20.1355   20.2108 C.3     1  UNL1        0.0447
     14 C          -3.8142  -19.4511   20.2163 C.ar    1  UNL1        0.0090
     15 C          -3.2463  -18.9046   18.9401 C.ar    1  UNL1        0.0300
     16 C          -1.9116  -18.2202   18.9457 C.ar    1  UNL1        0.1672
     17 F          -1.3436  -17.6736   17.6695 F       1  UNL1       -0.2018
     18 C          -1.1447  -18.0825   20.2275 C.ar    1  UNL1        0.1696
     19 F           0.1901  -17.3981   20.2330 F       1  UNL1       -0.2017
     20 C          -1.7126  -18.6290   21.5037 C.ar    1  UNL1        0.0612
     21 C          -3.0473  -19.3134   21.4981 C.ar    1  UNL1        0.1386
     22 F          -3.6153  -19.8600   22.7744 F       1  UNL1       -0.2044
     23 C         -10.5033  -18.0741   24.2935 C.3     1  UNL1        0.1153
     24 N         -11.7609  -17.8283   23.5137 N.3     1  UNL1       -0.1518
     25 C         -13.0966  -18.1056   24.1374 C.3     1  UNL1        0.0796
     26 C         -13.9147  -18.5286   25.3213 C.3     1  UNL1        0.0191
     27 C         -14.5919  -18.1628   24.0338 C.3     1  UNL1        0.0191
     28 S         -11.6828  -17.3051   22.1101 S.O2    1  UNL1        0.1303
     29 O         -11.9060  -15.9111   22.6172 O.2     1  UNL1       -0.1495
     30 O         -11.4595  -18.6990   21.6029 O.2     1  UNL1       -0.1495
     31 C         -11.6046  -16.7819   20.7064 C.3     1  UNL1        0.5359
     32 F         -10.2241  -17.3526   20.5706 F       1  UNL1       -0.1493
     33 F         -12.9852  -16.2111   20.8423 F       1  UNL1       -0.1493
     34 F         -11.5264  -16.2587   19.3028 F       1  UNL1       -0.1493
@<TRIPOS>BOND
     1    10     9    1
     2    10     8    1
     3     8     1    1
     4     1     2    2
     5     1     3   am
     6     3     4    1
     7     4     5    1
     8     5     6    1
     9     6     7    1
    10     7    23    1
    11    23    24    1
    12    24    25    1
    13    25    26    1
    14    26    27    1
    15    24    28    1
    16    28    29    2
    17    28    30    2
    18    28    31    1
    19    31    32    1
    20    31    33    1
    21    31    34    1
    22    10    13    1
    23    13    14    1
    24    14    15   ar
    25    15    16   ar
    26    16    17    1
    27    16    18   ar
    28    18    19    1
    29    18    20   ar
    30    20    21   ar
    31    21    22    1
    32     7     3    1
    33    27    25    1
    34    21    14   ar
    35     9    11    1
    36     9    12    1
@<TRIPOS>MOLECULE
*****
 34 36 0 0 0
SMALL
GASTEIGER

@<TRIPOS>ATOM
      1 C          -7.7728  -18.2913   21.3080 C.2     1  UNL1        0.2270
      2 O          -7.0284  -17.6590   22.4465 O.2     1  UNL1       -0.2748
      3 N          -9.2154  -17.9528   21.0751 N.am    1  UNL1       -0.2797
      4 C         -10.0849  -18.5026   19.9834 C.3     1  UNL1        0.0934
      5 C         -11.4487  -17.8946   20.1265 C.3     1  UNL1        0.0233
      6 C         -11.4220  -16.9690   21.3067 C.3     1  UNL1        0.0230
      7 C         -10.0417  -17.0050   21.8929 C.3     1  UNL1        0.0931
      8 C          -7.0746  -19.2621   20.4025 C.3     1  UNL1        0.1010
      9 N          -6.4565  -20.9810   22.2501 N.3     1  UNL1       -0.3215
     10 C          -6.1195  -20.2675   20.9744 C.3     1  UNL1        0.0644
     11 H          -7.3647  -20.6626   22.5880 H       1  UNL1        0.1188
     12 H          -5.7433  -20.7797   22.9509 H       1  UNL1        0.1188
     13 C          -4.8274  -20.5593   20.2707 C.3     1  UNL1        0.0447
     14 C          -3.7284  -19.5383   20.2664 C.ar    1  UNL1        0.0090
     15 C          -3.1412  -19.0739   18.9666 C.ar    1  UNL1        0.0300
     16 C          -2.0423  -18.0530   18.9624 C.ar    1  UNL1        0.1672
     17 F          -1.4551  -17.5885   17.6626 F       1  UNL1       -0.2018
     18 C          -1.5306  -17.4965   20.2580 C.ar    1  UNL1        0.1696
     19 F          -0.4316  -16.4755   20.2537 F       1  UNL1       -0.2017
     20 C          -2.1178  -17.9609   21.5577 C.ar    1  UNL1        0.0612
     21 C          -3.2167  -18.9818   21.5620 C.ar    1  UNL1        0.1386
     22 F          -3.8039  -19.4463   22.8618 F       1  UNL1       -0.2044
     23 C          -9.5706  -16.2293   23.0871 C.3     1  UNL1        0.1153
     24 N          -9.4108  -16.9151   24.4116 N.3     1  UNL1       -0.1518
     25 C         -10.0768  -18.2365   24.6573 C.3     1  UNL1        0.0796
     26 C         -11.3255  -19.0511   24.8223 C.3     1  UNL1        0.0191
     27 C          -9.9816  -19.7107   24.9178 C.3     1  UNL1        0.0191
     28 S          -8.5850  -16.2794   25.4905 S.O2    1  UNL1        0.1303
     29 O          -8.1365  -15.2229   24.5247 O.2     1  UNL1       -0.1495
     30 O          -9.0335  -17.3359   26.4563 O.2     1  UNL1       -0.1495
     31 C          -7.7592  -15.6437   26.5693 C.3     1  UNL1        0.5359
     32 F          -8.6344  -16.2751   27.6112 F       1  UNL1       -0.1493
     33 F          -6.8840  -15.0123   25.5274 F       1  UNL1       -0.1493
     34 F          -6.9334  -15.0080   27.6483 F       1  UNL1       -0.1493
@<TRIPOS>BOND
     1    10     9    1
     2    10     8    1
     3     8     1    1
     4     1     2    2
     5     1     3   am
     6     3     4    1
     7     4     5    1
     8     5     6    1
     9     6     7    1
    10     7    23    1
    11    23    24    1
    12    24    25    1
    13    25    26    1
    14    26    27    1
    15    24    28    1
    16    28    29    2
    17    28    30    2
    18    28    31    1
    19    31    32    1
    20    31    33    1
    21    31    34    1
    22    10    13    1
    23    13    14    1
    24    14    15   ar
    25    15    16   ar
    26    16    17    1
    27    16    18   ar
    28    18    19    1
    29    18    20   ar
    30    20    21   ar
    31    21    22    1
    32     7     3    1
    33    27    25    1
    34    21    14   ar
    35     9    11    1
    36     9    12    1
@<TRIPOS>MOLECULE
*****
 34 36 0 0 0
SMALL
GASTEIGER

@<TRIPOS>ATOM
      1 C          -7.6783  -16.6487   23.3817 C.2     1  UNL1        0.2270
      2 O          -8.6197  -16.2506   24.4796 O.2     1  UNL1       -0.2748
      3 N          -8.0254  -17.7910   22.4737 N.am    1  UNL1       -0.2797
      4 C          -7.1880  -18.3009   21.3384 C.3     1  UNL1        0.0934
      5 C          -7.9159  -19.4490   20.7046 C.3     1  UNL1        0.0233
      6 C          -9.2033  -19.6488   21.4481 C.3     1  UNL1        0.0230
      7 C          -9.2710  -18.6241   22.5414 C.3     1  UNL1        0.0931
      8 C          -6.3899  -15.9046   23.1919 C.3     1  UNL1        0.1010
      9 N          -5.1124  -14.9512   25.2436 N.3     1  UNL1       -0.3215
     10 C          -5.2970  -16.0247   24.2123 C.3     1  UNL1        0.0644
     11 H          -5.8113  -14.2216   25.1036 H       1  UNL1        0.1188
     12 H          -4.1791  -14.5498   25.1532 H       1  UNL1        0.1188
     13 C          -4.3887  -17.2184   24.2015 C.3     1  UNL1        0.0447
     14 C          -3.6245  -17.5681   22.9589 C.ar    1  UNL1        0.0090
     15 C          -2.6077  -16.6119   22.4097 C.ar    1  UNL1        0.0300
     16 C          -1.8435  -16.9616   21.1673 C.ar    1  UNL1        0.1672
     17 F          -0.8267  -16.0054   20.6180 F       1  UNL1       -0.2018
     18 C          -2.0963  -18.2676   20.4740 C.ar    1  UNL1        0.1696
     19 F          -1.3321  -18.6173   19.2315 F       1  UNL1       -0.2017
     20 C          -3.1131  -19.2238   21.0232 C.ar    1  UNL1        0.0612
     21 C          -3.8772  -18.8741   22.2657 C.ar    1  UNL1        0.1386
     22 F          -4.8941  -19.8303   22.8150 F       1  UNL1       -0.2044
     23 C         -10.3881  -18.4611   23.5291 C.3     1  UNL1        0.1153
     24 N         -11.6991  -17.8796   23.0895 N.3     1  UNL1       -0.1518
     25 C         -12.9369  -18.1216   23.9014 C.3     1  UNL1        0.0796
     26 C         -14.4319  -18.1183   24.0230 C.3     1  UNL1        0.0191
     27 C         -13.5857  -18.5440   25.1862 C.3     1  UNL1        0.0191
     28 S         -11.7722  -17.0560   21.8380 S.O2    1  UNL1        0.1303
     29 O         -11.2085  -15.8798   22.5789 O.2     1  UNL1       -0.1495
     30 O         -12.3359  -18.2321   21.0970 O.2     1  UNL1       -0.1495
     31 C         -11.8453  -16.2324   20.5864 C.3     1  UNL1        0.5359
     32 F         -13.3410  -16.2011   20.6944 F       1  UNL1       -0.1493
     33 F         -10.3494  -16.2637   20.4784 F       1  UNL1       -0.1493
     34 F         -11.9185  -15.4088   19.3348 F       1  UNL1       -0.1493
@<TRIPOS>BOND
     1    10     9    1
     2    10     8    1
     3     8     1    1
     4     1     2    2
     5     1     3   am
     6     3     4    1
     7     4     5    1
     8     5     6    1
     9     6     7    1
    10     7    23    1
    11    23    24    1
    12    24    25    1
    13    25    26    1
    14    26    27    1
    15    24    28    1
    16    28    29    2
    17    28    30    2
    18    28    31    1
    19    31    32    1
    20    31    33    1
    21    31    34    1
    22    10    13    1
    23    13    14    1
    24    14    15   ar
    25    15    16   ar
    26    16    17    1
    27    16    18   ar
    28    18    19    1
    29    18    20   ar
    30    20    21   ar
    31    21    22    1
    32     7     3    1
    33    27    25    1
    34    21    14   ar
    35     9    11    1
    36     9    12    1
@<TRIPOS>MOLECULE
*****
 34 36 0 0 0
SMALL
GASTEIGER

@<TRIPOS>ATOM
      1 C          -7.5642  -19.5780   21.3232 C.2     1  UNL1        0.2270
      2 O          -7.3412  -19.7798   22.7928 O.2     1  UNL1       -0.2748
      3 N          -8.9591  -19.4496   20.7870 N.am    1  UNL1       -0.2797
      4 C          -9.3358  -19.2456   19.3495 C.3     1  UNL1        0.0934
      5 C         -10.8318  -19.1727   19.2682 C.3     1  UNL1        0.0233
      6 C         -11.3797  -19.3316   20.6555 C.3     1  UNL1        0.0230
      7 C         -10.2223  -19.5027   21.5942 C.3     1  UNL1        0.0931
      8 C          -6.3922  -19.5046   20.3899 C.3     1  UNL1        0.1010
      9 N          -6.1746  -22.0526   19.9314 N.3     1  UNL1       -0.3215
     10 C          -5.5361  -20.7155   20.1643 C.3     1  UNL1        0.0644
     11 H          -7.1895  -21.9542   19.9594 H       1  UNL1        0.1188
     12 H          -5.8759  -22.7032   20.6579 H       1  UNL1        0.1188
     13 C          -4.0415  -20.5891   20.1717 C.3     1  UNL1        0.0447
     14 C          -3.3991  -19.3097   20.6196 C.ar    1  UNL1        0.0090
     15 C          -3.5644  -18.8431   22.0355 C.ar    1  UNL1        0.0300
     16 C          -2.9221  -17.5637   22.4833 C.ar    1  UNL1        0.1672
     17 F          -3.0874  -17.0970   23.8992 F       1  UNL1       -0.2018
     18 C          -2.1143  -16.7511   21.5152 C.ar    1  UNL1        0.1696
     19 F          -1.4719  -15.4717   21.9631 F       1  UNL1       -0.2017
     20 C          -1.9489  -17.2178   20.0993 C.ar    1  UNL1        0.0612
     21 C          -2.5913  -18.4971   19.6515 C.ar    1  UNL1        0.1386
     22 F          -2.4259  -18.9639   18.2355 F       1  UNL1       -0.2044
     23 C         -10.3123  -19.6935   23.0792 C.3     1  UNL1        0.1153
     24 N         -10.8204  -18.5819   23.9489 N.3     1  UNL1       -0.1518
     25 C         -12.2947  -18.3258   24.0541 C.3     1  UNL1        0.0796
     26 C         -13.5649  -17.7871   23.4656 C.3     1  UNL1        0.0191
     27 C         -13.5779  -18.4212   24.8250 C.3     1  UNL1        0.0191
     28 S          -9.8542  -17.7263   24.7133 S.O2    1  UNL1        0.1303
     29 O          -9.5816  -18.8682   25.6470 O.2     1  UNL1       -0.1495
     30 O         -10.1268  -16.5843   23.7796 O.2     1  UNL1       -0.1495
     31 C          -8.8880  -16.8707   25.4777 C.3     1  UNL1        0.5359
     32 F          -8.6496  -16.0428   24.2497 F       1  UNL1       -0.1493
     33 F          -9.1263  -17.6985   26.7057 F       1  UNL1       -0.1493
     34 F          -7.9217  -16.0150   26.2420 F       1  UNL1       -0.1493
@<TRIPOS>BOND
     1    10     9    1
     2    10     8    1
     3     8     1    1
     4     1     2    2
     5     1     3   am
     6     3     4    1
     7     4     5    1
     8     5     6    1
     9     6     7    1
    10     7    23    1
    11    23    24    1
    12    24    25    1
    13    25    26    1
    14    26    27    1
    15    24    28    1
    16    28    29    2
    17    28    30    2
    18    28    31    1
    19    31    32    1
    20    31    33    1
    21    31    34    1
    22    10    13    1
    23    13    14    1
    24    14    15   ar
    25    15    16   ar
    26    16    17    1
    27    16    18   ar
    28    18    19    1
    29    18    20   ar
    30    20    21   ar
    31    21    22    1
    32     7     3    1
    33    27    25    1
    34    21    14   ar
    35     9    11    1
    36     9    12    1
@<TRIPOS>MOLECULE
*****
 34 36 0 0 0
SMALL
GASTEIGER

@<TRIPOS>ATOM
      1 C          -7.4592  -17.0024   23.2559 C.2     1  UNL1        0.2270
      2 O          -8.3590  -16.6701   24.4091 O.2     1  UNL1       -0.2748
      3 N          -7.8888  -18.0163   22.2374 N.am    1  UNL1       -0.2797
      4 C          -7.1001  -18.4491   21.0371 C.3     1  UNL1        0.0934
      5 C          -7.9063  -19.4757   20.2981 C.3     1  UNL1        0.0233
      6 C          -9.1933  -19.6774   21.0418 C.3     1  UNL1        0.0230
      7 C          -9.1825  -18.7754   22.2403 C.3     1  UNL1        0.0931
      8 C          -6.1299  -16.3208   23.1211 C.3     1  UNL1        0.1010
      9 N          -5.1229  -15.6700   25.4261 N.3     1  UNL1       -0.3215
     10 C          -5.0827  -16.5034   24.1795 C.3     1  UNL1        0.0644
     11 H          -5.9221  -15.0375   25.3865 H       1  UNL1        0.1188
     12 H          -4.2627  -15.1268   25.4998 H       1  UNL1        0.1188
     13 C          -3.9953  -17.5193   23.9913 C.3     1  UNL1        0.0447
     14 C          -3.5657  -17.9107   22.6084 C.ar    1  UNL1        0.0090
     15 C          -3.9493  -19.2510   22.0550 C.ar    1  UNL1        0.0300
     16 C          -3.5197  -19.6423   20.6722 C.ar    1  UNL1        0.1672
     17 F          -3.9033  -20.9827   20.1188 F       1  UNL1       -0.2018
     18 C          -2.7065  -18.6933   19.8428 C.ar    1  UNL1        0.1696
     19 F          -2.2768  -19.0847   18.4599 F       1  UNL1       -0.2017
     20 C          -2.3228  -17.3530   20.3961 C.ar    1  UNL1        0.0612
     21 C          -2.7524  -16.9617   21.7790 C.ar    1  UNL1        0.1386
     22 F          -2.3688  -15.6213   22.3324 F       1  UNL1       -0.2044
     23 C         -10.2737  -18.6540   23.2622 C.3     1  UNL1        0.1153
     24 N         -11.5597  -17.9676   22.9084 N.3     1  UNL1       -0.1518
     25 C         -12.7708  -18.1511   23.7742 C.3     1  UNL1        0.0796
     26 C         -13.3902  -18.6090   25.0613 C.3     1  UNL1        0.0191
     27 C         -14.2491  -18.0110   23.9866 C.3     1  UNL1        0.0191
     28 S         -11.6345  -17.0976   21.6888 S.O2    1  UNL1        0.1303
     29 O         -12.2898  -18.2147   20.9320 O.2     1  UNL1       -0.1495
     30 O         -10.9792  -15.9804   22.4455 O.2     1  UNL1       -0.1495
     31 C         -11.7094  -16.2276   20.4692 C.3     1  UNL1        0.5359
     32 F         -10.2196  -16.3129   20.3169 F       1  UNL1       -0.1493
     33 F         -13.1992  -16.1422   20.6214 F       1  UNL1       -0.1493
     34 F         -11.7841  -15.3575   19.2495 F       1  UNL1       -0.1493
@<TRIPOS>BOND
     1    10     9    1
     2    10     8    1
     3     8     1    1
     4     1     2    2
     5     1     3   am
     6     3     4    1
     7     4     5    1
     8     5     6    1
     9     6     7    1
    10     7    23    1
    11    23    24    1
    12    24    25    1
    13    25    26    1
    14    26    27    1
    15    24    28    1
    16    28    29    2
    17    28    30    2
    18    28    31    1
    19    31    32    1
    20    31    33    1
    21    31    34    1
    22    10    13    1
    23    13    14    1
    24    14    15   ar
    25    15    16   ar
    26    16    17    1
    27    16    18   ar
    28    18    19    1
    29    18    20   ar
    30    20    21   ar
    31    21    22    1
    32     7     3    1
    33    27    25    1
    34    21    14   ar
    35     9    11    1
    36     9    12    1
@<TRIPOS>MOLECULE
*****
 34 36 0 0 0
SMALL
GASTEIGER

@<TRIPOS>ATOM
      1 C          -7.4131  -16.9642   23.0108 C.2     1  UNL1        0.2270
      2 O          -8.4546  -16.8323   24.0821 O.2     1  UNL1       -0.2748
      3 N          -7.5626  -18.0081   21.9440 N.am    1  UNL1       -0.2797
      4 C          -6.6077  -18.2574   20.8144 C.3     1  UNL1        0.0934
      5 C          -7.1481  -19.3893   19.9918 C.3     1  UNL1        0.0233
      6 C          -8.4370  -19.8396   20.6131 C.3     1  UNL1        0.0230
      7 C          -8.6932  -18.9859   21.8196 C.3     1  UNL1        0.0931
      8 C          -6.2222  -16.0523   23.0061 C.3     1  UNL1        0.1010
      9 N          -5.2843  -15.0755   25.2234 N.3     1  UNL1       -0.3215
     10 C          -5.2334  -16.1043   24.1329 C.3     1  UNL1        0.0644
     11 H          -6.0466  -14.4231   25.0400 H       1  UNL1        0.1188
     12 H          -4.4008  -14.5666   25.2522 H       1  UNL1        0.1188
     13 C          -4.1938  -17.1849   24.1693 C.3     1  UNL1        0.0447
     14 C          -3.4593  -17.5615   22.9167 C.ar    1  UNL1        0.0090
     15 C          -2.4634  -16.6134   22.3174 C.ar    1  UNL1        0.0300
     16 C          -1.7289  -16.9900   21.0650 C.ar    1  UNL1        0.1672
     17 F          -0.7329  -16.0419   20.4656 F       1  UNL1       -0.2018
     18 C          -1.9905  -18.3147   20.4117 C.ar    1  UNL1        0.1696
     19 F          -1.2560  -18.6913   19.1592 F       1  UNL1       -0.2017
     20 C          -2.9864  -19.2628   21.0110 C.ar    1  UNL1        0.0612
     21 C          -3.7208  -18.8862   22.2635 C.ar    1  UNL1        0.1386
     22 F          -4.7168  -19.8343   22.8628 F       1  UNL1       -0.2044
     23 C          -9.8728  -19.0917   22.7400 C.3     1  UNL1        0.1153
     24 N         -11.0721  -18.2164   22.5260 N.3     1  UNL1       -0.1518
     25 C         -11.0896  -17.2315   21.3948 C.3     1  UNL1        0.0796
     26 C         -11.3917  -16.9034   19.9626 C.3     1  UNL1        0.0191
     27 C         -10.8177  -15.8537   20.8676 C.3     1  UNL1        0.0191
     28 S         -12.2538  -18.3261   23.4433 S.O2    1  UNL1        0.1303
     29 O         -13.1564  -17.8708   22.3350 O.2     1  UNL1       -0.1495
     30 O         -11.3513  -18.7813   24.5516 O.2     1  UNL1       -0.1495
     31 C         -13.4356  -18.4357   24.3605 C.3     1  UNL1        0.5359
     32 F         -12.5274  -18.8463   25.4815 F       1  UNL1       -0.1493
     33 F         -14.3439  -18.0252   23.2396 F       1  UNL1       -0.1493
     34 F         -14.6174  -18.5454   25.2779 F       1  UNL1       -0.1493
@<TRIPOS>BOND
     1    10     9    1
     2    10     8    1
     3     8     1    1
     4     1     2    2
     5     1     3   am
     6     3     4    1
     7     4     5    1
     8     5     6    1
     9     6     7    1
    10     7    23    1
    11    23    24    1
    12    24    25    1
    13    25    26    1
    14    26    27    1
    15    24    28    1
    16    28    29    2
    17    28    30    2
    18    28    31    1
    19    31    32    1
    20    31    33    1
    21    31    34    1
    22    10    13    1
    23    13    14    1
    24    14    15   ar
    25    15    16   ar
    26    16    17    1
    27    16    18   ar
    28    18    19    1
    29    18    20   ar
    30    20    21   ar
    31    21    22    1
    32     7     3    1
    33    27    25    1
    34    21    14   ar
    35     9    11    1
    36     9    12    1
@<TRIPOS>MOLECULE
*****
 34 36 0 0 0
SMALL
GASTEIGER

@<TRIPOS>ATOM
      1 C          -7.2581  -17.1874   23.0332 C.2     1  UNL1        0.2270
      2 O          -8.2571  -17.0154   24.1389 O.2     1  UNL1       -0.2748
      3 N          -7.5326  -18.1520   21.9178 N.am    1  UNL1       -0.2797
      4 C          -6.6325  -18.4291   20.7503 C.3     1  UNL1        0.0934
      5 C          -7.2990  -19.4571   19.8849 C.3     1  UNL1        0.0233
      6 C          -8.6111  -19.8153   20.5176 C.3     1  UNL1        0.0230
      7 C          -8.7554  -19.0087   21.7739 C.3     1  UNL1        0.0931
      8 C          -5.9846  -16.3950   23.0430 C.3     1  UNL1        0.1010
      9 N          -5.2285  -15.8854   25.4759 N.3     1  UNL1       -0.3215
     10 C          -5.0004  -16.5708   24.1613 C.3     1  UNL1        0.0644
     11 H          -6.0932  -15.3462   25.4327 H       1  UNL1        0.1188
     12 H          -4.4473  -15.2600   25.6733 H       1  UNL1        0.1188
     13 C          -3.7881  -17.4321   23.9649 C.3     1  UNL1        0.0447
     14 C          -3.3731  -17.8388   22.5820 C.ar    1  UNL1        0.0090
     15 C          -3.6873  -19.2167   22.0794 C.ar    1  UNL1        0.0300
     16 C          -3.2723  -19.6234   20.6966 C.ar    1  UNL1        0.1672
     17 F          -3.5866  -21.0014   20.1940 F       1  UNL1       -0.2018
     18 C          -2.5431  -18.6522   19.8163 C.ar    1  UNL1        0.1696
     19 F          -2.1280  -19.0590   18.4334 F       1  UNL1       -0.2017
     20 C          -2.2288  -17.2743   20.3188 C.ar    1  UNL1        0.0612
     21 C          -2.6438  -16.8676   21.7017 C.ar    1  UNL1        0.1386
     22 F          -2.3296  -15.4897   22.2043 F       1  UNL1       -0.2044
     23 C          -9.9184  -19.0514   22.7203 C.3     1  UNL1        0.1153
     24 N         -11.1059  -18.1642   22.4900 N.3     1  UNL1       -0.1518
     25 C         -11.0894  -17.1641   21.3722 C.3     1  UNL1        0.0796
     26 C         -10.7839  -15.7849   20.8675 C.3     1  UNL1        0.0191
     27 C         -11.3662  -16.8109   19.9409 C.3     1  UNL1        0.0191
     28 S         -12.3099  -18.2774   23.3774 S.O2    1  UNL1        0.1303
     29 O         -11.4339  -18.7289   24.5083 O.2     1  UNL1       -0.1495
     30 O         -13.1858  -17.8258   22.2466 O.2     1  UNL1       -0.1495
     31 C         -13.5139  -18.3905   24.2649 C.3     1  UNL1        0.5359
     32 F         -14.4022  -18.0627   23.1015 F       1  UNL1       -0.1493
     33 F         -12.6256  -18.7183   25.4283 F       1  UNL1       -0.1493
     34 F         -14.7180  -18.5036   25.1523 F       1  UNL1       -0.1493
@<TRIPOS>BOND
     1    10     9    1
     2    10     8    1
     3     8     1    1
     4     1     2    2
     5     1     3   am
     6     3     4    1
     7     4     5    1
     8     5     6    1
     9     6     7    1
    10     7    23    1
    11    23    24    1
    12    24    25    1
    13    25    26    1
    14    26    27    1
    15    24    28    1
    16    28    29    2
    17    28    30    2
    18    28    31    1
    19    31    32    1
    20    31    33    1
    21    31    34    1
    22    10    13    1
    23    13    14    1
    24    14    15   ar
    25    15    16   ar
    26    16    17    1
    27    16    18   ar
    28    18    19    1
    29    18    20   ar
    30    20    21   ar
    31    21    22    1
    32     7     3    1
    33    27    25    1
    34    21    14   ar
    35     9    11    1
    36     9    12    1
@<TRIPOS>MOLECULE
*****
 34 36 0 0 0
SMALL
GASTEIGER

@<TRIPOS>ATOM
      1 C          -7.5760  -19.2996   21.7604 C.2     1  UNL1        0.2270
      2 O          -7.1184  -18.2648   22.7452 O.2     1  UNL1       -0.2748
      3 N          -8.7909  -19.0476   20.9176 N.am    1  UNL1       -0.2797
      4 C          -9.3650  -19.9839   19.8960 C.3     1  UNL1        0.0934
      5 C         -10.5740  -19.3299   19.2954 C.3     1  UNL1        0.0233
      6 C         -10.7470  -17.9894   19.9458 C.3     1  UNL1        0.0230
      7 C          -9.6451  -17.8149   20.9484 C.3     1  UNL1        0.0931
      8 C          -6.8187  -20.5866   21.6185 C.3     1  UNL1        0.1010
      9 N          -6.6684  -21.0106   19.0597 N.3     1  UNL1       -0.3215
     10 C          -5.9965  -20.8415   20.3901 C.3     1  UNL1        0.0644
     11 H          -7.6780  -20.9228   19.1751 H       1  UNL1        0.1188
     12 H          -6.4481  -21.9322   18.6822 H       1  UNL1        0.1188
     13 C          -4.5024  -20.9273   20.4920 C.3     1  UNL1        0.0447
     14 C          -3.6855  -19.6747   20.6099 C.ar    1  UNL1        0.0090
     15 C          -3.0504  -19.0760   19.3900 C.ar    1  UNL1        0.0300
     16 C          -2.2336  -17.8235   19.5079 C.ar    1  UNL1        0.1672
     17 F          -1.5984  -17.2247   18.2880 F       1  UNL1       -0.2018
     18 C          -2.0519  -17.1697   20.8456 C.ar    1  UNL1        0.1696
     19 F          -1.2350  -15.9171   20.9635 F       1  UNL1       -0.2017
     20 C          -2.6870  -17.7684   22.0655 C.ar    1  UNL1        0.0612
     21 C          -3.5038  -19.0209   21.9476 C.ar    1  UNL1        0.1386
     22 F          -4.1390  -19.6197   23.1675 F       1  UNL1       -0.2044
     23 C          -9.4343  -16.6179   21.8275 C.3     1  UNL1        0.1153
     24 N          -9.9581  -16.6179   23.2331 N.3     1  UNL1       -0.1518
     25 C          -9.1215  -16.0585   24.3453 C.3     1  UNL1        0.0796
     26 C          -8.0771  -15.0958   24.8275 C.3     1  UNL1        0.0191
     27 C          -8.7170  -16.0524   25.7898 C.3     1  UNL1        0.0191
     28 S         -11.3186  -17.1773   23.5263 S.O2    1  UNL1        0.1303
     29 O         -11.9490  -16.0203   22.8092 O.2     1  UNL1       -0.1495
     30 O         -10.6884  -18.3343   24.2434 O.2     1  UNL1       -0.1495
     31 C         -12.6792  -17.7367   23.8196 C.3     1  UNL1        0.5359
     32 F         -12.0528  -18.8423   24.6167 F       1  UNL1       -0.1493
     33 F         -13.3056  -16.6312   23.0224 F       1  UNL1       -0.1493
     34 F         -14.0397  -18.2962   24.1129 F       1  UNL1       -0.1493
@<TRIPOS>BOND
     1    10     9    1
     2    10     8    1
     3     8     1    1
     4     1     2    2
     5     1     3   am
     6     3     4    1
     7     4     5    1
     8     5     6    1
     9     6     7    1
    10     7    23    1
    11    23    24    1
    12    24    25    1
    13    25    26    1
    14    26    27    1
    15    24    28    1
    16    28    29    2
    17    28    30    2
    18    28    31    1
    19    31    32    1
    20    31    33    1
    21    31    34    1
    22    10    13    1
    23    13    14    1
    24    14    15   ar
    25    15    16   ar
    26    16    17    1
    27    16    18   ar
    28    18    19    1
    29    18    20   ar
    30    20    21   ar
    31    21    22    1
    32     7     3    1
    33    27    25    1
    34    21    14   ar
    35     9    11    1
    36     9    12    1
