@<TRIPOS>MOLECULE
*****
 22 24 0 0 0
SMALL
GASTEIGER

@<TRIPOS>ATOM
      1 C          -7.6885  -18.4319   22.1435 C.3     1  UNL1        0.1753
      2 O          -8.3641  -19.6810   21.6605 O.3     1  UNL1       -0.3460
      3 C          -9.8545  -19.7112   21.4942 C.3     1  UNL1        0.1685
      4 C         -10.6694  -18.4923   21.8109 C.ar    1  UNL1        0.0067
      5 C         -12.1598  -18.5225   21.6446 C.ar    1  UNL1       -0.0021
      6 C         -12.9746  -17.3036   21.9613 C.ar    1  UNL1       -0.0003
      7 C         -12.2990  -16.0545   22.4443 C.ar    1  UNL1       -0.0002
      8 C         -10.8086  -16.0243   22.6106 C.ar    1  UNL1       -0.0010
      9 C          -9.9938  -17.2432   22.2939 C.ar    1  UNL1        0.0181
     10 C          -8.5033  -17.2130   22.4602 C.3     1  UNL1        0.2161
     11 C          -6.1980  -18.4018   22.3098 C.3     1  UNL1        0.1027
     12 C          -4.9348  -19.8802   20.5869 C.3     1  UNL1        0.0859
     13 N          -5.3068  -18.5243   21.1095 N.3     1  UNL1       -0.2942
     14 H          -5.7712  -18.0319   20.3464 H       1  UNL1        0.1234
     15 O          -7.8277  -15.9639   22.9432 O.3     1  UNL1       -0.4725
     16 C          -7.5003  -15.8030   24.3981 C.ar    1  UNL1        0.1349
     17 C          -8.5798  -15.9447   25.4299 C.ar    1  UNL1        0.0366
     18 C          -8.2524  -15.7837   26.8849 C.ar    1  UNL1        0.0031
     19 C          -6.8455  -15.4810   27.3080 C.ar    1  UNL1       -0.0001
     20 C          -5.7661  -15.3393   26.2763 C.ar    1  UNL1       -0.0013
     21 C          -6.0934  -15.5003   24.8213 C.ar    1  UNL1        0.0121
     22 C          -5.0139  -15.3586   23.7895 C.3     1  UNL1        0.0342
@<TRIPOS>BOND
     1    12    13    1
     2    13    11    1
     3     1    11    1
     4     1     2    1
     5     2     3    1
     6     3     4    1
     7     4     5   ar
     8     5     6   ar
     9     6     7   ar
    10     7     8   ar
    11     8     9   ar
    12     9    10    1
    13    10    15    1
    14    15    16    1
    15    16    17   ar
    16    17    18   ar
    17    18    19   ar
    18    19    20   ar
    19    20    21   ar
    20    21    22    1
    21    10     1    1
    22    21    16   ar
    23     9     4   ar
    24    13    14    1
@<TRIPOS>MOLECULE
*****
 22 24 0 0 0
SMALL
GASTEIGER

@<TRIPOS>ATOM
      1 C          -6.8661  -16.4787   23.1847 C.3     1  UNL1        0.1753
      2 O          -5.4639  -16.9498   23.4336 O.3     1  UNL1       -0.3460
      3 C          -4.9424  -18.1621   22.7206 C.3     1  UNL1        0.1685
      4 C          -5.8230  -18.9032   21.7586 C.ar    1  UNL1        0.0067
      5 C          -5.3014  -20.1154   21.0456 C.ar    1  UNL1       -0.0021
      6 C          -6.1820  -20.8564   20.0836 C.ar    1  UNL1       -0.0003
      7 C          -7.5841  -20.3852   19.8347 C.ar    1  UNL1       -0.0002
      8 C          -8.1057  -19.1730   20.5477 C.ar    1  UNL1       -0.0010
      9 C          -7.2251  -18.4320   21.5096 C.ar    1  UNL1        0.0181
     10 C          -7.7467  -17.2197   22.2227 C.3     1  UNL1        0.2161
     11 C          -7.3876  -15.2664   23.8977 C.3     1  UNL1        0.1027
     12 C          -6.1414  -15.1684   26.1752 C.3     1  UNL1        0.0859
     13 N          -6.5108  -14.5320   24.8682 N.3     1  UNL1       -0.2942
     14 H          -5.6373  -14.3304   24.3816 H       1  UNL1        0.1234
     15 O          -9.1488  -16.7485   21.9738 O.3     1  UNL1       -0.4725
     16 C         -10.2899  -17.3535   22.7366 C.ar    1  UNL1        0.1349
     17 C         -10.0182  -18.2207   23.9300 C.ar    1  UNL1        0.0366
     18 C         -11.1593  -18.8257   24.6928 C.ar    1  UNL1        0.0031
     19 C         -12.5721  -18.5635   24.2623 C.ar    1  UNL1       -0.0001
     20 C         -12.8437  -17.6963   23.0689 C.ar    1  UNL1       -0.0013
     21 C         -11.7026  -17.0913   22.3060 C.ar    1  UNL1        0.0121
     22 C         -11.9743  -16.2241   21.1127 C.3     1  UNL1        0.0342
@<TRIPOS>BOND
     1    12    13    1
     2    13    11    1
     3     1    11    1
     4     1     2    1
     5     2     3    1
     6     3     4    1
     7     4     5   ar
     8     5     6   ar
     9     6     7   ar
    10     7     8   ar
    11     8     9   ar
    12     9    10    1
    13    10    15    1
    14    15    16    1
    15    16    17   ar
    16    17    18   ar
    17    18    19   ar
    18    19    20   ar
    19    20    21   ar
    20    21    22    1
    21    10     1    1
    22    21    16   ar
    23     9     4   ar
    24    13    14    1
@<TRIPOS>MOLECULE
*****
 22 24 0 0 0
SMALL
GASTEIGER

@<TRIPOS>ATOM
      1 C          -7.1625  -17.5696   22.7650 C.3     1  UNL1        0.1753
      2 O          -5.8596  -16.8264   22.7773 O.3     1  UNL1       -0.3460
      3 C          -5.4878  -15.9841   23.9614 C.3     1  UNL1        0.1685
      4 C          -6.4188  -15.8851   25.1334 C.ar    1  UNL1        0.0067
      5 C          -6.0470  -15.0428   26.3176 C.ar    1  UNL1       -0.0021
      6 C          -6.9780  -14.9438   27.4894 C.ar    1  UNL1       -0.0003
      7 C          -8.2809  -15.6870   27.4772 C.ar    1  UNL1       -0.0002
      8 C          -8.6527  -16.5293   26.2930 C.ar    1  UNL1       -0.0010
      9 C          -7.7217  -16.6283   25.1211 C.ar    1  UNL1        0.0181
     10 C          -8.0935  -17.4706   23.9369 C.3     1  UNL1        0.2161
     11 C          -7.5343  -18.4119   21.5807 C.3     1  UNL1        0.1027
     12 C          -5.5396  -19.2811   20.1611 C.3     1  UNL1        0.0859
     13 N          -6.7074  -18.3550   20.3306 N.3     1  UNL1       -0.2942
     14 H          -7.3401  -18.5331   19.5507 H       1  UNL1        0.1234
     15 O          -9.3964  -18.2139   23.9246 O.3     1  UNL1       -0.4725
     16 C         -10.5274  -17.7308   23.0659 C.ar    1  UNL1        0.1349
     17 C         -10.9338  -16.2873   23.1032 C.ar    1  UNL1        0.0366
     18 C         -12.0648  -15.8042   22.2445 C.ar    1  UNL1        0.0031
     19 C         -12.7894  -16.7644   21.3486 C.ar    1  UNL1       -0.0001
     20 C         -12.3831  -18.2078   21.3113 C.ar    1  UNL1       -0.0013
     21 C         -11.2520  -18.6910   22.1700 C.ar    1  UNL1        0.0121
     22 C         -10.8457  -20.1344   22.1327 C.3     1  UNL1        0.0342
@<TRIPOS>BOND
     1    12    13    1
     2    13    11    1
     3     1    11    1
     4     1     2    1
     5     2     3    1
     6     3     4    1
     7     4     5   ar
     8     5     6   ar
     9     6     7   ar
    10     7     8   ar
    11     8     9   ar
    12     9    10    1
    13    10    15    1
    14    15    16    1
    15    16    17   ar
    16    17    18   ar
    17    18    19   ar
    18    19    20   ar
    19    20    21   ar
    20    21    22    1
    21    10     1    1
    22    21    16   ar
    23     9     4   ar
    24    13    14    1
@<TRIPOS>MOLECULE
*****
 22 24 0 0 0
SMALL
GASTEIGER

@<TRIPOS>ATOM
      1 C          -6.6762  -18.8768   21.3080 C.3     1  UNL1        0.1753
      2 O          -5.2646  -19.0127   21.7968 O.3     1  UNL1       -0.3460
      3 C          -4.7465  -18.0890   22.8590 C.3     1  UNL1        0.1685
      4 C          -5.6401  -17.0294   23.4325 C.ar    1  UNL1        0.0067
      5 C          -5.1220  -16.1057   24.4947 C.ar    1  UNL1       -0.0021
      6 C          -6.0155  -15.0461   25.0682 C.ar    1  UNL1       -0.0003
      7 C          -7.4271  -14.9102   24.5794 C.ar    1  UNL1       -0.0002
      8 C          -7.9452  -15.8339   23.5172 C.ar    1  UNL1       -0.0010
      9 C          -7.0517  -16.8935   22.9437 C.ar    1  UNL1        0.0181
     10 C          -7.5697  -17.8172   21.8814 C.3     1  UNL1        0.2161
     11 C          -7.1943  -19.8006   20.2457 C.3     1  UNL1        0.1027
     12 C          -9.1006  -20.2546   18.5400 C.3     1  UNL1        0.0859
     13 N          -8.1715  -19.2969   19.2253 N.3     1  UNL1       -0.2942
     14 H          -8.7556  -18.6042   19.6936 H       1  UNL1        0.1234
     15 O          -8.9814  -17.6814   21.3927 O.3     1  UNL1       -0.4725
     16 C         -10.1264  -17.9629   22.3197 C.ar    1  UNL1        0.1349
     17 C          -9.9622  -18.9516   23.4358 C.ar    1  UNL1        0.0366
     18 C         -11.1073  -19.2331   24.3629 C.ar    1  UNL1        0.0031
     19 C         -12.4166  -18.5260   24.1740 C.ar    1  UNL1       -0.0001
     20 C         -12.5808  -17.5374   23.0579 C.ar    1  UNL1       -0.0013
     21 C         -11.4357  -17.2558   22.1308 C.ar    1  UNL1        0.0121
     22 C         -11.6000  -16.2671   21.0148 C.3     1  UNL1        0.0342
@<TRIPOS>BOND
     1    12    13    1
     2    13    11    1
     3     1    11    1
     4     1     2    1
     5     2     3    1
     6     3     4    1
     7     4     5   ar
     8     5     6   ar
     9     6     7   ar
    10     7     8   ar
    11     8     9   ar
    12     9    10    1
    13    10    15    1
    14    15    16    1
    15    16    17   ar
    16    17    18   ar
    17    18    19   ar
    18    19    20   ar
    19    20    21   ar
    20    21    22    1
    21    10     1    1
    22    21    16   ar
    23     9     4   ar
    24    13    14    1
@<TRIPOS>MOLECULE
*****
 22 24 0 0 0
SMALL
GASTEIGER

@<TRIPOS>ATOM
      1 C          -6.4655  -16.7786   23.5141 C.3     1  UNL1        0.1753
      2 O          -4.9869  -16.5683   23.3744 O.3     1  UNL1       -0.3460
      3 C          -4.1727  -17.5037   22.5306 C.3     1  UNL1        0.1685
      4 C          -4.8371  -18.6495   21.8264 C.ar    1  UNL1        0.0067
      5 C          -4.0229  -19.5849   20.9826 C.ar    1  UNL1       -0.0021
      6 C          -4.6873  -20.7306   20.2785 C.ar    1  UNL1       -0.0003
      7 C          -6.1659  -20.9409   20.4181 C.ar    1  UNL1       -0.0002
      8 C          -6.9801  -20.0055   21.2619 C.ar    1  UNL1       -0.0010
      9 C          -6.3157  -18.8598   21.9661 C.ar    1  UNL1        0.0181
     10 C          -7.1299  -17.9243   22.8099 C.3     1  UNL1        0.2161
     11 C          -7.2798  -15.8431   24.3579 C.3     1  UNL1        0.1027
     12 C          -5.8946  -15.1740   26.4516 C.3     1  UNL1        0.0859
     13 N          -6.5986  -14.7921   25.1833 N.3     1  UNL1       -0.2942
     14 H          -5.9030  -14.3505   24.5820 H       1  UNL1        0.1234
     15 O          -8.6085  -18.1347   22.9496 O.3     1  UNL1       -0.4725
     16 C          -9.5478  -17.5541   21.9344 C.ar    1  UNL1        0.1349
     17 C          -9.4876  -16.0915   21.6069 C.ar    1  UNL1        0.0366
     18 C         -10.4269  -15.5109   20.5918 C.ar    1  UNL1        0.0031
     19 C         -11.4265  -16.3929   19.9041 C.ar    1  UNL1       -0.0001
     20 C         -11.4868  -17.8554   20.2315 C.ar    1  UNL1       -0.0013
     21 C         -10.5474  -18.4361   21.2467 C.ar    1  UNL1        0.0121
     22 C         -10.6077  -19.8986   21.5742 C.3     1  UNL1        0.0342
@<TRIPOS>BOND
     1    12    13    1
     2    13    11    1
     3     1    11    1
     4     1     2    1
     5     2     3    1
     6     3     4    1
     7     4     5   ar
     8     5     6   ar
     9     6     7   ar
    10     7     8   ar
    11     8     9   ar
    12     9    10    1
    13    10    15    1
    14    15    16    1
    15    16    17   ar
    16    17    18   ar
    17    18    19   ar
    18    19    20   ar
    19    20    21   ar
    20    21    22    1
    21    10     1    1
    22    21    16   ar
    23     9     4   ar
    24    13    14    1
@<TRIPOS>MOLECULE
*****
 22 24 0 0 0
SMALL
GASTEIGER

@<TRIPOS>ATOM
      1 C          -6.9307  -16.6821   23.3723 C.3     1  UNL1        0.1753
      2 O          -5.9838  -15.5253   23.4954 O.3     1  UNL1       -0.3460
      3 C          -4.5280  -15.7115   23.1858 C.3     1  UNL1        0.1685
      4 C          -4.0190  -17.0546   22.7532 C.ar    1  UNL1        0.0067
      5 C          -2.5632  -17.2409   22.4436 C.ar    1  UNL1       -0.0021
      6 C          -2.0543  -18.5839   22.0110 C.ar    1  UNL1       -0.0003
      7 C          -3.0012  -19.7407   21.8879 C.ar    1  UNL1       -0.0002
      8 C          -4.4570  -19.5545   22.1974 C.ar    1  UNL1       -0.0010
      9 C          -4.9659  -18.2114   22.6301 C.ar    1  UNL1        0.0181
     10 C          -6.4218  -18.0252   22.9396 C.3     1  UNL1        0.2161
     11 C          -8.3866  -16.4958   23.6819 C.3     1  UNL1        0.1027
     12 C          -8.4209  -15.4720   26.0694 C.3     1  UNL1        0.0859
     13 N          -8.8203  -15.4129   24.6248 N.3     1  UNL1       -0.2942
     14 H          -8.4549  -14.5358   24.2539 H       1  UNL1        0.1234
     15 O          -7.3687  -19.1820   22.8165 O.3     1  UNL1       -0.4725
     16 C          -8.2089  -19.3356   21.5834 C.ar    1  UNL1        0.1349
     17 C          -7.5624  -19.3291   20.2298 C.ar    1  UNL1        0.0366
     18 C          -8.4025  -19.4827   18.9967 C.ar    1  UNL1        0.0031
     19 C          -9.8891  -19.6428   19.1172 C.ar    1  UNL1       -0.0001
     20 C         -10.5355  -19.6493   20.4707 C.ar    1  UNL1       -0.0013
     21 C          -9.6954  -19.4956   21.7038 C.ar    1  UNL1        0.0121
     22 C         -10.3419  -19.5021   23.0573 C.3     1  UNL1        0.0342
@<TRIPOS>BOND
     1    12    13    1
     2    13    11    1
     3     1    11    1
     4     1     2    1
     5     2     3    1
     6     3     4    1
     7     4     5   ar
     8     5     6   ar
     9     6     7   ar
    10     7     8   ar
    11     8     9   ar
    12     9    10    1
    13    10    15    1
    14    15    16    1
    15    16    17   ar
    16    17    18   ar
    17    18    19   ar
    18    19    20   ar
    19    20    21   ar
    20    21    22    1
    21    10     1    1
    22    21    16   ar
    23     9     4   ar
    24    13    14    1
@<TRIPOS>MOLECULE
*****
 22 24 0 0 0
SMALL
GASTEIGER

@<TRIPOS>ATOM
      1 C          -7.4278  -18.8019   22.1650 C.3     1  UNL1        0.1753
      2 O          -6.9491  -20.1673   21.7696 O.3     1  UNL1       -0.3460
      3 C          -5.4787  -20.4541   21.6950 C.3     1  UNL1        0.1685
      4 C          -4.4869  -19.3754   22.0158 C.ar    1  UNL1        0.0067
      5 C          -3.0165  -19.6621   21.9412 C.ar    1  UNL1       -0.0021
      6 C          -2.0248  -18.5834   22.2620 C.ar    1  UNL1       -0.0003
      7 C          -2.5036  -17.2180   22.6574 C.ar    1  UNL1       -0.0002
      8 C          -3.9740  -16.9312   22.7320 C.ar    1  UNL1       -0.0010
      9 C          -4.9656  -18.0099   22.4112 C.ar    1  UNL1        0.0181
     10 C          -6.4361  -17.7232   22.4858 C.3     1  UNL1        0.2161
     11 C          -8.8983  -18.5151   22.2396 C.3     1  UNL1        0.1027
     12 C          -9.8440  -20.0726   24.0916 C.3     1  UNL1        0.0859
     13 N          -9.8511  -19.5902   22.6713 N.3     1  UNL1       -0.2942
     14 H         -10.7916  -19.2432   22.4829 H       1  UNL1        0.1234
     15 O          -6.9149  -16.3577   22.8812 O.3     1  UNL1       -0.4725
     16 C          -7.0025  -15.9845   24.3314 C.ar    1  UNL1        0.1349
     17 C          -5.7532  -15.6835   25.1052 C.ar    1  UNL1        0.0366
     18 C          -5.8408  -15.3102   26.5554 C.ar    1  UNL1        0.0031
     19 C          -7.1777  -15.2380   27.2318 C.ar    1  UNL1       -0.0001
     20 C          -8.4270  -15.5390   26.4580 C.ar    1  UNL1       -0.0013
     21 C          -8.3394  -15.9122   25.0078 C.ar    1  UNL1        0.0121
     22 C          -9.5886  -16.2132   24.2340 C.3     1  UNL1        0.0342
@<TRIPOS>BOND
     1    12    13    1
     2    13    11    1
     3     1    11    1
     4     1     2    1
     5     2     3    1
     6     3     4    1
     7     4     5   ar
     8     5     6   ar
     9     6     7   ar
    10     7     8   ar
    11     8     9   ar
    12     9    10    1
    13    10    15    1
    14    15    16    1
    15    16    17   ar
    16    17    18   ar
    17    18    19   ar
    18    19    20   ar
    19    20    21   ar
    20    21    22    1
    21    10     1    1
    22    21    16   ar
    23     9     4   ar
    24    13    14    1
@<TRIPOS>MOLECULE
*****
 22 24 0 0 0
SMALL
GASTEIGER

@<TRIPOS>ATOM
      1 C          -6.1857  -16.3230   23.7554 C.3     1  UNL1        0.1753
      2 O          -4.7712  -16.6011   24.1697 O.3     1  UNL1       -0.3460
      3 C          -4.0003  -17.7066   23.5113 C.3     1  UNL1        0.1685
      4 C          -4.6440  -18.5341   22.4385 C.ar    1  UNL1        0.0067
      5 C          -3.8732  -19.6397   21.7800 C.ar    1  UNL1       -0.0021
      6 C          -4.5169  -20.4671   20.7073 C.ar    1  UNL1       -0.0003
      7 C          -5.9315  -20.1890   20.2929 C.ar    1  UNL1       -0.0002
      8 C          -6.7023  -19.0835   20.9513 C.ar    1  UNL1       -0.0010
      9 C          -6.0586  -18.2560   22.0241 C.ar    1  UNL1        0.0181
     10 C          -6.8294  -17.1504   22.6826 C.3     1  UNL1        0.2161
     11 C          -6.9565  -15.2174   24.4138 C.3     1  UNL1        0.1027
     12 C          -6.6555  -15.4739   26.9816 C.3     1  UNL1        0.0859
     13 N          -6.4969  -14.6630   25.7296 N.3     1  UNL1       -0.2942
     14 H          -5.5016  -14.4622   25.6330 H       1  UNL1        0.1234
     15 O          -8.2440  -16.8723   22.2682 O.3     1  UNL1       -0.4725
     16 C          -9.2371  -17.9938   22.1907 C.ar    1  UNL1        0.1349
     17 C          -9.6423  -18.5459   20.8561 C.ar    1  UNL1        0.0366
     18 C         -10.6354  -19.6673   20.7786 C.ar    1  UNL1        0.0031
     19 C         -11.2233  -20.2368   22.0357 C.ar    1  UNL1       -0.0001
     20 C         -10.8181  -19.6848   23.3702 C.ar    1  UNL1       -0.0013
     21 C          -9.8249  -18.5632   23.4478 C.ar    1  UNL1        0.0121
     22 C          -9.4197  -18.0112   24.7823 C.3     1  UNL1        0.0342
@<TRIPOS>BOND
     1    12    13    1
     2    13    11    1
     3     1    11    1
     4     1     2    1
     5     2     3    1
     6     3     4    1
     7     4     5   ar
     8     5     6   ar
     9     6     7   ar
    10     7     8   ar
    11     8     9   ar
    12     9    10    1
    13    10    15    1
    14    15    16    1
    15    16    17   ar
    16    17    18   ar
    17    18    19   ar
    18    19    20   ar
    19    20    21   ar
    20    21    22    1
    21    10     1    1
    22    21    16   ar
    23     9     4   ar
    24    13    14    1
@<TRIPOS>MOLECULE
*****
 22 24 0 0 0
SMALL
GASTEIGER

@<TRIPOS>ATOM
      1 C          -8.9093  -18.5006   21.2508 C.3     1  UNL1        0.1753
      2 O          -8.2578  -19.6190   20.4926 O.3     1  UNL1       -0.3460
      3 C          -6.7942  -19.8938   20.6720 C.3     1  UNL1        0.1685
      4 C          -5.9820  -19.0503   21.6095 C.ar    1  UNL1        0.0067
      5 C          -4.5183  -19.3252   21.7889 C.ar    1  UNL1       -0.0021
      6 C          -3.7062  -18.4817   22.7264 C.ar    1  UNL1       -0.0003
      7 C          -4.3578  -17.3634   23.4845 C.ar    1  UNL1       -0.0002
      8 C          -5.8214  -17.0885   23.3052 C.ar    1  UNL1       -0.0010
      9 C          -6.6335  -17.9320   22.3677 C.ar    1  UNL1        0.0181
     10 C          -8.0972  -17.6571   22.1883 C.3     1  UNL1        0.2161
     11 C         -10.3730  -18.2257   21.0713 C.3     1  UNL1        0.1027
     12 C         -12.2800  -16.4615   21.0852 C.3     1  UNL1        0.0859
     13 N         -10.8482  -16.8246   20.8245 N.3     1  UNL1       -0.2942
     14 H         -10.2783  -16.2131   21.4089 H       1  UNL1        0.1234
     15 O          -8.7487  -16.5387   22.9464 O.3     1  UNL1       -0.4725
     16 C          -8.6023  -16.4580   24.4370 C.ar    1  UNL1        0.1349
     17 C          -7.8175  -15.3383   25.0540 C.ar    1  UNL1        0.0366
     18 C          -7.6710  -15.2576   26.5446 C.ar    1  UNL1        0.0031
     19 C          -8.3094  -16.2964   27.4183 C.ar    1  UNL1       -0.0001
     20 C          -9.0941  -17.4160   26.8014 C.ar    1  UNL1       -0.0013
     21 C          -9.2406  -17.4968   25.3107 C.ar    1  UNL1        0.0121
     22 C         -10.0254  -18.6164   24.6938 C.3     1  UNL1        0.0342
@<TRIPOS>BOND
     1    12    13    1
     2    13    11    1
     3     1    11    1
     4     1     2    1
     5     2     3    1
     6     3     4    1
     7     4     5   ar
     8     5     6   ar
     9     6     7   ar
    10     7     8   ar
    11     8     9   ar
    12     9    10    1
    13    10    15    1
    14    15    16    1
    15    16    17   ar
    16    17    18   ar
    17    18    19   ar
    18    19    20   ar
    19    20    21   ar
    20    21    22    1
    21    10     1    1
    22    21    16   ar
    23     9     4   ar
    24    13    14    1
