@<TRIPOS>MOLECULE
*****
 35 40 0 0 0
SMALL
GASTEIGER

@<TRIPOS>ATOM
      1 C          -6.2910  -19.8211   21.7886 C.ar    1  UNL1        0.0377
      2 C          -6.0419  -20.6452   20.5602 C.ar    1  UNL1        0.0031
      3 C          -4.7616  -20.4836   19.7956 C.ar    1  UNL1        0.0002
      4 C          -3.7303  -19.4980   20.2594 C.ar    1  UNL1        0.0042
      5 C          -2.4500  -19.3364   19.4948 C.ar    1  UNL1        0.0208
      6 C          -1.4187  -18.3508   19.9586 C.ar    1  UNL1        0.1003
      7 N          -1.6678  -17.5268   21.1870 N.ar    1  UNL1       -0.2294
      8 C          -2.9481  -17.6883   21.9516 C.ar    1  UNL1        0.1285
      9 C          -3.9794  -18.6739   21.4878 C.ar    1  UNL1        0.0315
     10 C          -5.2598  -18.8356   22.2524 C.ar    1  UNL1        0.0059
     11 C         -12.8787  -15.5701   22.2768 C.3     1  UNL1        0.1124
     12 N         -12.6380  -16.8498   23.0213 N.pl3   1  UNL1       -0.2987
     13 C         -13.6954  -17.3971   23.9335 C.3     1  UNL1        0.1387
     14 C         -13.4547  -18.6769   24.6780 C.3     1  UNL1        0.2269
     15 O         -12.1565  -19.4093   24.5103 O.3     1  UNL1       -0.4692
     16 C         -11.0990  -18.8619   23.5982 C.ar    1  UNL1        0.1907
     17 C         -11.3397  -17.5822   22.8537 C.ar    1  UNL1        0.1067
     18 C         -10.2822  -17.0349   21.9415 C.ar    1  UNL1        0.1382
     19 N          -8.9839  -17.7673   21.7738 N.ar    1  UNL1       -0.1593
     20 N          -8.7432  -19.0470   22.5184 N.ar    1  UNL1       -0.1884
     21 C          -7.5714  -19.9827   22.5532 C.ar    1  UNL1        0.1866
     22 N          -7.9046  -21.1084   23.4870 N.ar    1  UNL1       -0.1268
     23 N          -9.2825  -20.8683   24.0292 N.ar    1  UNL1       -0.1237
     24 C          -9.8007  -19.5943   23.4305 C.ar    1  UNL1        0.2217
     25 N          -3.1973  -16.8643   23.1800 N.pl3   1  UNL1       -0.3159
     26 H          -2.5520  -16.8813   23.9234 H       1  UNL1        0.1483
     27 C          -4.4296  -16.0145   23.2757 C.3     1  UNL1        0.1212
     28 C          -5.1724  -15.9142   24.5750 C.3     1  UNL1        0.1543
     29 F          -3.8799  -16.5019   25.0586 F       1  UNL1       -0.2382
     30 C          -6.2070  -15.3614   23.6401 C.3     1  UNL1        0.0514
     31 C          -7.5355  -14.9124   24.1725 C.3     1  UNL1        0.0714
     32 N          -7.8294  -15.0162   25.6398 N.3     1  UNL1       -0.2973
     33 C          -6.7948  -15.5691   26.5747 C.3     1  UNL1        0.0714
     34 C          -5.4663  -16.0181   26.0423 C.3     1  UNL1        0.0514
     35 H          -8.6562  -15.6062   25.7334 H       1  UNL1        0.1233
@<TRIPOS>BOND
     1    11    12    1
     2    12    13    1
     3    13    14    1
     4    14    15    1
     5    15    16    1
     6    16    17   ar
     7    17    18   ar
     8    18    19   ar
     9    19    20   ar
    10    20    21   ar
    11    21     1    1
    12     1     2   ar
    13     2     3   ar
    14     3     4   ar
    15     4     5   ar
    16     5     6   ar
    17     6     7   ar
    18     7     8   ar
    19     8    25    1
    20    25    27    1
    21    27    28    1
    22    28    29    1
    23    28    30    1
    24    30    31    1
    25    31    32    1
    26    32    33    1
    27    33    34    1
    28     8     9   ar
    29     9    10   ar
    30    21    22   ar
    31    22    23   ar
    32    23    24   ar
    33    17    12    1
    34    24    20   ar
    35    24    16   ar
    36    10     1   ar
    37     9     4   ar
    38    34    28    1
    39    25    26    1
    40    32    35    1
@<TRIPOS>MOLECULE
*****
 35 40 0 0 0
SMALL
GASTEIGER

@<TRIPOS>ATOM
      1 C           2.8884    0.6768   32.4879 C.ar    1  UNL1        0.0377
      2 C           2.0831    0.9551   31.2533 C.ar    1  UNL1        0.0031
      3 C           1.2016    2.1670   31.1903 C.ar    1  UNL1        0.0002
      4 C           1.1252    3.1007   32.3618 C.ar    1  UNL1        0.0042
      5 C           0.2436    4.3126   32.2987 C.ar    1  UNL1        0.0208
      6 C           0.1672    5.2463   33.4702 C.ar    1  UNL1        0.1003
      7 N           0.9724    4.9680   34.7048 N.ar    1  UNL1       -0.2294
      8 C           1.8540    3.7561   34.7679 C.ar    1  UNL1        0.1285
      9 C           1.9304    2.8224   33.5964 C.ar    1  UNL1        0.0315
     10 C           2.8120    1.6104   33.6594 C.ar    1  UNL1        0.0059
     11 C           7.7769   -2.7340   27.3716 C.3     1  UNL1        0.1124
     12 N           7.5203   -3.2344   28.7622 N.pl3   1  UNL1       -0.2987
     13 C           8.2198   -4.4654   29.2574 C.3     1  UNL1        0.1387
     14 C           7.9632   -4.9657   30.6480 C.3     1  UNL1        0.2269
     15 O           7.0071   -4.2350   31.5435 O.3     1  UNL1       -0.4692
     16 C           6.3077   -3.0039   31.0483 C.ar    1  UNL1        0.1907
     17 C           6.5643   -2.5036   29.6577 C.ar    1  UNL1        0.1067
     18 C           5.8647   -1.2725   29.1626 C.ar    1  UNL1        0.1382
     19 N           4.9087   -0.5418   30.0580 N.ar    1  UNL1       -0.1593
     20 N           4.6521   -1.0421   31.4487 N.ar    1  UNL1       -0.1884
     21 C           3.7700   -0.5352   32.5509 C.ar    1  UNL1        0.1866
     22 N           3.9244   -1.4529   33.7273 N.ar    1  UNL1       -0.1268
     23 N           4.9019   -2.5271   33.3521 N.ar    1  UNL1       -0.1237
     24 C           5.3515   -2.2731   31.9438 C.ar    1  UNL1        0.2217
     25 N           2.6593    3.4778   36.0024 N.pl3   1  UNL1       -0.3159
     26 H           3.5437    3.0516   35.9277 H       1  UNL1        0.1483
     27 C           2.1171    3.8487   37.3509 C.3     1  UNL1        0.1212
     28 C           1.6011    2.7824   38.2711 C.3     1  UNL1        0.1543
     29 F           0.3741    3.6363   38.1480 F       1  UNL1       -0.2382
     30 C           3.0074    2.2988   38.0746 C.3     1  UNL1        0.0514
     31 C           3.4715    1.0455   38.7556 C.3     1  UNL1        0.0714
     32 N           2.5293    0.2757   39.6330 N.3     1  UNL1       -0.2973
     33 C           1.1231    0.7593   39.8295 C.3     1  UNL1        0.0714
     34 C           0.6590    2.0127   39.1485 C.3     1  UNL1        0.0514
     35 H           2.9575    0.2319   40.5577 H       1  UNL1        0.1233
@<TRIPOS>BOND
     1    11    12    1
     2    12    13    1
     3    13    14    1
     4    14    15    1
     5    15    16    1
     6    16    17   ar
     7    17    18   ar
     8    18    19   ar
     9    19    20   ar
    10    20    21   ar
    11    21     1    1
    12     1     2   ar
    13     2     3   ar
    14     3     4   ar
    15     4     5   ar
    16     5     6   ar
    17     6     7   ar
    18     7     8   ar
    19     8    25    1
    20    25    27    1
    21    27    28    1
    22    28    29    1
    23    28    30    1
    24    30    31    1
    25    31    32    1
    26    32    33    1
    27    33    34    1
    28     8     9   ar
    29     9    10   ar
    30    21    22   ar
    31    22    23   ar
    32    23    24   ar
    33    17    12    1
    34    24    20   ar
    35    24    16   ar
    36    10     1   ar
    37     9     4   ar
    38    34    28    1
    39    25    26    1
    40    32    35    1
@<TRIPOS>MOLECULE
*****
 35 40 0 0 0
SMALL
GASTEIGER

@<TRIPOS>ATOM
      1 C           7.0884   -4.9871   25.2351 C.ar    1  UNL1        0.0377
      2 C           7.3194   -6.3752   25.7546 C.ar    1  UNL1        0.0031
      3 C           7.3320   -6.6303   27.2327 C.ar    1  UNL1        0.0002
      4 C           7.1137   -5.4973   28.1912 C.ar    1  UNL1        0.0042
      5 C           7.1264   -5.7525   29.6693 C.ar    1  UNL1        0.0208
      6 C           6.9081   -4.6195   30.6278 C.ar    1  UNL1        0.1003
      7 N           6.6772   -3.2315   30.1083 N.ar    1  UNL1       -0.2294
      8 C           6.6645   -2.9763   28.6302 C.ar    1  UNL1        0.1285
      9 C           6.8827   -4.1093   27.6717 C.ar    1  UNL1        0.0315
     10 C           6.8701   -3.8542   26.1935 C.ar    1  UNL1        0.0059
     11 C           2.3870   -0.8463   20.4960 C.3     1  UNL1        0.1124
     12 N           3.5844   -1.6233   20.0351 N.pl3   1  UNL1       -0.2987
     13 C           3.9515   -1.6429   18.5808 C.3     1  UNL1        0.1387
     14 C           5.1489   -2.4199   18.1199 C.3     1  UNL1        0.2269
     15 O           5.9793   -3.1773   19.1133 O.3     1  UNL1       -0.4692
     16 C           5.6123   -3.1577   20.5675 C.ar    1  UNL1        0.1907
     17 C           4.4148   -2.3807   21.0284 C.ar    1  UNL1        0.1067
     18 C           4.0478   -2.3611   22.4827 C.ar    1  UNL1        0.1382
     19 N           4.8782   -3.1185   23.4761 N.ar    1  UNL1       -0.1593
     20 N           6.0756   -3.8955   23.0152 N.ar    1  UNL1       -0.1884
     21 C           7.0757   -4.7320   23.7569 C.ar    1  UNL1        0.1866
     22 N           8.0607   -5.2686   22.7611 N.ar    1  UNL1       -0.1268
     23 N           7.6695   -4.7637   21.4038 N.ar    1  UNL1       -0.1237
     24 C           6.4427   -3.9151   21.5609 C.ar    1  UNL1        0.2217
     25 N           6.4335   -1.5883   28.1106 N.pl3   1  UNL1       -0.3159
     26 H           6.8231   -1.3139   27.2491 H       1  UNL1        0.1483
     27 C           5.6088   -0.6182   28.9036 C.3     1  UNL1        0.1212
     28 C           4.1279   -0.5344   28.6797 C.3     1  UNL1        0.1543
     29 F           4.6110   -0.4462   27.2624 F       1  UNL1       -0.2382
     30 C           4.1591   -0.6517   30.1748 C.3     1  UNL1        0.0514
     31 C           2.8772   -0.6546   30.9537 C.3     1  UNL1        0.0714
     32 N           1.5642   -0.5402   30.2376 N.3     1  UNL1       -0.2973
     33 C           1.5330   -0.4229   28.7425 C.3     1  UNL1        0.0714
     34 C           2.8149   -0.4200   27.9636 C.3     1  UNL1        0.0514
     35 H           1.0982    0.2882   30.6077 H       1  UNL1        0.1233
@<TRIPOS>BOND
     1    11    12    1
     2    12    13    1
     3    13    14    1
     4    14    15    1
     5    15    16    1
     6    16    17   ar
     7    17    18   ar
     8    18    19   ar
     9    19    20   ar
    10    20    21   ar
    11    21     1    1
    12     1     2   ar
    13     2     3   ar
    14     3     4   ar
    15     4     5   ar
    16     5     6   ar
    17     6     7   ar
    18     7     8   ar
    19     8    25    1
    20    25    27    1
    21    27    28    1
    22    28    29    1
    23    28    30    1
    24    30    31    1
    25    31    32    1
    26    32    33    1
    27    33    34    1
    28     8     9   ar
    29     9    10   ar
    30    21    22   ar
    31    22    23   ar
    32    23    24   ar
    33    17    12    1
    34    24    20   ar
    35    24    16   ar
    36    10     1   ar
    37     9     4   ar
    38    34    28    1
    39    25    26    1
    40    32    35    1
@<TRIPOS>MOLECULE
*****
 35 40 0 0 0
SMALL
GASTEIGER

@<TRIPOS>ATOM
      1 C           4.2789   -2.3047   22.3073 C.ar    1  UNL1        0.0377
      2 C           3.9372   -2.3515   20.8475 C.ar    1  UNL1        0.0031
      3 C           2.8781   -1.4438   20.2958 C.ar    1  UNL1        0.0002
      4 C           2.1608   -0.4893   21.2038 C.ar    1  UNL1        0.0042
      5 C           1.1018    0.4184   20.6521 C.ar    1  UNL1        0.0208
      6 C           0.3845    1.3729   21.5601 C.ar    1  UNL1        0.1003
      7 N           0.7263    1.4196   23.0199 N.ar    1  UNL1       -0.2294
      8 C           1.7853    0.5119   23.5717 C.ar    1  UNL1        0.1285
      9 C           2.5026   -0.4425   22.6636 C.ar    1  UNL1        0.0315
     10 C           3.5617   -1.3503   23.2153 C.ar    1  UNL1        0.0059
     11 C           7.7010   -2.9802   29.3459 C.3     1  UNL1        0.1124
     12 N           8.0244   -3.8394   28.1596 N.pl3   1  UNL1       -0.2987
     13 C           9.0642   -4.9144   28.2733 C.3     1  UNL1        0.1387
     14 C           9.3876   -5.7736   27.0871 C.3     1  UNL1        0.2269
     15 O           8.6712   -5.5576   25.7870 O.3     1  UNL1       -0.4692
     16 C           7.6314   -4.4826   25.6733 C.ar    1  UNL1        0.1907
     17 C           7.3080   -3.6234   26.8596 C.ar    1  UNL1        0.1067
     18 C           6.2681   -2.5483   26.7458 C.ar    1  UNL1        0.1382
     19 N           5.5517   -2.3324   25.4458 N.ar    1  UNL1       -0.1593
     20 N           5.8752   -3.1915   24.2595 N.ar    1  UNL1       -0.1884
     21 C           5.3380   -3.2125   22.8591 C.ar    1  UNL1        0.1866
     22 N           6.0459   -4.3005   22.1074 N.ar    1  UNL1       -0.1268
     23 N           7.0205   -4.9520   23.0432 N.ar    1  UNL1       -0.1237
     24 C           6.9150   -4.2666   24.3732 C.ar    1  UNL1        0.2217
     25 N           2.1272    0.5586   25.0315 N.pl3   1  UNL1       -0.3159
     26 H           2.7816   -0.0754   25.4044 H       1  UNL1        0.1483
     27 C           1.4720    1.5713   25.9231 C.3     1  UNL1        0.1212
     28 C           0.5049    1.1262   26.9798 C.3     1  UNL1        0.1543
     29 F          -0.4247    1.8829   26.0781 F       1  UNL1       -0.2382
     30 C           1.7704    0.5240   27.5145 C.3     1  UNL1        0.0514
     31 C           1.7459   -0.2604   28.7928 C.3     1  UNL1        0.0714
     32 N           0.4560   -0.4428   29.5363 N.3     1  UNL1       -0.2973
     33 C          -0.8095    0.1594   29.0016 C.3     1  UNL1        0.0714
     34 C          -0.7851    0.9438   27.7233 C.3     1  UNL1        0.0514
     35 H           0.5961   -0.0538   30.4688 H       1  UNL1        0.1233
@<TRIPOS>BOND
     1    11    12    1
     2    12    13    1
     3    13    14    1
     4    14    15    1
     5    15    16    1
     6    16    17   ar
     7    17    18   ar
     8    18    19   ar
     9    19    20   ar
    10    20    21   ar
    11    21     1    1
    12     1     2   ar
    13     2     3   ar
    14     3     4   ar
    15     4     5   ar
    16     5     6   ar
    17     6     7   ar
    18     7     8   ar
    19     8    25    1
    20    25    27    1
    21    27    28    1
    22    28    29    1
    23    28    30    1
    24    30    31    1
    25    31    32    1
    26    32    33    1
    27    33    34    1
    28     8     9   ar
    29     9    10   ar
    30    21    22   ar
    31    22    23   ar
    32    23    24   ar
    33    17    12    1
    34    24    20   ar
    35    24    16   ar
    36    10     1   ar
    37     9     4   ar
    38    34    28    1
    39    25    26    1
    40    32    35    1
@<TRIPOS>MOLECULE
*****
 35 40 0 0 0
SMALL
GASTEIGER

@<TRIPOS>ATOM
      1 C           2.6309    2.2190   19.2120 C.ar    1  UNL1        0.0377
      2 C           3.3908    3.5009   19.0399 C.ar    1  UNL1        0.0031
      3 C           4.7175    3.4980   18.3402 C.ar    1  UNL1        0.0002
      4 C           5.2845    2.2135   17.8125 C.ar    1  UNL1        0.0042
      5 C           6.6113    2.2108   17.1128 C.ar    1  UNL1        0.0208
      6 C           7.1782    0.9262   16.5851 C.ar    1  UNL1        0.1003
      7 N           6.4184   -0.3556   16.7572 N.ar    1  UNL1       -0.2294
      8 C           5.0916   -0.3529   17.4569 C.ar    1  UNL1        0.1285
      9 C           4.5247    0.9316   17.9846 C.ar    1  UNL1        0.0315
     10 C           3.1978    0.9345   18.6844 C.ar    1  UNL1        0.0059
     11 C          -4.3973    5.2703   17.4793 C.3     1  UNL1        0.1124
     12 N          -4.0959    4.4869   18.7224 N.pl3   1  UNL1       -0.2987
     13 C          -5.1753    4.2418   19.7347 C.3     1  UNL1        0.1387
     14 C          -4.8739    3.4584   20.9778 C.3     1  UNL1        0.2269
     15 O          -3.4931    2.9200   21.2087 O.3     1  UNL1       -0.4692
     16 C          -2.4136    3.1651   20.1965 C.ar    1  UNL1        0.1907
     17 C          -2.7150    3.9485   18.9534 C.ar    1  UNL1        0.1067
     18 C          -1.6355    4.1936   17.9411 C.ar    1  UNL1        0.1382
     19 N          -0.2546    3.6552   18.1720 N.ar    1  UNL1       -0.1593
     20 N           0.0468    2.8718   19.4152 N.ar    1  UNL1       -0.1884
     21 C           1.3041    2.2218   19.9118 C.ar    1  UNL1        0.1866
     22 N           1.0017    1.5750   21.2309 N.ar    1  UNL1       -0.1268
     23 N          -0.4426    1.8253   21.5496 N.ar    1  UNL1       -0.1237
     24 C          -1.0327    2.6267   20.4274 C.ar    1  UNL1        0.2217
     25 N           4.3317   -1.6347   17.6290 N.pl3   1  UNL1       -0.3159
     26 H           3.4069   -1.7068   17.2992 H       1  UNL1        0.1483
     27 C           4.9809   -2.8066   18.3036 C.3     1  UNL1        0.1212
     28 C           4.7732   -3.0369   19.7712 C.3     1  UNL1        0.1543
     29 F           3.4243   -2.4970   19.3987 F       1  UNL1       -0.2382
     30 C           6.1944   -3.4968   19.6339 C.3     1  UNL1        0.0514
     31 C           6.9393   -3.9995   20.8349 C.3     1  UNL1        0.0714
     32 N           6.2630   -4.0422   22.1732 N.3     1  UNL1       -0.2973
     33 C           4.8419   -3.5823   22.3104 C.3     1  UNL1        0.0714
     34 C           4.0970   -3.0796   21.1094 C.3     1  UNL1        0.0514
     35 H           6.8211   -3.4664   22.8036 H       1  UNL1        0.1233
@<TRIPOS>BOND
     1    11    12    1
     2    12    13    1
     3    13    14    1
     4    14    15    1
     5    15    16    1
     6    16    17   ar
     7    17    18   ar
     8    18    19   ar
     9    19    20   ar
    10    20    21   ar
    11    21     1    1
    12     1     2   ar
    13     2     3   ar
    14     3     4   ar
    15     4     5   ar
    16     5     6   ar
    17     6     7   ar
    18     7     8   ar
    19     8    25    1
    20    25    27    1
    21    27    28    1
    22    28    29    1
    23    28    30    1
    24    30    31    1
    25    31    32    1
    26    32    33    1
    27    33    34    1
    28     8     9   ar
    29     9    10   ar
    30    21    22   ar
    31    22    23   ar
    32    23    24   ar
    33    17    12    1
    34    24    20   ar
    35    24    16   ar
    36    10     1   ar
    37     9     4   ar
    38    34    28    1
    39    25    26    1
    40    32    35    1
@<TRIPOS>MOLECULE
*****
 35 40 0 0 0
SMALL
GASTEIGER

@<TRIPOS>ATOM
      1 C           0.0390    1.5284   25.8589 C.ar    1  UNL1        0.0377
      2 C          -0.9461    2.6526   25.7335 C.ar    1  UNL1        0.0031
      3 C          -1.2429    3.2429   24.3869 C.ar    1  UNL1        0.0002
      4 C          -0.5545    2.7091   23.1657 C.ar    1  UNL1        0.0042
      5 C          -0.8513    3.2995   21.8191 C.ar    1  UNL1        0.0208
      6 C          -0.1629    2.7658   20.5980 C.ar    1  UNL1        0.1003
      7 N           0.8223    1.6416   20.7234 N.ar    1  UNL1       -0.2294
      8 C           1.1191    1.0512   22.0700 C.ar    1  UNL1        0.1285
      9 C           0.4307    1.5850   23.2912 C.ar    1  UNL1        0.0315
     10 C           0.7274    0.9946   24.6379 C.ar    1  UNL1        0.0059
     11 C           6.6634   -0.6561   29.4720 C.3     1  UNL1        0.1124
     12 N           5.2936   -0.7650   30.0735 N.pl3   1  UNL1       -0.2987
     13 C           5.1236   -1.3221   31.4557 C.3     1  UNL1        0.1387
     14 C           3.7538   -1.4311   32.0572 C.3     1  UNL1        0.2269
     15 O           2.5541   -0.9829   31.2765 O.3     1  UNL1       -0.4692
     16 C           2.7240   -0.4258   29.8942 C.ar    1  UNL1        0.1907
     17 C           4.0938   -0.3168   29.2927 C.ar    1  UNL1        0.1067
     18 C           4.2638    0.2403   27.9104 C.ar    1  UNL1        0.1382
     19 N           3.0640    0.6885   27.1297 N.ar    1  UNL1       -0.1593
     20 N           1.6942    0.5796   27.7312 N.ar    1  UNL1       -0.1884
     21 C           0.3358    0.9380   27.2056 C.ar    1  UNL1        0.1866
     22 N          -0.6737    0.6024   28.2631 N.ar    1  UNL1       -0.1268
     23 N           0.0608    0.0365   29.4422 N.ar    1  UNL1       -0.1237
     24 C           1.5242    0.0224   29.1134 C.ar    1  UNL1        0.2217
     25 N           2.1042   -0.0730   22.1956 N.pl3   1  UNL1       -0.3159
     26 H           2.0596   -0.6827   22.9672 H       1  UNL1        0.1483
     27 C           3.1573   -0.2680   21.1454 C.3     1  UNL1        0.1212
     28 C           3.4079   -1.6343   20.5792 C.3     1  UNL1        0.1543
     29 F           2.8204   -0.9575   19.3763 F       1  UNL1       -0.2382
     30 C           3.9084   -1.8365   21.9787 C.3     1  UNL1        0.0514
     31 C           4.4554   -3.1700   22.3942 C.3     1  UNL1        0.0714
     32 N           4.5019   -4.3011   21.4102 N.3     1  UNL1       -0.2973
     33 C           4.0014   -4.0989   20.0107 C.3     1  UNL1        0.0714
     34 C           3.4544   -2.7655   19.5952 C.3     1  UNL1        0.0514
     35 H           3.9550   -5.0630   21.8113 H       1  UNL1        0.1233
@<TRIPOS>BOND
     1    11    12    1
     2    12    13    1
     3    13    14    1
     4    14    15    1
     5    15    16    1
     6    16    17   ar
     7    17    18   ar
     8    18    19   ar
     9    19    20   ar
    10    20    21   ar
    11    21     1    1
    12     1     2   ar
    13     2     3   ar
    14     3     4   ar
    15     4     5   ar
    16     5     6   ar
    17     6     7   ar
    18     7     8   ar
    19     8    25    1
    20    25    27    1
    21    27    28    1
    22    28    29    1
    23    28    30    1
    24    30    31    1
    25    31    32    1
    26    32    33    1
    27    33    34    1
    28     8     9   ar
    29     9    10   ar
    30    21    22   ar
    31    22    23   ar
    32    23    24   ar
    33    17    12    1
    34    24    20   ar
    35    24    16   ar
    36    10     1   ar
    37     9     4   ar
    38    34    28    1
    39    25    26    1
    40    32    35    1
@<TRIPOS>MOLECULE
*****
 35 40 0 0 0
SMALL
GASTEIGER

@<TRIPOS>ATOM
      1 C           7.5506   -3.5672   20.6683 C.ar    1  UNL1        0.0377
      2 C           8.6824   -2.9969   19.8659 C.ar    1  UNL1        0.0031
      3 C           8.4108   -1.9563   18.8204 C.ar    1  UNL1        0.0002
      4 C           7.0074   -1.4859   18.5772 C.ar    1  UNL1        0.0042
      5 C           6.7358   -0.4452   17.5316 C.ar    1  UNL1        0.0208
      6 C           5.3324    0.0252   17.2884 C.ar    1  UNL1        0.1003
      7 N           4.2006   -0.5451   18.0907 N.ar    1  UNL1       -0.2294
      8 C           4.4721   -1.5858   19.1363 C.ar    1  UNL1        0.1285
      9 C           5.8755   -2.0562   19.3795 C.ar    1  UNL1        0.0315
     10 C           6.1472   -3.0969   20.4251 C.ar    1  UNL1        0.0059
     11 C           6.4343   -3.8550   28.4387 C.3     1  UNL1        0.1124
     12 N           7.0313   -4.9654   27.6259 N.pl3   1  UNL1       -0.2987
     13 C           7.4603   -6.2376   28.2948 C.3     1  UNL1        0.1387
     14 C           8.0572   -7.3480   27.4820 C.3     1  UNL1        0.2269
     15 O           8.2251   -7.1863   26.0002 O.3     1  UNL1       -0.4692
     16 C           7.7960   -5.9141   25.3313 C.ar    1  UNL1        0.1907
     17 C           7.1991   -4.8037   26.1441 C.ar    1  UNL1        0.1067
     18 C           6.7701   -3.5315   25.4751 C.ar    1  UNL1        0.1382
     19 N           6.9380   -3.3697   23.9934 N.ar    1  UNL1       -0.1593
     20 N           7.5349   -4.4801   23.1806 N.ar    1  UNL1       -0.1884
     21 C           7.8222   -4.6079   21.7139 C.ar    1  UNL1        0.1866
     22 N           8.4288   -5.9591   21.4764 N.ar    1  UNL1       -0.1268
     23 N           8.5164   -6.6663   22.7963 N.ar    1  UNL1       -0.1237
     24 C           7.9639   -5.7523   23.8495 C.ar    1  UNL1        0.2217
     25 N           3.3403   -2.1561   19.9387 N.pl3   1  UNL1       -0.3159
     26 H           2.9461   -3.0224   19.6871 H       1  UNL1        0.1483
     27 C           2.8093   -1.4065   21.1244 C.3     1  UNL1        0.1212
     28 C           1.7376   -0.3733   20.9401 C.3     1  UNL1        0.1543
     29 F           1.2681   -1.4124   19.9655 F       1  UNL1       -0.2382
     30 C           2.5793    0.3070   21.9787 C.3     1  UNL1        0.0514
     31 C           2.1861    1.6595   22.4945 C.3     1  UNL1        0.0714
     32 N           0.9514    2.3318   21.9716 N.3     1  UNL1       -0.2973
     33 C           0.1097    1.6516   20.9329 C.3     1  UNL1        0.0714
     34 C           0.5028    0.2990   20.4172 C.3     1  UNL1        0.0514
     35 H           1.2476    3.2229   21.5732 H       1  UNL1        0.1233
@<TRIPOS>BOND
     1    11    12    1
     2    12    13    1
     3    13    14    1
     4    14    15    1
     5    15    16    1
     6    16    17   ar
     7    17    18   ar
     8    18    19   ar
     9    19    20   ar
    10    20    21   ar
    11    21     1    1
    12     1     2   ar
    13     2     3   ar
    14     3     4   ar
    15     4     5   ar
    16     5     6   ar
    17     6     7   ar
    18     7     8   ar
    19     8    25    1
    20    25    27    1
    21    27    28    1
    22    28    29    1
    23    28    30    1
    24    30    31    1
    25    31    32    1
    26    32    33    1
    27    33    34    1
    28     8     9   ar
    29     9    10   ar
    30    21    22   ar
    31    22    23   ar
    32    23    24   ar
    33    17    12    1
    34    24    20   ar
    35    24    16   ar
    36    10     1   ar
    37     9     4   ar
    38    34    28    1
    39    25    26    1
    40    32    35    1
@<TRIPOS>MOLECULE
*****
 35 40 0 0 0
SMALL
GASTEIGER

@<TRIPOS>ATOM
      1 C          -9.7147  -18.9081   20.9958 C.ar    1  UNL1        0.0377
      2 C         -10.8129  -18.5417   20.0421 C.ar    1  UNL1        0.0031
      3 C         -12.1799  -18.2113   20.5637 C.ar    1  UNL1        0.0002
      4 C         -12.4487  -18.2472   22.0390 C.ar    1  UNL1        0.0042
      5 C         -13.8157  -17.9167   22.5605 C.ar    1  UNL1        0.0208
      6 C         -14.0844  -17.9526   24.0358 C.ar    1  UNL1        0.1003
      7 N         -12.9862  -18.3190   24.9895 N.ar    1  UNL1       -0.2294
      8 C         -11.6192  -18.6495   24.4680 C.ar    1  UNL1        0.1285
      9 C         -11.3504  -18.6136   22.9927 C.ar    1  UNL1        0.0315
     10 C          -9.9833  -18.9440   22.4711 C.ar    1  UNL1        0.0059
     11 C          -2.4383  -17.4388   23.5658 C.3     1  UNL1        0.1124
     12 N          -2.7579  -18.1937   22.3096 N.pl3   1  UNL1       -0.2987
     13 C          -1.6486  -18.7248   21.4510 C.3     1  UNL1        0.1387
     14 C          -1.9681  -19.4798   20.1948 C.3     1  UNL1        0.2269
     15 O          -3.3970  -19.7036   19.7973 O.3     1  UNL1       -0.4692
     16 C          -4.5064  -19.1725   20.6559 C.ar    1  UNL1        0.1907
     17 C          -4.1868  -18.4176   21.9120 C.ar    1  UNL1        0.1067
     18 C          -5.2962  -17.8865   22.7707 C.ar    1  UNL1        0.1382
     19 N          -6.7251  -18.1103   22.3731 N.ar    1  UNL1       -0.1593
     20 N          -7.0447  -18.8653   21.1170 N.ar    1  UNL1       -0.1884
     21 C          -8.3476  -19.2386   20.4742 C.ar    1  UNL1        0.1866
     22 N          -8.0434  -20.0004   19.2184 N.ar    1  UNL1       -0.1268
     23 N          -6.5525  -20.0979   19.0850 N.ar    1  UNL1       -0.1237
     24 C          -5.9353  -19.3964   20.2583 C.ar    1  UNL1        0.2217
     25 N         -10.5208  -19.0159   25.4217 N.pl3   1  UNL1       -0.3159
     26 H         -10.6950  -19.6528   26.1519 H       1  UNL1        0.1483
     27 C          -9.1571  -18.4117   25.2628 C.3     1  UNL1        0.1212
     28 C          -8.7247  -17.2898   26.1596 C.3     1  UNL1        0.1543
     29 F          -9.4127  -18.1717   27.1590 F       1  UNL1       -0.2382
     30 C          -8.1868  -16.7976   24.8488 C.3     1  UNL1        0.0514
     31 C          -7.4554  -15.4896   24.7819 C.3     1  UNL1        0.0714
     32 N          -7.2619  -14.6740   26.0258 N.3     1  UNL1       -0.2973
     33 C          -7.7998  -15.1663   27.3366 C.3     1  UNL1        0.0714
     34 C          -8.5312  -16.4742   27.4035 C.3     1  UNL1        0.0514
     35 H          -7.6935  -13.7662   25.8527 H       1  UNL1        0.1233
@<TRIPOS>BOND
     1    11    12    1
     2    12    13    1
     3    13    14    1
     4    14    15    1
     5    15    16    1
     6    16    17   ar
     7    17    18   ar
     8    18    19   ar
     9    19    20   ar
    10    20    21   ar
    11    21     1    1
    12     1     2   ar
    13     2     3   ar
    14     3     4   ar
    15     4     5   ar
    16     5     6   ar
    17     6     7   ar
    18     7     8   ar
    19     8    25    1
    20    25    27    1
    21    27    28    1
    22    28    29    1
    23    28    30    1
    24    30    31    1
    25    31    32    1
    26    32    33    1
    27    33    34    1
    28     8     9   ar
    29     9    10   ar
    30    21    22   ar
    31    22    23   ar
    32    23    24   ar
    33    17    12    1
    34    24    20   ar
    35    24    16   ar
    36    10     1   ar
    37     9     4   ar
    38    34    28    1
    39    25    26    1
    40    32    35    1
@<TRIPOS>MOLECULE
*****
 35 40 0 0 0
SMALL
GASTEIGER

@<TRIPOS>ATOM
      1 C           4.2703   -1.7326   23.2875 C.ar    1  UNL1        0.0377
      2 C           4.7594   -3.1481   23.3714 C.ar    1  UNL1        0.0031
      3 C           5.1669   -3.8758   22.1247 C.ar    1  UNL1        0.0002
      4 C           5.0853   -3.1881   20.7941 C.ar    1  UNL1        0.0042
      5 C           5.4929   -3.9159   19.5475 C.ar    1  UNL1        0.0208
      6 C           5.4113   -3.2281   18.2169 C.ar    1  UNL1        0.1003
      7 N           4.9223   -1.8126   18.1331 N.ar    1  UNL1       -0.2294
      8 C           4.5147   -1.0848   19.3797 C.ar    1  UNL1        0.1285
      9 C           4.5963   -1.7725   20.7103 C.ar    1  UNL1        0.0315
     10 C           4.1887   -1.0448   21.9571 C.ar    1  UNL1        0.0059
     11 C          -1.5787    3.2254   24.9952 C.3     1  UNL1        0.1124
     12 N          -0.5348    2.7758   25.9741 N.pl3   1  UNL1       -0.2987
     13 C          -0.5659    3.2782   27.3871 C.3     1  UNL1        0.1387
     14 C           0.4779    2.8286   28.3660 C.3     1  UNL1        0.2269
     15 O           1.5528    1.8767   27.9319 O.3     1  UNL1       -0.4692
     16 C           1.5838    1.3743   26.5189 C.ar    1  UNL1        0.1907
     17 C           0.5400    1.8239   25.5400 C.ar    1  UNL1        0.1067
     18 C           0.5711    1.3216   24.1269 C.ar    1  UNL1        0.1382
     19 N           1.6460    0.3697   23.6928 N.ar    1  UNL1       -0.1593
     20 N           2.6898   -0.0799   24.6718 N.ar    1  UNL1       -0.1884
     21 C           3.8628   -1.0047   24.5343 C.ar    1  UNL1        0.1866
     22 N           4.5566   -1.0739   25.8623 N.ar    1  UNL1       -0.1268
     23 N           3.8125   -0.1919   26.8206 N.ar    1  UNL1       -0.1237
     24 C           2.6588    0.4224   26.0848 C.ar    1  UNL1        0.2217
     25 N           4.0257    0.3308   19.2960 N.pl3   1  UNL1       -0.3159
     26 H           4.4656    1.0357   19.8240 H       1  UNL1        0.1483
     27 C           2.8663    0.6723   18.4076 C.3     1  UNL1        0.1212
     28 C           1.8156    1.6322   18.8815 C.3     1  UNL1        0.1543
     29 F           2.6220    2.5418   18.0026 F       1  UNL1       -0.2382
     30 C           1.3741    0.3893   19.5957 C.3     1  UNL1        0.0514
     31 C           0.1619    0.4222   20.4786 C.3     1  UNL1        0.0714
     32 N          -0.6088    1.6980   20.6473 N.3     1  UNL1       -0.2973
     33 C          -0.1673    2.9409   19.9330 C.3     1  UNL1        0.0714
     34 C           1.0449    2.9080   19.0501 C.3     1  UNL1        0.0514
     35 H          -0.6056    1.9143   21.6441 H       1  UNL1        0.1233
@<TRIPOS>BOND
     1    11    12    1
     2    12    13    1
     3    13    14    1
     4    14    15    1
     5    15    16    1
     6    16    17   ar
     7    17    18   ar
     8    18    19   ar
     9    19    20   ar
    10    20    21   ar
    11    21     1    1
    12     1     2   ar
    13     2     3   ar
    14     3     4   ar
    15     4     5   ar
    16     5     6   ar
    17     6     7   ar
    18     7     8   ar
    19     8    25    1
    20    25    27    1
    21    27    28    1
    22    28    29    1
    23    28    30    1
    24    30    31    1
    25    31    32    1
    26    32    33    1
    27    33    34    1
    28     8     9   ar
    29     9    10   ar
    30    21    22   ar
    31    22    23   ar
    32    23    24   ar
    33    17    12    1
    34    24    20   ar
    35    24    16   ar
    36    10     1   ar
    37     9     4   ar
    38    34    28    1
    39    25    26    1
    40    32    35    1
