@<TRIPOS>MOLECULE
*****
 25 27 0 0 0
SMALL
GASTEIGER

@<TRIPOS>ATOM
      1 N         -10.3224  -17.4527   21.1754 N.pl3   1  UNL1       -0.3063
      2 C         -11.1777  -18.0594   20.1028 C.3     1  UNL1        0.0912
      3 C         -10.6549  -19.2018   19.2833 C.3     1  UNL1        0.0261
      4 C          -9.2769  -19.7374   19.5362 C.3     1  UNL1        0.0295
      5 C          -8.4216  -19.1307   20.6087 C.ar    1  UNL1       -0.0054
      6 C          -7.0435  -19.6664   20.8618 C.ar    1  UNL1        0.0371
      7 C          -6.1882  -19.0596   21.9343 C.ar    1  UNL1        0.1354
      8 C          -6.7110  -17.9173   22.7539 C.ar    1  UNL1        0.0414
      9 C          -8.0891  -17.3816   22.5009 C.ar    1  UNL1        0.0177
     10 C          -8.9444  -17.9884   21.4283 C.ar    1  UNL1        0.0440
     11 N          -4.8101  -19.5953   22.1873 N.pl3   1  UNL1       -0.1990
     12 H          -4.5865  -19.9848   23.0634 H       1  UNL1        0.2985
     13 C          -3.7727  -19.5374   21.1055 C.2     1  UNL1        0.3224
     14 N          -3.6887  -20.6358   20.0874 N.2     1  UNL1       -0.0985
     15 H          -4.3144  -21.3946   20.1292 H       1  UNL1        0.3633
     16 C          -2.8192  -18.3812   21.0418 C.ar    1  UNL1        0.1114
     17 C          -2.7290  -17.2573   22.0312 C.ar    1  UNL1        0.0144
     18 C          -1.6426  -16.3274   21.5784 C.ar    1  UNL1        0.0077
     19 C          -1.0615  -16.8765   20.3092 C.ar    1  UNL1        0.0357
     20 S          -1.7887  -18.1458   19.9776 S.2     1  UNL1       -0.0792
     21 C         -10.8452  -16.3103   21.9950 C.3     1  UNL1        0.1081
     22 C         -12.1696  -16.4296   22.6891 C.3     1  UNL1        0.0938
     23 C         -11.3180  -18.3730   24.1884 C.3     1  UNL1        0.0897
     24 N         -12.4519  -17.6118   23.5680 N.3     1  UNL1       -0.2688
     25 C         -13.8682  -18.0329   23.8266 C.3     1  UNL1        0.0897
@<TRIPOS>BOND
     1    23    24    1
     2    24    25    1
     3    24    22    1
     4    22    21    1
     5    21     1    1
     6     1     2    1
     7     2     3    1
     8     3     4    1
     9     4     5    1
    10     5     6   ar
    11     6     7   ar
    12     7    11    1
    13    11    13    1
    14    13    14    2
    15    13    16    1
    16    16    17   ar
    17    17    18   ar
    18    18    19   ar
    19    19    20   ar
    20     7     8   ar
    21     8     9   ar
    22     9    10   ar
    23    10     1    1
    24    10     5   ar
    25    20    16   ar
    26    11    12    1
    27    14    15    1
@<TRIPOS>MOLECULE
*****
 25 27 0 0 0
SMALL
GASTEIGER

@<TRIPOS>ATOM
      1 N          -4.0016  -18.7324   22.4139 N.pl3   1  UNL1       -0.3063
      2 C          -3.6258  -17.6476   23.3792 C.3     1  UNL1        0.0912
      3 C          -4.6686  -16.6896   23.8740 C.3     1  UNL1        0.0261
      4 C          -6.0872  -16.8164   23.4034 C.3     1  UNL1        0.0295
      5 C          -6.4630  -17.9011   22.4380 C.ar    1  UNL1       -0.0054
      6 C          -7.8816  -18.0280   21.9674 C.ar    1  UNL1        0.0371
      7 C          -8.2574  -19.1127   21.0020 C.ar    1  UNL1        0.1354
      8 C          -7.2146  -20.0708   20.5073 C.ar    1  UNL1        0.0414
      9 C          -5.7961  -19.9440   20.9778 C.ar    1  UNL1        0.0177
     10 C          -5.4202  -18.8592   21.9433 C.ar    1  UNL1        0.0440
     11 N          -9.6761  -19.2396   20.5314 N.pl3   1  UNL1       -0.1990
     12 H          -9.9657  -20.0503   20.0538 H       1  UNL1        0.2985
     13 C         -10.6534  -18.1311   20.7883 C.2     1  UNL1        0.3224
     14 N         -10.7565  -16.9842   19.8271 N.2     1  UNL1       -0.0985
     15 H         -10.1826  -16.9590   19.0275 H       1  UNL1        0.3633
     16 C         -11.5278  -18.1696   22.0065 C.ar    1  UNL1        0.1114
     17 C         -12.9042  -17.5847   22.1228 C.ar    1  UNL1        0.0144
     18 C         -13.4063  -17.8534   23.5104 C.ar    1  UNL1        0.0077
     19 C         -12.3402  -18.6043   24.2518 C.ar    1  UNL1        0.0357
     20 S         -11.1792  -18.7997   23.3224 S.2     1  UNL1       -0.0792
     21 C          -2.9588  -19.6904   21.9191 C.3     1  UNL1        0.1081
     22 C          -1.8883  -19.2154   20.9819 C.3     1  UNL1        0.0938
     23 C          -1.3360  -16.6981   20.6533 C.3     1  UNL1        0.0897
     24 N          -2.0697  -17.9339   20.2238 N.3     1  UNL1       -0.2688
     25 C          -2.9847  -17.8882   19.0361 C.3     1  UNL1        0.0897
@<TRIPOS>BOND
     1    23    24    1
     2    24    25    1
     3    24    22    1
     4    22    21    1
     5    21     1    1
     6     1     2    1
     7     2     3    1
     8     3     4    1
     9     4     5    1
    10     5     6   ar
    11     6     7   ar
    12     7    11    1
    13    11    13    1
    14    13    14    2
    15    13    16    1
    16    16    17   ar
    17    17    18   ar
    18    18    19   ar
    19    19    20   ar
    20     7     8   ar
    21     8     9   ar
    22     9    10   ar
    23    10     1    1
    24    10     5   ar
    25    20    16   ar
    26    11    12    1
    27    14    15    1
@<TRIPOS>MOLECULE
*****
 25 27 0 0 0
SMALL
GASTEIGER

@<TRIPOS>ATOM
      1 N          -9.8643  -19.5376   22.7888 N.pl3   1  UNL1       -0.3063
      2 C         -11.2000  -19.7091   22.1281 C.3     1  UNL1        0.0912
      3 C         -11.3013  -19.7138   20.6315 C.3     1  UNL1        0.0261
      4 C         -10.0670  -19.5470   19.7957 C.3     1  UNL1        0.0295
      5 C          -8.7314  -19.3754   20.4564 C.ar    1  UNL1       -0.0054
      6 C          -7.4970  -19.2086   19.6206 C.ar    1  UNL1        0.0371
      7 C          -6.1614  -19.0371   20.2813 C.ar    1  UNL1        0.1354
      8 C          -6.0600  -19.0324   21.7779 C.ar    1  UNL1        0.0414
      9 C          -7.2943  -19.1992   22.6137 C.ar    1  UNL1        0.0177
     10 C          -8.6300  -19.3708   21.9530 C.ar    1  UNL1        0.0440
     11 N          -4.9270  -18.8702   19.4455 N.pl3   1  UNL1       -0.1990
     12 H          -4.9931  -18.4873   18.5409 H       1  UNL1        0.2985
     13 C          -3.5920  -19.2869   19.9878 C.2     1  UNL1        0.3224
     14 N          -3.2970  -20.7391   20.2205 N.2     1  UNL1       -0.0985
     15 H          -3.9797  -21.4188   20.0172 H       1  UNL1        0.3633
     16 C          -2.5520  -18.2513   20.2975 C.ar    1  UNL1        0.1114
     17 C          -2.6334  -17.2161   21.3800 C.ar    1  UNL1        0.0144
     18 C          -1.3797  -16.3942   21.3306 C.ar    1  UNL1        0.0077
     19 C          -0.5234  -16.9214   20.2176 C.ar    1  UNL1        0.0357
     20 S          -1.2479  -18.0691   19.5791 S.2     1  UNL1       -0.0792
     21 C          -9.7630  -19.5329   24.2854 C.3     1  UNL1        0.1081
     22 C          -9.8514  -18.2390   25.0390 C.3     1  UNL1        0.0938
     23 C         -10.5502  -16.3727   23.3722 C.3     1  UNL1        0.0897
     24 N          -9.5584  -16.9435   24.3420 N.3     1  UNL1       -0.2688
     25 C          -8.2738  -16.2189   24.6148 C.3     1  UNL1        0.0897
@<TRIPOS>BOND
     1    23    24    1
     2    24    25    1
     3    24    22    1
     4    22    21    1
     5    21     1    1
     6     1     2    1
     7     2     3    1
     8     3     4    1
     9     4     5    1
    10     5     6   ar
    11     6     7   ar
    12     7    11    1
    13    11    13    1
    14    13    14    2
    15    13    16    1
    16    16    17   ar
    17    17    18   ar
    18    18    19   ar
    19    19    20   ar
    20     7     8   ar
    21     8     9   ar
    22     9    10   ar
    23    10     1    1
    24    10     5   ar
    25    20    16   ar
    26    11    12    1
    27    14    15    1
@<TRIPOS>MOLECULE
*****
 25 27 0 0 0
SMALL
GASTEIGER

@<TRIPOS>ATOM
      1 N          -9.7161  -17.8164   23.1639 N.pl3   1  UNL1       -0.3063
      2 C          -9.9022  -16.4291   23.7030 C.3     1  UNL1        0.0912
      3 C          -8.7100  -15.5496   23.9381 C.3     1  UNL1        0.0261
      4 C          -7.3318  -16.0573   23.6340 C.3     1  UNL1        0.0295
      5 C          -7.1457  -17.4446   23.0948 C.ar    1  UNL1       -0.0054
      6 C          -5.7674  -17.9524   22.7906 C.ar    1  UNL1        0.0371
      7 C          -5.5812  -19.3397   22.2515 C.ar    1  UNL1        0.1354
      8 C          -6.7734  -20.2192   22.0164 C.ar    1  UNL1        0.0414
      9 C          -8.1516  -19.7115   22.3205 C.ar    1  UNL1        0.0177
     10 C          -8.3378  -18.3241   22.8597 C.ar    1  UNL1        0.0440
     11 N          -4.2029  -19.8475   21.9473 N.pl3   1  UNL1       -0.1990
     12 H          -3.7469  -20.4448   22.5833 H       1  UNL1        0.2985
     13 C          -3.5195  -19.4454   20.6741 C.2     1  UNL1        0.3224
     14 N          -3.8548  -20.1440   19.3898 N.2     1  UNL1       -0.0985
     15 H          -4.5235  -20.8665   19.3825 H       1  UNL1        0.3633
     16 C          -2.5007  -18.3445   20.6852 C.ar    1  UNL1        0.1114
     17 C          -2.4964  -17.1563   21.6007 C.ar    1  UNL1        0.0144
     18 C          -1.3003  -16.3160   21.2641 C.ar    1  UNL1        0.0077
     19 C          -0.5654  -16.9849   20.1404 C.ar    1  UNL1        0.0357
     20 S          -1.3073  -18.2386   19.7827 S.2     1  UNL1       -0.0792
     21 C         -10.9082  -18.6959   22.9288 C.3     1  UNL1        0.1081
     22 C         -11.7962  -18.4548   21.7442 C.3     1  UNL1        0.0938
     23 C         -10.4858  -18.8620   19.5381 C.3     1  UNL1        0.0897
     24 N         -11.2138  -17.9332   20.4641 N.3     1  UNL1       -0.2688
     25 C         -11.3593  -16.4830   20.1099 C.3     1  UNL1        0.0897
@<TRIPOS>BOND
     1    23    24    1
     2    24    25    1
     3    24    22    1
     4    22    21    1
     5    21     1    1
     6     1     2    1
     7     2     3    1
     8     3     4    1
     9     4     5    1
    10     5     6   ar
    11     6     7   ar
    12     7    11    1
    13    11    13    1
    14    13    14    2
    15    13    16    1
    16    16    17   ar
    17    17    18   ar
    18    18    19   ar
    19    19    20   ar
    20     7     8   ar
    21     8     9   ar
    22     9    10   ar
    23    10     1    1
    24    10     5   ar
    25    20    16   ar
    26    11    12    1
    27    14    15    1
@<TRIPOS>MOLECULE
*****
 25 27 0 0 0
SMALL
GASTEIGER

@<TRIPOS>ATOM
      1 N          -9.2218  -17.4539   22.1730 N.pl3   1  UNL1       -0.3063
      2 C          -9.5847  -16.2495   22.9901 C.3     1  UNL1        0.0912
      3 C          -8.5412  -15.5665   23.8237 C.3     1  UNL1        0.0261
      4 C          -7.1349  -16.0880   23.8401 C.3     1  UNL1        0.0295
      5 C          -6.7720  -17.2923   23.0230 C.ar    1  UNL1       -0.0054
      6 C          -5.3656  -17.8138   23.0394 C.ar    1  UNL1        0.0371
      7 C          -5.0027  -19.0182   22.2223 C.ar    1  UNL1        0.1354
      8 C          -6.0462  -19.7012   21.3887 C.ar    1  UNL1        0.0414
      9 C          -7.4525  -19.1797   21.3723 C.ar    1  UNL1        0.0177
     10 C          -7.8154  -17.9753   22.1894 C.ar    1  UNL1        0.0440
     11 N          -3.5963  -19.5397   22.2387 N.pl3   1  UNL1       -0.1990
     12 H          -3.4288  -20.4992   22.3820 H       1  UNL1        0.2985
     13 C          -2.4453  -18.5993   22.0369 C.2     1  UNL1        0.3224
     14 N          -1.7440  -18.0068   23.2231 N.2     1  UNL1       -0.0985
     15 H          -2.0392  -18.2351   24.1341 H       1  UNL1        0.3633
     16 C          -1.9956  -18.2514   20.6488 C.ar    1  UNL1        0.1114
     17 C          -2.8776  -18.1242   19.4422 C.ar    1  UNL1        0.0144
     18 C          -2.0121  -17.7639   18.2713 C.ar    1  UNL1        0.0077
     19 C          -0.5951  -17.6684   18.7543 C.ar    1  UNL1        0.0357
     20 S          -0.5850  -17.9698   20.2237 S.2     1  UNL1       -0.0792
     21 C         -10.2652  -18.1368   21.3394 C.3     1  UNL1        0.1081
     22 C         -11.2235  -19.0984   21.9772 C.3     1  UNL1        0.0938
     23 C         -11.0912  -19.3032   24.5639 C.3     1  UNL1        0.0897
     24 N         -11.7902  -18.8034   23.3344 N.3     1  UNL1       -0.2688
     25 C         -13.0558  -18.0085   23.4621 C.3     1  UNL1        0.0897
@<TRIPOS>BOND
     1    23    24    1
     2    24    25    1
     3    24    22    1
     4    22    21    1
     5    21     1    1
     6     1     2    1
     7     2     3    1
     8     3     4    1
     9     4     5    1
    10     5     6   ar
    11     6     7   ar
    12     7    11    1
    13    11    13    1
    14    13    14    2
    15    13    16    1
    16    16    17   ar
    17    17    18   ar
    18    18    19   ar
    19    19    20   ar
    20     7     8   ar
    21     8     9   ar
    22     9    10   ar
    23    10     1    1
    24    10     5   ar
    25    20    16   ar
    26    11    12    1
    27    14    15    1
@<TRIPOS>MOLECULE
*****
 25 27 0 0 0
SMALL
GASTEIGER

@<TRIPOS>ATOM
      1 N         -11.2371   -4.0636   18.2134 N.pl3   1  UNL1       -0.3063
      2 C          -9.9131   -4.3379   18.8628 C.3     1  UNL1        0.0912
      3 C          -9.4936   -5.7505   19.1432 C.3     1  UNL1        0.0261
      4 C         -10.3981   -6.8887   18.7742 C.3     1  UNL1        0.0295
      5 C         -11.7221   -6.6144   18.1248 C.ar    1  UNL1       -0.0054
      6 C         -12.6266   -7.7527   17.7558 C.ar    1  UNL1        0.0371
      7 C         -13.9506   -7.4784   17.1064 C.ar    1  UNL1        0.1354
      8 C         -14.3701   -6.0658   16.8260 C.ar    1  UNL1        0.0414
      9 C         -13.4656   -4.9275   17.1950 C.ar    1  UNL1        0.0177
     10 C         -12.1416   -5.2018   17.8444 C.ar    1  UNL1        0.0440
     11 N         -14.8552   -8.6167   16.7373 N.pl3   1  UNL1       -0.1990
     12 H         -14.9833   -8.8569   15.7912 H       1  UNL1        0.2985
     13 C         -15.5645   -9.3890   17.8098 C.2     1  UNL1        0.3224
     14 N         -15.1218  -10.7815   18.1488 N.2     1  UNL1       -0.0985
     15 H         -14.3656  -11.1886   17.6674 H       1  UNL1        0.3633
     16 C         -16.7166   -8.7689   18.5433 C.ar    1  UNL1        0.1114
     17 C         -16.9475   -8.8171   20.0246 C.ar    1  UNL1        0.0144
     18 C         -18.2137   -8.0696   20.3211 C.ar    1  UNL1        0.0077
     19 C         -18.7654   -7.5594   19.0229 C.ar    1  UNL1        0.0357
     20 S         -17.8402   -7.9915   17.9242 S.2     1  UNL1       -0.0792
     21 C         -11.6566   -2.6510   17.9330 C.3     1  UNL1        0.1081
     22 C         -12.2999   -1.8314   19.0121 C.3     1  UNL1        0.0938
     23 C         -13.6662   -3.1672   20.7725 C.3     1  UNL1        0.0897
     24 N         -13.6209   -2.2509   19.5858 N.3     1  UNL1       -0.2688
     25 C         -14.8965   -1.7540   18.9727 C.3     1  UNL1        0.0897
@<TRIPOS>BOND
     1    23    24    1
     2    24    25    1
     3    24    22    1
     4    22    21    1
     5    21     1    1
     6     1     2    1
     7     2     3    1
     8     3     4    1
     9     4     5    1
    10     5     6   ar
    11     6     7   ar
    12     7    11    1
    13    11    13    1
    14    13    14    2
    15    13    16    1
    16    16    17   ar
    17    17    18   ar
    18    18    19   ar
    19    19    20   ar
    20     7     8   ar
    21     8     9   ar
    22     9    10   ar
    23    10     1    1
    24    10     5   ar
    25    20    16   ar
    26    11    12    1
    27    14    15    1
@<TRIPOS>MOLECULE
*****
 25 27 0 0 0
SMALL
GASTEIGER

@<TRIPOS>ATOM
      1 N          -3.8330  -17.8808   22.7314 N.pl3   1  UNL1       -0.3063
      2 C          -3.5996  -16.5003   23.2696 C.3     1  UNL1        0.0912
      3 C          -4.7636  -15.6512   23.6867 C.3     1  UNL1        0.0261
      4 C          -6.1611  -16.1825   23.5655 C.3     1  UNL1        0.0295
      5 C          -6.3945  -17.5630   23.0272 C.ar    1  UNL1       -0.0054
      6 C          -7.7920  -18.0944   22.9060 C.ar    1  UNL1        0.0371
      7 C          -8.0255  -19.4748   22.3677 C.ar    1  UNL1        0.1354
      8 C          -6.8614  -20.3240   21.9507 C.ar    1  UNL1        0.0414
      9 C          -5.4639  -19.7927   22.0719 C.ar    1  UNL1        0.0177
     10 C          -5.2305  -18.4121   22.6102 C.ar    1  UNL1        0.0440
     11 N          -9.4230  -20.0062   22.2465 N.pl3   1  UNL1       -0.1990
     12 H          -9.6157  -20.7479   21.6284 H       1  UNL1        0.2985
     13 C         -10.5268  -19.4076   23.0669 C.2     1  UNL1        0.3224
     14 N         -10.8737  -19.9974   24.4018 N.2     1  UNL1       -0.0985
     15 H         -10.3769  -20.7774   24.7394 H       1  UNL1        0.3633
     16 C         -11.2837  -18.2192   22.5525 C.ar    1  UNL1        0.1114
     17 C         -12.0991  -18.1702   21.2944 C.ar    1  UNL1        0.0144
     18 C         -12.6775  -16.7918   21.1702 C.ar    1  UNL1        0.0077
     19 C         -12.2195  -15.9888   22.3516 C.ar    1  UNL1        0.0357
     20 S         -11.3581  -16.8710   23.2059 S.2     1  UNL1       -0.0792
     21 C          -2.6689  -18.7299   22.3144 C.3     1  UNL1        0.1081
     22 C          -1.9143  -18.4040   21.0597 C.3     1  UNL1        0.0938
     23 C          -3.3779  -19.6945   19.3443 C.3     1  UNL1        0.0897
     24 N          -2.6062  -18.4675   19.7304 N.3     1  UNL1       -0.2688
     25 C          -2.5265  -17.3040   18.7871 C.3     1  UNL1        0.0897
@<TRIPOS>BOND
     1    23    24    1
     2    24    25    1
     3    24    22    1
     4    22    21    1
     5    21     1    1
     6     1     2    1
     7     2     3    1
     8     3     4    1
     9     4     5    1
    10     5     6   ar
    11     6     7   ar
    12     7    11    1
    13    11    13    1
    14    13    14    2
    15    13    16    1
    16    16    17   ar
    17    17    18   ar
    18    18    19   ar
    19    19    20   ar
    20     7     8   ar
    21     8     9   ar
    22     9    10   ar
    23    10     1    1
    24    10     5   ar
    25    20    16   ar
    26    11    12    1
    27    14    15    1
@<TRIPOS>MOLECULE
*****
 25 27 0 0 0
SMALL
GASTEIGER

@<TRIPOS>ATOM
      1 N         -11.7673   -3.7416   18.9949 N.pl3   1  UNL1       -0.3063
      2 C         -10.3426   -3.5825   18.5536 C.3     1  UNL1        0.0912
      3 C          -9.5853   -4.7638   18.0233 C.3     1  UNL1        0.0261
      4 C         -10.2528   -6.1041   17.9342 C.3     1  UNL1        0.0295
      5 C         -11.6775   -6.2632   18.3754 C.ar    1  UNL1       -0.0054
      6 C         -12.3451   -7.6035   18.2863 C.ar    1  UNL1        0.0371
      7 C         -13.7698   -7.7626   18.7276 C.ar    1  UNL1        0.1354
      8 C         -14.5271   -6.5814   19.2579 C.ar    1  UNL1        0.0414
      9 C         -13.8596   -5.2411   19.3470 C.ar    1  UNL1        0.0177
     10 C         -12.4348   -5.0820   18.9058 C.ar    1  UNL1        0.0440
     11 N         -14.4374   -9.1030   18.6385 N.pl3   1  UNL1       -0.1990
     12 H         -13.9528   -9.8698   18.2558 H       1  UNL1        0.2985
     13 C         -15.8432   -9.2750   19.1323 C.2     1  UNL1        0.3224
     14 N         -16.1039   -9.4868   20.5943 N.2     1  UNL1       -0.0985
     15 H         -15.3524   -9.5129   21.2296 H       1  UNL1        0.3633
     16 C         -16.9883   -9.2353   18.1643 C.ar    1  UNL1        0.1114
     17 C         -18.0787  -10.2586   18.0459 C.ar    1  UNL1        0.0144
     18 C         -19.0084   -9.8210   16.9531 C.ar    1  UNL1        0.0077
     19 C         -18.4926   -8.5272   16.3962 C.ar    1  UNL1        0.0357
     20 S         -17.2441   -8.1652   17.1447 S.2     1  UNL1       -0.0792
     21 C         -12.5246   -2.5604   19.5252 C.3     1  UNL1        0.1081
     22 C         -12.8160   -1.3928   18.6299 C.3     1  UNL1        0.0938
     23 C         -15.3724   -1.4507   19.0899 C.3     1  UNL1        0.0897
     24 N         -14.1349   -0.6849   18.7259 N.3     1  UNL1       -0.2688
     25 C         -14.2165    0.7887   18.4578 C.3     1  UNL1        0.0897
@<TRIPOS>BOND
     1    23    24    1
     2    24    25    1
     3    24    22    1
     4    22    21    1
     5    21     1    1
     6     1     2    1
     7     2     3    1
     8     3     4    1
     9     4     5    1
    10     5     6   ar
    11     6     7   ar
    12     7    11    1
    13    11    13    1
    14    13    14    2
    15    13    16    1
    16    16    17   ar
    17    17    18   ar
    18    18    19   ar
    19    19    20   ar
    20     7     8   ar
    21     8     9   ar
    22     9    10   ar
    23    10     1    1
    24    10     5   ar
    25    20    16   ar
    26    11    12    1
    27    14    15    1
@<TRIPOS>MOLECULE
*****
 25 27 0 0 0
SMALL
GASTEIGER

@<TRIPOS>ATOM
      1 N         -17.4421   -6.4763   18.3731 N.pl3   1  UNL1       -0.3063
      2 C         -18.1118   -7.2522   19.4682 C.3     1  UNL1        0.0912
      3 C         -17.4062   -8.4127   20.1048 C.3     1  UNL1        0.0261
      4 C         -16.0308   -8.7973   19.6463 C.3     1  UNL1        0.0295
      5 C         -15.3610   -8.0214   18.5511 C.ar    1  UNL1       -0.0054
      6 C         -13.9856   -8.4060   18.0925 C.ar    1  UNL1        0.0371
      7 C         -13.3158   -7.6301   16.9974 C.ar    1  UNL1        0.1354
      8 C         -14.0215   -6.4696   16.3608 C.ar    1  UNL1        0.0414
      9 C         -15.3969   -6.0850   16.8193 C.ar    1  UNL1        0.0177
     10 C         -16.0667   -6.8609   17.9145 C.ar    1  UNL1        0.0440
     11 N         -11.9404   -8.0147   16.5388 N.pl3   1  UNL1       -0.1990
     12 H         -11.8215   -8.4941   15.6871 H       1  UNL1        0.2985
     13 C         -10.7460   -7.6689   17.3777 C.2     1  UNL1        0.3224
     14 N          -9.8701   -8.7587   17.9209 N.2     1  UNL1       -0.0985
     15 H         -10.0791   -9.7010   17.7267 H       1  UNL1        0.3633
     16 C         -10.4276   -6.2332   17.6735 C.ar    1  UNL1        0.1114
     17 C         -10.1002   -5.6624   19.0215 C.ar    1  UNL1        0.0144
     18 C          -9.8509   -4.1927   18.8543 C.ar    1  UNL1        0.0077
     19 C         -10.0244   -3.8553   17.4031 C.ar    1  UNL1        0.0357
     20 S         -10.3808   -5.1164   16.6733 S.2     1  UNL1       -0.0792
     21 C         -18.1478   -5.3158   17.7365 C.3     1  UNL1        0.1081
     22 C         -18.0936   -3.9612   18.3785 C.3     1  UNL1        0.0938
     23 C         -16.0728   -3.7012   19.9906 C.3     1  UNL1        0.0897
     24 N         -16.7689   -3.3414   18.7114 N.3     1  UNL1       -0.2688
     25 C         -16.1401   -2.3619   17.7653 C.3     1  UNL1        0.0897
@<TRIPOS>BOND
     1    23    24    1
     2    24    25    1
     3    24    22    1
     4    22    21    1
     5    21     1    1
     6     1     2    1
     7     2     3    1
     8     3     4    1
     9     4     5    1
    10     5     6   ar
    11     6     7   ar
    12     7    11    1
    13    11    13    1
    14    13    14    2
    15    13    16    1
    16    16    17   ar
    17    17    18   ar
    18    18    19   ar
    19    19    20   ar
    20     7     8   ar
    21     8     9   ar
    22     9    10   ar
    23    10     1    1
    24    10     5   ar
    25    20    16   ar
    26    11    12    1
    27    14    15    1
