@<TRIPOS>MOLECULE
*****
 23 25 0 0 0
SMALL
GASTEIGER

@<TRIPOS>ATOM
      1 C          -8.8364  -19.4048   20.2672 C.2     1  UNL1        0.0102
      2 C          -7.9922  -19.3101   21.5035 C.2     1  UNL1       -0.0015
      3 C          -6.5012  -19.4433   21.4055 C.ar    1  UNL1       -0.0002
      4 C          -5.6184  -18.7262   22.3834 C.ar    1  UNL1       -0.0000
      5 C          -4.1276  -18.8593   22.2854 C.ar    1  UNL1       -0.0000
      6 C          -3.5196  -19.7096   21.2096 C.ar    1  UNL1       -0.0000
      7 C          -4.4024  -20.4267   20.2317 C.ar    1  UNL1       -0.0000
      8 C          -5.8933  -20.2936   20.3297 C.ar    1  UNL1       -0.0000
      9 C          -8.6388  -19.0824   22.8376 C.ar    1  UNL1       -0.0002
     10 C          -8.7428  -17.6930   23.3932 C.ar    1  UNL1       -0.0000
     11 C          -9.3894  -17.4653   24.7274 C.ar    1  UNL1       -0.0000
     12 C          -9.9320  -18.6269   25.5060 C.ar    1  UNL1       -0.0000
     13 C          -9.8279  -20.0164   24.9504 C.ar    1  UNL1       -0.0000
     14 C          -9.1813  -20.2441   23.6162 C.ar    1  UNL1       -0.0000
     15 C         -10.3273  -19.2716   20.3652 C.3     1  UNL1        0.1892
     16 O         -11.1807  -20.4950   20.5239 O.3     1  UNL1       -0.3731
     17 H         -10.6155  -21.2830   20.5450 H       1  UNL1        0.2113
     18 C         -12.4177  -18.0351   22.5448 C.3     1  UNL1        0.1318
     19 N         -11.9256  -17.3469   21.3062 N.ar    1  UNL1       -0.3095
     20 C         -12.3080  -15.9694   20.8521 C.ar    1  UNL1        0.0978
     21 C         -11.5835  -15.6864   19.5695 C.ar    1  UNL1        0.1189
     22 N         -10.7533  -16.8890   19.2310 N.ar    1  UNL1       -0.2265
     23 C         -10.9648  -17.9152   20.3044 C.ar    1  UNL1        0.1518
@<TRIPOS>BOND
     1    18    19    1
     2    19    20   ar
     3    20    21   ar
     4    21    22   ar
     5    22    23   ar
     6    23    15    1
     7    15    16    1
     8    15     1    1
     9     1     2    2
    10     2     3    1
    11     3     4   ar
    12     4     5   ar
    13     5     6   ar
    14     6     7   ar
    15     7     8   ar
    16     2     9    1
    17     9    10   ar
    18    10    11   ar
    19    11    12   ar
    20    12    13   ar
    21    13    14   ar
    22    23    19   ar
    23     8     3   ar
    24    14     9   ar
    25    16    17    1
@<TRIPOS>MOLECULE
*****
 23 25 0 0 0
SMALL
GASTEIGER

@<TRIPOS>ATOM
      1 C          -8.8252  -19.4040   20.2662 C.2     1  UNL1        0.0102
      2 C          -7.9846  -19.3106   21.5049 C.2     1  UNL1       -0.0015
      3 C          -6.4930  -19.4382   21.4105 C.ar    1  UNL1       -0.0002
      4 C          -5.8793  -20.2862   20.3361 C.ar    1  UNL1       -0.0000
      5 C          -4.3878  -20.4137   20.2417 C.ar    1  UNL1       -0.0000
      6 C          -3.5099  -19.6934   21.2217 C.ar    1  UNL1       -0.0000
      7 C          -4.1235  -18.8454   22.2961 C.ar    1  UNL1       -0.0000
      8 C          -5.6151  -18.7178   22.3905 C.ar    1  UNL1       -0.0000
      9 C          -8.6355  -19.0895   22.8381 C.ar    1  UNL1       -0.0002
     10 C          -9.1771  -20.2555   23.6108 C.ar    1  UNL1       -0.0000
     11 C          -9.8280  -20.0345   24.9441 C.ar    1  UNL1       -0.0000
     12 C          -9.9373  -18.6475   25.5046 C.ar    1  UNL1       -0.0000
     13 C          -9.3957  -17.4814   24.7318 C.ar    1  UNL1       -0.0000
     14 C          -8.7448  -17.7024   23.3986 C.ar    1  UNL1       -0.0000
     15 C         -10.3169  -19.2764   20.3606 C.3     1  UNL1        0.1892
     16 O         -11.1666  -20.5034   20.5104 O.3     1  UNL1       -0.3731
     17 H         -10.5988  -21.2896   20.5290 H       1  UNL1        0.2113
     18 C         -12.4204  -18.0599   22.5389 C.3     1  UNL1        0.1318
     19 N         -11.9256  -17.3627   21.3064 N.ar    1  UNL1       -0.3095
     20 C         -12.3109  -15.9838   20.8589 C.ar    1  UNL1        0.0978
     21 C         -11.5820  -15.6908   19.5810 C.ar    1  UNL1        0.1189
     22 N         -10.7464  -16.8885   19.2388 N.ar    1  UNL1       -0.2265
     23 C         -10.9587  -17.9218   20.3052 C.ar    1  UNL1        0.1518
@<TRIPOS>BOND
     1    18    19    1
     2    19    20   ar
     3    20    21   ar
     4    21    22   ar
     5    22    23   ar
     6    23    15    1
     7    15    16    1
     8    15     1    1
     9     1     2    2
    10     2     3    1
    11     3     4   ar
    12     4     5   ar
    13     5     6   ar
    14     6     7   ar
    15     7     8   ar
    16     2     9    1
    17     9    10   ar
    18    10    11   ar
    19    11    12   ar
    20    12    13   ar
    21    13    14   ar
    22    23    19   ar
    23     8     3   ar
    24    14     9   ar
    25    16    17    1
@<TRIPOS>MOLECULE
*****
 23 25 0 0 0
SMALL
GASTEIGER

@<TRIPOS>ATOM
      1 C          -7.6622  -16.6167   22.4993 C.2     1  UNL1        0.0102
      2 C          -7.5550  -18.0605   22.1071 C.2     1  UNL1       -0.0015
      3 C          -6.2196  -18.6441   21.7519 C.ar    1  UNL1       -0.0002
      4 C          -6.0482  -19.3969   20.4659 C.ar    1  UNL1       -0.0000
      5 C          -4.7129  -19.9805   20.1107 C.ar    1  UNL1       -0.0000
      6 C          -3.5489  -19.8112   21.0416 C.ar    1  UNL1       -0.0000
      7 C          -3.7202  -19.0584   22.3276 C.ar    1  UNL1       -0.0000
      8 C          -5.0556  -18.4748   22.6827 C.ar    1  UNL1       -0.0000
      9 C          -8.7833  -18.9207   22.0701 C.ar    1  UNL1       -0.0002
     10 C          -9.5411  -19.0912   20.7869 C.ar    1  UNL1       -0.0000
     11 C         -10.7693  -19.9515   20.7499 C.ar    1  UNL1       -0.0000
     12 C         -11.2397  -20.6413   21.9961 C.ar    1  UNL1       -0.0000
     13 C         -10.4819  -20.4708   23.2793 C.ar    1  UNL1       -0.0000
     14 C          -9.2536  -19.6105   23.3163 C.ar    1  UNL1       -0.0000
     15 C          -8.9976  -16.0330   22.8546 C.3     1  UNL1        0.1892
     16 O          -9.2261  -15.4605   24.2221 O.3     1  UNL1       -0.3731
     17 H          -8.4156  -15.5465   24.7481 H       1  UNL1        0.2113
     18 C         -12.0103  -17.2080   23.2936 C.3     1  UNL1        0.1318
     19 N         -11.4892  -16.5620   22.0441 N.ar    1  UNL1       -0.3095
     20 C         -12.2615  -16.3427   20.7770 C.ar    1  UNL1        0.0978
     21 C         -11.3540  -15.6670   19.7921 C.ar    1  UNL1        0.1189
     22 N         -10.0209  -15.4688   20.4505 N.ar    1  UNL1       -0.2265
     23 C         -10.1044  -16.0219   21.8423 C.ar    1  UNL1        0.1518
@<TRIPOS>BOND
     1    18    19    1
     2    19    20   ar
     3    20    21   ar
     4    21    22   ar
     5    22    23   ar
     6    23    15    1
     7    15    16    1
     8    15     1    1
     9     1     2    2
    10     2     3    1
    11     3     4   ar
    12     4     5   ar
    13     5     6   ar
    14     6     7   ar
    15     7     8   ar
    16     2     9    1
    17     9    10   ar
    18    10    11   ar
    19    11    12   ar
    20    12    13   ar
    21    13    14   ar
    22    23    19   ar
    23     8     3   ar
    24    14     9   ar
    25    16    17    1
@<TRIPOS>MOLECULE
*****
 23 25 0 0 0
SMALL
GASTEIGER

@<TRIPOS>ATOM
      1 C          -6.6330  -17.0444   22.9065 C.2     1  UNL1        0.0102
      2 C          -6.9868  -18.3430   22.2443 C.2     1  UNL1       -0.0015
      3 C          -5.9249  -19.1463   21.5534 C.ar    1  UNL1       -0.0002
      4 C          -4.4769  -18.8269   21.7793 C.ar    1  UNL1       -0.0000
      5 C          -3.4151  -19.6302   21.0884 C.ar    1  UNL1       -0.0000
      6 C          -3.8015  -20.7529   20.1717 C.ar    1  UNL1       -0.0000
      7 C          -5.2495  -21.0723   19.9459 C.ar    1  UNL1       -0.0000
      8 C          -6.3113  -20.2690   20.6368 C.ar    1  UNL1       -0.0000
      9 C          -8.4023  -18.8383   22.2731 C.ar    1  UNL1       -0.0002
     10 C          -8.8830  -19.6690   23.4258 C.ar    1  UNL1       -0.0000
     11 C         -10.2986  -20.1643   23.4545 C.ar    1  UNL1       -0.0000
     12 C         -11.2335  -19.8290   22.3305 C.ar    1  UNL1       -0.0000
     13 C         -10.7528  -18.9983   21.1776 C.ar    1  UNL1       -0.0000
     14 C          -9.3372  -18.5030   21.1489 C.ar    1  UNL1       -0.0000
     15 C          -7.6948  -16.2411   23.5974 C.3     1  UNL1        0.1892
     16 O          -8.7405  -15.5294   22.7911 O.3     1  UNL1       -0.3731
     17 H          -8.5865  -15.6910   21.8471 H       1  UNL1        0.2113
     18 C          -5.3086  -15.0396   25.4714 C.3     1  UNL1        0.1318
     19 N          -6.6141  -15.5972   25.9559 N.ar    1  UNL1       -0.3095
     20 C          -7.0520  -15.7004   27.3868 C.ar    1  UNL1        0.0978
     21 C          -8.4195  -16.3165   27.4097 C.ar    1  UNL1        0.1189
     22 N          -8.8267  -16.5940   25.9930 N.ar    1  UNL1       -0.2265
     23 C          -7.7109  -16.1494   25.0944 C.ar    1  UNL1        0.1518
@<TRIPOS>BOND
     1    18    19    1
     2    19    20   ar
     3    20    21   ar
     4    21    22   ar
     5    22    23   ar
     6    23    15    1
     7    15    16    1
     8    15     1    1
     9     1     2    2
    10     2     3    1
    11     3     4   ar
    12     4     5   ar
    13     5     6   ar
    14     6     7   ar
    15     7     8   ar
    16     2     9    1
    17     9    10   ar
    18    10    11   ar
    19    11    12   ar
    20    12    13   ar
    21    13    14   ar
    22    23    19   ar
    23     8     3   ar
    24    14     9   ar
    25    16    17    1
@<TRIPOS>MOLECULE
*****
 23 25 0 0 0
SMALL
GASTEIGER

@<TRIPOS>ATOM
      1 C          -8.2793  -15.7503   22.5504 C.2     1  UNL1        0.0102
      2 C          -8.6936  -16.2893   23.8875 C.2     1  UNL1       -0.0015
      3 C          -7.9673  -15.8590   25.1274 C.ar    1  UNL1       -0.0002
      4 C          -6.4839  -15.6400   25.0898 C.ar    1  UNL1       -0.0000
      5 C          -5.7576  -15.2097   26.3297 C.ar    1  UNL1       -0.0000
      6 C          -6.5148  -14.9984   27.6072 C.ar    1  UNL1       -0.0000
      7 C          -7.9983  -15.2173   27.6448 C.ar    1  UNL1       -0.0000
      8 C          -8.7245  -15.6476   26.4049 C.ar    1  UNL1       -0.0000
      9 C          -9.8342  -17.2586   23.9847 C.ar    1  UNL1       -0.0002
     10 C          -9.6070  -18.6300   24.5482 C.ar    1  UNL1       -0.0000
     11 C         -10.7476  -19.5993   24.6454 C.ar    1  UNL1       -0.0000
     12 C         -12.1154  -19.1973   24.1791 C.ar    1  UNL1       -0.0000
     13 C         -12.3426  -17.8258   23.6155 C.ar    1  UNL1       -0.0000
     14 C         -11.2020  -16.8565   23.5183 C.ar    1  UNL1       -0.0000
     15 C          -9.0056  -16.1806   21.3104 C.3     1  UNL1        0.1892
     16 O          -9.9647  -15.2426   20.6394 O.3     1  UNL1       -0.3731
     17 H          -9.9978  -14.4074   21.1315 H       1  UNL1        0.2113
     18 C         -11.2878  -18.1561   20.0700 C.3     1  UNL1        0.1318
     19 N          -9.8217  -18.4569   20.1714 N.ar    1  UNL1       -0.3095
     20 C          -9.1473  -19.7186   19.7204 C.ar    1  UNL1        0.0978
     21 C          -7.6815  -19.5902   20.0119 C.ar    1  UNL1        0.1189
     22 N          -7.4500  -18.2493   20.6430 N.ar    1  UNL1       -0.2265
     23 C          -8.7727  -17.5489   20.7416 C.ar    1  UNL1        0.1518
@<TRIPOS>BOND
     1    18    19    1
     2    19    20   ar
     3    20    21   ar
     4    21    22   ar
     5    22    23   ar
     6    23    15    1
     7    15    16    1
     8    15     1    1
     9     1     2    2
    10     2     3    1
    11     3     4   ar
    12     4     5   ar
    13     5     6   ar
    14     6     7   ar
    15     7     8   ar
    16     2     9    1
    17     9    10   ar
    18    10    11   ar
    19    11    12   ar
    20    12    13   ar
    21    13    14   ar
    22    23    19   ar
    23     8     3   ar
    24    14     9   ar
    25    16    17    1
@<TRIPOS>MOLECULE
*****
 23 25 0 0 0
SMALL
GASTEIGER

@<TRIPOS>ATOM
      1 C         -14.0242   -6.9291   17.6853 C.2     1  UNL1        0.0102
      2 C         -15.0001   -6.3529   18.6679 C.2     1  UNL1       -0.0015
      3 C         -16.1606   -7.1762   19.1429 C.ar    1  UNL1       -0.0002
      4 C         -16.0023   -8.6554   19.3345 C.ar    1  UNL1       -0.0000
      5 C         -17.1627   -9.4786   19.8095 C.ar    1  UNL1       -0.0000
      6 C         -18.4816   -8.8225   20.0929 C.ar    1  UNL1       -0.0000
      7 C         -18.6399   -7.3433   19.9013 C.ar    1  UNL1       -0.0000
      8 C         -17.4794   -6.5201   19.4263 C.ar    1  UNL1       -0.0000
      9 C         -14.8156   -4.9536   19.1756 C.ar    1  UNL1       -0.0002
     10 C         -15.3151   -3.7914   18.3695 C.ar    1  UNL1       -0.0000
     11 C         -15.1306   -2.3920   18.8772 C.ar    1  UNL1       -0.0000
     12 C         -14.4466   -2.1549   20.1909 C.ar    1  UNL1       -0.0000
     13 C         -13.9471   -3.3171   20.9971 C.ar    1  UNL1       -0.0000
     14 C         -14.1316   -4.7165   20.4894 C.ar    1  UNL1       -0.0000
     15 C         -12.8637   -6.1058   17.2103 C.3     1  UNL1        0.1892
     16 O         -13.0001   -5.2556   15.9820 O.3     1  UNL1       -0.3731
     17 H         -13.8945   -5.3526   15.6194 H       1  UNL1        0.2113
     18 C         -11.2956   -3.5136   18.4232 C.3     1  UNL1        0.1318
     19 N         -10.8461   -4.9413   18.5210 N.ar    1  UNL1       -0.3095
     20 C          -9.5968   -5.4281   19.1935 C.ar    1  UNL1        0.0978
     21 C          -9.5454   -6.9205   19.0516 C.ar    1  UNL1        0.1189
     22 N         -10.7630   -7.3560   18.2914 N.ar    1  UNL1       -0.2265
     23 C         -11.5668   -6.1328   17.9635 C.ar    1  UNL1        0.1518
@<TRIPOS>BOND
     1    18    19    1
     2    19    20   ar
     3    20    21   ar
     4    21    22   ar
     5    22    23   ar
     6    23    15    1
     7    15    16    1
     8    15     1    1
     9     1     2    2
    10     2     3    1
    11     3     4   ar
    12     4     5   ar
    13     5     6   ar
    14     6     7   ar
    15     7     8   ar
    16     2     9    1
    17     9    10   ar
    18    10    11   ar
    19    11    12   ar
    20    12    13   ar
    21    13    14   ar
    22    23    19   ar
    23     8     3   ar
    24    14     9   ar
    25    16    17    1
@<TRIPOS>MOLECULE
*****
 23 25 0 0 0
SMALL
GASTEIGER

@<TRIPOS>ATOM
      1 C         -10.4485  -16.8545   24.1861 C.2     1  UNL1        0.0102
      2 C          -8.9682  -17.0872   24.1178 C.2     1  UNL1       -0.0015
      3 C          -8.0510  -16.3634   25.0584 C.ar    1  UNL1       -0.0002
      4 C          -8.4439  -16.1767   26.4939 C.ar    1  UNL1       -0.0000
      5 C          -7.5267  -15.4529   27.4345 C.ar    1  UNL1       -0.0000
      6 C          -6.2165  -14.9158   26.9396 C.ar    1  UNL1       -0.0000
      7 C          -5.8235  -15.1025   25.5041 C.ar    1  UNL1       -0.0000
      8 C          -6.7408  -15.8263   24.5635 C.ar    1  UNL1       -0.0000
      9 C          -8.4052  -18.0438   23.1088 C.ar    1  UNL1       -0.0002
     10 C          -8.3997  -19.5166   23.3932 C.ar    1  UNL1       -0.0000
     11 C          -7.8366  -20.4731   22.3843 C.ar    1  UNL1       -0.0000
     12 C          -7.2791  -19.9569   21.0910 C.ar    1  UNL1       -0.0000
     13 C          -7.2846  -18.4841   20.8065 C.ar    1  UNL1       -0.0000
     14 C          -7.8476  -17.5275   21.8155 C.ar    1  UNL1       -0.0000
     15 C         -11.3657  -17.5783   23.2454 C.3     1  UNL1        0.1892
     16 O         -12.2734  -18.6547   23.7628 O.3     1  UNL1       -0.3731
     17 H         -12.1427  -18.7560   24.7186 H       1  UNL1        0.2113
     18 C         -11.0298  -19.6707   20.7638 C.3     1  UNL1        0.1318
     19 N         -11.2209  -18.1876   20.6468 N.ar    1  UNL1       -0.3095
     20 C         -11.2912  -17.4058   19.3686 C.ar    1  UNL1        0.0978
     21 C         -11.4890  -15.9608   19.7194 C.ar    1  UNL1        0.1189
     22 N         -11.5410  -15.8496   21.2143 N.ar    1  UNL1       -0.2265
     23 C         -11.3753  -17.2258   21.7875 C.ar    1  UNL1        0.1518
@<TRIPOS>BOND
     1    18    19    1
     2    19    20   ar
     3    20    21   ar
     4    21    22   ar
     5    22    23   ar
     6    23    15    1
     7    15    16    1
     8    15     1    1
     9     1     2    2
    10     2     3    1
    11     3     4   ar
    12     4     5   ar
    13     5     6   ar
    14     6     7   ar
    15     7     8   ar
    16     2     9    1
    17     9    10   ar
    18    10    11   ar
    19    11    12   ar
    20    12    13   ar
    21    13    14   ar
    22    23    19   ar
    23     8     3   ar
    24    14     9   ar
    25    16    17    1
@<TRIPOS>MOLECULE
*****
 23 25 0 0 0
SMALL
GASTEIGER

@<TRIPOS>ATOM
      1 C          -9.0230  -19.7247   22.1510 C.2     1  UNL1        0.0102
      2 C          -7.8344  -18.8555   22.4366 C.2     1  UNL1       -0.0015
      3 C          -6.4862  -19.2263   21.8934 C.ar    1  UNL1       -0.0002
      4 C          -6.3783  -20.1821   20.7424 C.ar    1  UNL1       -0.0000
      5 C          -5.0302  -20.5528   20.1994 C.ar    1  UNL1       -0.0000
      6 C          -3.7899  -19.9678   20.8073 C.ar    1  UNL1       -0.0000
      7 C          -3.8978  -19.0121   21.9583 C.ar    1  UNL1       -0.0000
      8 C          -5.2460  -18.6413   22.5014 C.ar    1  UNL1       -0.0000
      9 C          -7.9939  -17.6154   23.2652 C.ar    1  UNL1       -0.0002
     10 C          -8.5103  -17.7134   24.6701 C.ar    1  UNL1       -0.0000
     11 C          -8.6698  -16.4733   25.4988 C.ar    1  UNL1       -0.0000
     12 C          -8.3130  -15.1352   24.9226 C.ar    1  UNL1       -0.0000
     13 C          -7.7966  -15.0371   23.5176 C.ar    1  UNL1       -0.0000
     14 C          -7.6371  -16.2772   22.6890 C.ar    1  UNL1       -0.0000
     15 C         -10.3712  -19.3539   22.6941 C.3     1  UNL1        0.1892
     16 O         -11.0097  -20.1981   23.7570 O.3     1  UNL1       -0.3731
     17 H         -10.4229  -20.9383   23.9778 H       1  UNL1        0.2113
     18 C         -10.8417  -18.6042   19.5531 C.3     1  UNL1        0.1318
     19 N         -11.2971  -17.7943   20.7306 N.ar    1  UNL1       -0.3095
     20 C         -12.0488  -16.4976   20.6711 C.ar    1  UNL1        0.0978
     21 C         -12.2971  -16.0408   22.0782 C.ar    1  UNL1        0.1189
     22 N         -11.6989  -17.0552   23.0072 N.ar    1  UNL1       -0.2265
     23 C         -11.0809  -18.1389   22.1744 C.ar    1  UNL1        0.1518
@<TRIPOS>BOND
     1    18    19    1
     2    19    20   ar
     3    20    21   ar
     4    21    22   ar
     5    22    23   ar
     6    23    15    1
     7    15    16    1
     8    15     1    1
     9     1     2    2
    10     2     3    1
    11     3     4   ar
    12     4     5   ar
    13     5     6   ar
    14     6     7   ar
    15     7     8   ar
    16     2     9    1
    17     9    10   ar
    18    10    11   ar
    19    11    12   ar
    20    12    13   ar
    21    13    14   ar
    22    23    19   ar
    23     8     3   ar
    24    14     9   ar
    25    16    17    1
@<TRIPOS>MOLECULE
*****
 23 25 0 0 0
SMALL
GASTEIGER

@<TRIPOS>ATOM
      1 C          -9.7172  -15.5428   23.1849 C.2     1  UNL1        0.0102
      2 C          -8.8618  -16.5038   23.9560 C.2     1  UNL1       -0.0015
      3 C          -7.6251  -16.0161   24.6509 C.ar    1  UNL1       -0.0002
      4 C          -7.6486  -15.7538   26.1276 C.ar    1  UNL1       -0.0000
      5 C          -6.4120  -15.2661   26.8224 C.ar    1  UNL1       -0.0000
      6 C          -5.1518  -15.0407   26.0406 C.ar    1  UNL1       -0.0000
      7 C          -5.1284  -15.3031   24.5639 C.ar    1  UNL1       -0.0000
      8 C          -6.3650  -15.7907   23.8691 C.ar    1  UNL1       -0.0000
      9 C          -9.2430  -17.9526   24.0323 C.ar    1  UNL1       -0.0002
     10 C         -10.3304  -18.3938   24.9666 C.ar    1  UNL1       -0.0000
     11 C         -10.7116  -19.8425   25.0429 C.ar    1  UNL1       -0.0000
     12 C         -10.0054  -20.8501   24.1849 C.ar    1  UNL1       -0.0000
     13 C          -8.9180  -20.4089   23.2506 C.ar    1  UNL1       -0.0000
     14 C          -8.5368  -18.9601   23.1743 C.ar    1  UNL1       -0.0000
     15 C         -10.9539  -16.0306   22.4900 C.3     1  UNL1        0.1892
     16 O         -12.2662  -15.3428   22.7238 O.3     1  UNL1       -0.3731
     17 H         -12.1405  -14.6091   23.3458 H       1  UNL1        0.2113
     18 C         -13.0139  -18.5608   22.4264 C.3     1  UNL1        0.1318
     19 N         -11.8251  -18.3690   21.5320 N.ar    1  UNL1       -0.3095
     20 C         -11.3744  -19.3066   20.4514 C.ar    1  UNL1        0.0978
     21 C         -10.1489  -18.7230   19.8128 C.ar    1  UNL1        0.1189
     22 N          -9.8423  -17.4248   20.4987 N.ar    1  UNL1       -0.2265
     23 C         -10.8782  -17.2060   21.5613 C.ar    1  UNL1        0.1518
@<TRIPOS>BOND
     1    18    19    1
     2    19    20   ar
     3    20    21   ar
     4    21    22   ar
     5    22    23   ar
     6    23    15    1
     7    15    16    1
     8    15     1    1
     9     1     2    2
    10     2     3    1
    11     3     4   ar
    12     4     5   ar
    13     5     6   ar
    14     6     7   ar
    15     7     8   ar
    16     2     9    1
    17     9    10   ar
    18    10    11   ar
    19    11    12   ar
    20    12    13   ar
    21    13    14   ar
    22    23    19   ar
    23     8     3   ar
    24    14     9   ar
    25    16    17    1
