@<TRIPOS>MOLECULE
*****
 33 36 0 0 0
SMALL
GASTEIGER

@<TRIPOS>ATOM
      1 N          -3.9744  -17.4165   23.1674 N.pl3   1  UNL1       -0.2859
      2 C          -2.4850  -17.2527   23.2391 C.3     1  UNL1        0.1875
      3 N          -1.8594  -18.3311   22.4050 N.am    1  UNL1       -0.2862
      4 C          -2.9620  -19.1615   21.8179 C.2     1  UNL1        0.2397
      5 O          -2.7882  -20.3486   20.9177 O.2     1  UNL1       -0.2734
      6 C          -4.2692  -18.5962   22.2890 C.3     1  UNL1        0.1304
      7 C          -5.4923  -17.9236   22.8381 C.3     1  UNL1        0.0444
      8 C          -6.8550  -18.4463   22.4917 C.3     1  UNL1        0.0743
      9 N          -6.9945  -19.6415   21.5962 N.3     1  UNL1       -0.2712
     10 C          -5.7713  -20.3142   21.0472 C.3     1  UNL1        0.0743
     11 C          -4.4087  -19.7915   21.3935 C.3     1  UNL1        0.0444
     12 H          -0.8945  -18.4697   22.2672 H       1  UNL1        0.1510
     13 C          -6.3826  -15.8849   27.5096 C.3     1  UNL1        0.0311
     14 C          -6.1946  -15.7866   26.0246 C.ar    1  UNL1       -0.0206
     15 C          -7.0227  -14.8241   25.2258 C.ar    1  UNL1       -0.0042
     16 C          -6.8347  -14.7259   23.7409 C.ar    1  UNL1        0.0009
     17 C          -5.8186  -15.5900   23.0547 C.ar    1  UNL1        0.0145
     18 C          -4.9905  -16.5524   23.8535 C.ar    1  UNL1        0.0490
     19 C          -5.1785  -16.6507   25.3384 C.ar    1  UNL1        0.0103
     20 C          -8.3572  -20.1642   21.2498 C.3     1  UNL1        0.0919
     21 C          -9.3633  -19.2621   20.5988 C.3     1  UNL1        0.0878
     22 C         -10.6653  -19.8218   20.1073 C.3     1  UNL1        0.0227
     23 N          -9.0674  -17.8003   20.4391 N.am    1  UNL1       -0.3011
     24 C          -9.8210  -16.7894   21.2517 C.2     1  UNL1        0.2458
     25 O          -9.5251  -15.3275   21.0921 O.2     1  UNL1       -0.2701
     26 H          -8.3786  -17.5043   19.8010 H       1  UNL1        0.1497
     27 C         -10.8704  -17.2403   22.2239 C.ar    1  UNL1        0.0534
     28 C         -10.4711  -17.9574   23.4794 C.ar    1  UNL1        0.0050
     29 C         -11.5205  -18.4084   24.4517 C.ar    1  UNL1        0.0068
     30 C         -12.9693  -18.1423   24.1685 C.ar    1  UNL1        0.0346
     31 BR        -14.0187  -18.5933   25.1407 Br      1  UNL1       -0.0490
     32 C         -13.3686  -17.4252   22.9129 C.ar    1  UNL1        0.0068
     33 C         -12.3192  -16.9743   21.9407 C.ar    1  UNL1        0.0050
@<TRIPOS>BOND
     1    13    14    1
     2    14    15   ar
     3    15    16   ar
     4    16    17   ar
     5    17    18   ar
     6    18     1    1
     7     1     2    1
     8     2     3    1
     9     3     4   am
    10     4     5    2
    11     4     6    1
    12     6     7    1
    13     7     8    1
    14     8     9    1
    15     9    20    1
    16    20    21    1
    17    21    22    1
    18    21    23    1
    19    23    24   am
    20    24    25    2
    21    24    27    1
    22    27    28   ar
    23    28    29   ar
    24    29    30   ar
    25    30    31    1
    26    30    32   ar
    27    32    33   ar
    28     9    10    1
    29    10    11    1
    30    18    19   ar
    31    19    14   ar
    32     6     1    1
    33    33    27   ar
    34    11     6    1
    35     3    12    1
    36    23    26    1
@<TRIPOS>MOLECULE
*****
 33 36 0 0 0
SMALL
GASTEIGER

@<TRIPOS>ATOM
      1 N          -5.3102  -19.9279   20.9629 N.pl3   1  UNL1       -0.2859
      2 C          -4.4770  -20.9302   20.2204 C.3     1  UNL1        0.1875
      3 N          -3.0339  -20.6322   20.5012 N.am    1  UNL1       -0.2862
      4 C          -2.9753  -19.4457   21.4170 C.2     1  UNL1        0.2397
      5 O          -1.7287  -18.8067   21.9534 O.2     1  UNL1       -0.2734
      6 C          -4.3821  -19.0104   21.7024 C.3     1  UNL1        0.1304
      7 C          -5.8354  -18.6932   21.8952 C.3     1  UNL1        0.0444
      8 C          -6.2426  -17.5425   22.7670 C.3     1  UNL1        0.0743
      9 N          -5.1965  -16.7090   23.4460 N.3     1  UNL1       -0.2712
     10 C          -3.7432  -17.0263   23.2532 C.3     1  UNL1        0.0743
     11 C          -3.3360  -18.1770   22.3814 C.3     1  UNL1        0.0444
     12 H          -2.2609  -21.1282   20.1466 H       1  UNL1        0.1510
     13 C          -9.8328  -20.3744   23.4822 C.3     1  UNL1        0.0311
     14 C          -9.0697  -20.0790   22.2250 C.ar    1  UNL1       -0.0206
     15 C          -9.8050  -19.7115   20.9702 C.ar    1  UNL1       -0.0042
     16 C          -9.0419  -19.4161   19.7130 C.ar    1  UNL1        0.0009
     17 C          -7.5437  -19.4882   19.7106 C.ar    1  UNL1        0.0145
     18 C          -6.8085  -19.8557   20.9653 C.ar    1  UNL1        0.0490
     19 C          -7.5715  -20.1511   22.2225 C.ar    1  UNL1        0.0103
     20 C          -5.6038  -15.5583   24.3178 C.3     1  UNL1        0.0919
     21 C          -7.0375  -15.3997   24.7291 C.3     1  UNL1        0.0878
     22 C          -7.8399  -14.2391   24.2197 C.3     1  UNL1        0.0227
     23 N          -7.6689  -16.4015   25.6498 N.am    1  UNL1       -0.3011
     24 C          -8.9286  -17.1061   25.2411 C.2     1  UNL1        0.2458
     25 O          -9.5600  -18.1080   26.1618 O.2     1  UNL1       -0.2701
     26 H          -7.2567  -16.5966   26.5223 H       1  UNL1        0.1497
     27 C          -9.5567  -16.8089   23.9118 C.ar    1  UNL1        0.0534
     28 C          -8.6938  -16.4573   22.7364 C.ar    1  UNL1        0.0050
     29 C          -9.3219  -16.1601   21.4070 C.ar    1  UNL1        0.0068
     30 C         -10.8130  -16.2144   21.2532 C.ar    1  UNL1        0.0346
     31 BR        -11.4411  -15.9172   19.9239 Br      1  UNL1       -0.0490
     32 C         -11.6759  -16.5660   22.4287 C.ar    1  UNL1        0.0068
     33 C         -11.0478  -16.8632   23.7580 C.ar    1  UNL1        0.0050
@<TRIPOS>BOND
     1    13    14    1
     2    14    15   ar
     3    15    16   ar
     4    16    17   ar
     5    17    18   ar
     6    18     1    1
     7     1     2    1
     8     2     3    1
     9     3     4   am
    10     4     5    2
    11     4     6    1
    12     6     7    1
    13     7     8    1
    14     8     9    1
    15     9    20    1
    16    20    21    1
    17    21    22    1
    18    21    23    1
    19    23    24   am
    20    24    25    2
    21    24    27    1
    22    27    28   ar
    23    28    29   ar
    24    29    30   ar
    25    30    31    1
    26    30    32   ar
    27    32    33   ar
    28     9    10    1
    29    10    11    1
    30    18    19   ar
    31    19    14   ar
    32     6     1    1
    33    33    27   ar
    34    11     6    1
    35     3    12    1
    36    23    26    1
@<TRIPOS>MOLECULE
*****
 33 36 0 0 0
SMALL
GASTEIGER

@<TRIPOS>ATOM
      1 N         -10.8806  -17.4537   22.5084 N.pl3   1  UNL1       -0.2859
      2 C         -12.1962  -16.8012   22.2025 C.3     1  UNL1        0.1875
      3 N         -12.5495  -17.1153   20.7789 N.am    1  UNL1       -0.2862
      4 C         -11.4523  -17.9619   20.2050 C.2     1  UNL1        0.2397
      5 O         -11.3963  -18.5042   18.8076 O.2     1  UNL1       -0.2734
      6 C         -10.4208  -18.1710   21.2738 C.3     1  UNL1        0.1304
      7 C          -9.4806  -18.2930   22.4362 C.3     1  UNL1        0.0444
      8 C          -8.2122  -19.0811   22.2952 C.3     1  UNL1        0.0743
      9 N          -7.8839  -19.7472   20.9919 N.3     1  UNL1       -0.2712
     10 C          -8.8241  -19.6252   19.8296 C.3     1  UNL1        0.0743
     11 C         -10.0925  -18.8371   19.9705 C.3     1  UNL1        0.0444
     12 H         -13.3594  -16.8181   20.3045 H       1  UNL1        0.1510
     13 C          -7.6120  -15.0326   25.7417 C.3     1  UNL1        0.0311
     14 C          -8.5183  -16.1879   25.4353 C.ar    1  UNL1       -0.0206
     15 C          -8.6967  -17.2881   26.4394 C.ar    1  UNL1       -0.0042
     16 C          -9.6030  -18.4434   26.1330 C.ar    1  UNL1        0.0009
     17 C         -10.3309  -18.4986   24.8226 C.ar    1  UNL1        0.0145
     18 C         -10.1526  -17.3985   23.8187 C.ar    1  UNL1        0.0490
     19 C          -9.2463  -16.2432   24.1251 C.ar    1  UNL1        0.0103
     20 C          -6.6153  -20.5353   20.8510 C.3     1  UNL1        0.0919
     21 C          -5.4278  -19.9286   20.1643 C.3     1  UNL1        0.0878
     22 C          -5.6078  -18.7447   19.2609 C.3     1  UNL1        0.0227
     23 N          -4.0603  -20.5057   20.3809 N.am    1  UNL1       -0.3011
     24 C          -3.1006  -19.8302   21.3151 C.2     1  UNL1        0.2458
     25 O          -1.7331  -20.4074   21.5317 O.2     1  UNL1       -0.2701
     26 H          -3.7927  -21.3278   19.9099 H       1  UNL1        0.1497
     27 C          -3.5083  -18.5777   22.0326 C.ar    1  UNL1        0.0534
     28 C          -2.7723  -17.2954   21.7801 C.ar    1  UNL1        0.0050
     29 C          -3.1800  -16.0428   22.4977 C.ar    1  UNL1        0.0068
     30 C          -4.3237  -16.0726   23.4677 C.ar    1  UNL1        0.0346
     31 BR         -4.7314  -14.8201   24.1853 Br      1  UNL1       -0.0490
     32 C          -5.0597  -17.3551   23.7202 C.ar    1  UNL1        0.0068
     33 C          -4.6520  -18.6076   23.0027 C.ar    1  UNL1        0.0050
@<TRIPOS>BOND
     1    13    14    1
     2    14    15   ar
     3    15    16   ar
     4    16    17   ar
     5    17    18   ar
     6    18     1    1
     7     1     2    1
     8     2     3    1
     9     3     4   am
    10     4     5    2
    11     4     6    1
    12     6     7    1
    13     7     8    1
    14     8     9    1
    15     9    20    1
    16    20    21    1
    17    21    22    1
    18    21    23    1
    19    23    24   am
    20    24    25    2
    21    24    27    1
    22    27    28   ar
    23    28    29   ar
    24    29    30   ar
    25    30    31    1
    26    30    32   ar
    27    32    33   ar
    28     9    10    1
    29    10    11    1
    30    18    19   ar
    31    19    14   ar
    32     6     1    1
    33    33    27   ar
    34    11     6    1
    35     3    12    1
    36    23    26    1
@<TRIPOS>MOLECULE
*****
 33 36 0 0 0
SMALL
GASTEIGER

@<TRIPOS>ATOM
      1 N         -10.4529  -16.8862   22.5381 N.pl3   1  UNL1       -0.2859
      2 C         -11.9353  -16.6636   22.5958 C.3     1  UNL1        0.1875
      3 N         -12.5547  -17.3600   21.4205 N.am    1  UNL1       -0.2862
      4 C         -11.4553  -18.0130   20.6364 C.2     1  UNL1        0.2397
      5 O         -11.6249  -18.8175   19.3818 O.2     1  UNL1       -0.2734
      6 C         -10.1563  -17.7202   21.3271 C.3     1  UNL1        0.1304
      7 C          -8.9412  -17.3473   22.1237 C.3     1  UNL1        0.0444
      8 C          -7.5840  -17.8077   21.6811 C.3     1  UNL1        0.0743
      9 N          -7.4418  -18.6409   20.4419 N.3     1  UNL1       -0.2712
     10 C          -8.6569  -19.0138   19.6454 C.3     1  UNL1        0.0743
     11 C         -10.0141  -18.5535   20.0879 C.3     1  UNL1        0.0444
     12 H         -13.5144  -17.3842   21.2021 H       1  UNL1        0.1510
     13 C          -8.4313  -16.8571   27.3248 C.3     1  UNL1        0.0311
     14 C          -8.4337  -16.3517   25.9125 C.ar    1  UNL1       -0.0206
     15 C          -7.4274  -15.3262   25.4812 C.ar    1  UNL1       -0.0042
     16 C          -7.4297  -14.8208   24.0689 C.ar    1  UNL1        0.0009
     17 C          -8.4382  -15.3408   23.0879 C.ar    1  UNL1        0.0145
     18 C          -9.4444  -16.3662   23.5191 C.ar    1  UNL1        0.0490
     19 C          -9.4421  -16.8716   24.9314 C.ar    1  UNL1        0.0103
     20 C          -6.0845  -19.1013   19.9993 C.3     1  UNL1        0.0919
     21 C          -5.1937  -19.8378   20.9554 C.3     1  UNL1        0.0878
     22 C          -4.3177  -20.9499   20.4592 C.3     1  UNL1        0.0227
     23 N          -5.1788  -19.4623   22.4075 N.am    1  UNL1       -0.3011
     24 C          -4.0303  -18.6765   22.9673 C.2     1  UNL1        0.2458
     25 O          -4.0154  -18.3010   24.4195 O.2     1  UNL1       -0.2701
     26 H          -5.9229  -19.7317   22.9933 H       1  UNL1        0.1497
     27 C          -2.8966  -18.2661   22.0749 C.ar    1  UNL1        0.0534
     28 C          -2.5634  -16.8135   21.9056 C.ar    1  UNL1        0.0050
     29 C          -1.4297  -16.4030   21.0132 C.ar    1  UNL1        0.0068
     30 C          -0.6293  -17.4454   20.2901 C.ar    1  UNL1        0.0346
     31 BR          0.5043  -17.0350   19.3977 Br      1  UNL1       -0.0490
     32 C          -0.9626  -18.8981   20.4594 C.ar    1  UNL1        0.0068
     33 C          -2.0962  -19.3084   21.3518 C.ar    1  UNL1        0.0050
@<TRIPOS>BOND
     1    13    14    1
     2    14    15   ar
     3    15    16   ar
     4    16    17   ar
     5    17    18   ar
     6    18     1    1
     7     1     2    1
     8     2     3    1
     9     3     4   am
    10     4     5    2
    11     4     6    1
    12     6     7    1
    13     7     8    1
    14     8     9    1
    15     9    20    1
    16    20    21    1
    17    21    22    1
    18    21    23    1
    19    23    24   am
    20    24    25    2
    21    24    27    1
    22    27    28   ar
    23    28    29   ar
    24    29    30   ar
    25    30    31    1
    26    30    32   ar
    27    32    33   ar
    28     9    10    1
    29    10    11    1
    30    18    19   ar
    31    19    14   ar
    32     6     1    1
    33    33    27   ar
    34    11     6    1
    35     3    12    1
    36    23    26    1
@<TRIPOS>MOLECULE
*****
 33 36 0 0 0
SMALL
GASTEIGER

@<TRIPOS>ATOM
      1 N           5.7639   -2.7677   25.8894 N.pl3   1  UNL1       -0.2859
      2 C           5.1238   -2.3364   27.1757 C.3     1  UNL1        0.1875
      3 N           3.9610   -1.4500   26.8403 N.am    1  UNL1       -0.2862
      4 C           3.8826   -1.3335   25.3469 C.2     1  UNL1        0.2397
      5 O           2.8681   -0.5416   24.5764 O.2     1  UNL1       -0.2734
      6 C           4.9968   -2.1479   24.7592 C.3     1  UNL1        0.1304
      7 C           6.1514   -2.9983   24.3190 C.3     1  UNL1        0.0444
      8 C           6.4466   -3.1637   22.8577 C.3     1  UNL1        0.0743
      9 N           5.5874   -2.4789   21.8366 N.3     1  UNL1       -0.2712
     10 C           4.4328   -1.6285   22.2769 C.3     1  UNL1        0.0743
     11 C           4.1376   -1.4630   23.7381 C.3     1  UNL1        0.0444
     12 H           3.3557   -1.0201   27.4869 H       1  UNL1        0.1510
     13 C           7.7980   -7.5298   25.4600 C.3     1  UNL1        0.0311
     14 C           7.9780   -6.0429   25.5421 C.ar    1  UNL1       -0.0206
     15 C           9.3550   -5.4501   25.4916 C.ar    1  UNL1       -0.0042
     16 C           9.5350   -3.9632   25.5737 C.ar    1  UNL1        0.0009
     17 C           8.3379   -3.0691   25.7063 C.ar    1  UNL1        0.0145
     18 C           6.9610   -3.6618   25.7568 C.ar    1  UNL1        0.0490
     19 C           6.7810   -5.1488   25.6747 C.ar    1  UNL1        0.0103
     20 C           5.8827   -2.6444   20.3753 C.3     1  UNL1        0.0919
     21 C           4.8429   -3.2206   19.4606 C.3     1  UNL1        0.0878
     22 C           3.8975   -4.2698   19.9662 C.3     1  UNL1        0.0227
     23 N           4.7484   -2.7478   18.0402 N.am    1  UNL1       -0.3011
     24 C           3.9995   -1.4888   17.7171 C.2     1  UNL1        0.2458
     25 O           3.9051   -1.0160   16.2967 O.2     1  UNL1       -0.2701
     26 H           5.1779   -3.2637   17.3200 H       1  UNL1        0.1497
     27 C           3.3451   -0.7028   18.8143 C.ar    1  UNL1        0.0534
     28 C           2.0605   -1.1859   19.4194 C.ar    1  UNL1        0.0050
     29 C           1.4060   -0.3999   20.5167 C.ar    1  UNL1        0.0068
     30 C           2.0363    0.8692   21.0088 C.ar    1  UNL1        0.0346
     31 BR          1.3820    1.6552   22.1060 Br      1  UNL1       -0.0490
     32 C           3.3211    1.3522   20.4036 C.ar    1  UNL1        0.0068
     33 C           3.9754    0.5662   19.3064 C.ar    1  UNL1        0.0050
@<TRIPOS>BOND
     1    13    14    1
     2    14    15   ar
     3    15    16   ar
     4    16    17   ar
     5    17    18   ar
     6    18     1    1
     7     1     2    1
     8     2     3    1
     9     3     4   am
    10     4     5    2
    11     4     6    1
    12     6     7    1
    13     7     8    1
    14     8     9    1
    15     9    20    1
    16    20    21    1
    17    21    22    1
    18    21    23    1
    19    23    24   am
    20    24    25    2
    21    24    27    1
    22    27    28   ar
    23    28    29   ar
    24    29    30   ar
    25    30    31    1
    26    30    32   ar
    27    32    33   ar
    28     9    10    1
    29    10    11    1
    30    18    19   ar
    31    19    14   ar
    32     6     1    1
    33    33    27   ar
    34    11     6    1
    35     3    12    1
    36    23    26    1
@<TRIPOS>MOLECULE
*****
 33 36 0 0 0
SMALL
GASTEIGER

@<TRIPOS>ATOM
      1 N           3.3645   -0.4143   18.4075 N.pl3   1  UNL1       -0.2859
      2 C           3.9078   -1.1253   17.2036 C.3     1  UNL1        0.1875
      3 N           4.5265   -2.4116   17.6650 N.am    1  UNL1       -0.2862
      4 C           4.3654   -2.4956   19.1539 C.2     1  UNL1        0.2397
      5 O           4.8393   -3.6170   20.0302 O.2     1  UNL1       -0.2734
      6 C           3.6473   -1.2611   19.6129 C.3     1  UNL1        0.1304
      7 C           2.9264    0.0176   19.9212 C.3     1  UNL1        0.0444
      8 C           2.5561    0.3472   21.3369 C.3     1  UNL1        0.0743
      9 N           2.9067   -0.6019   22.4443 N.3     1  UNL1       -0.2712
     10 C           3.6276   -1.8806   22.1360 C.3     1  UNL1        0.0743
     11 C           3.9978   -2.2103   20.7203 C.3     1  UNL1        0.0444
     12 H           4.9617   -3.0829   17.0913 H       1  UNL1        0.1510
     13 C           3.5486    4.7771   18.5330 C.3     1  UNL1        0.0311
     14 C           2.7538    3.5066   18.4690 C.ar    1  UNL1       -0.0206
     15 C           1.2562    3.5613   18.4037 C.ar    1  UNL1       -0.0042
     16 C           0.4614    2.2907   18.3396 C.ar    1  UNL1        0.0009
     17 C           1.1641    0.9656   18.3409 C.ar    1  UNL1        0.0145
     18 C           2.6617    0.9109   18.4063 C.ar    1  UNL1        0.0490
     19 C           3.4565    2.1814   18.4703 C.ar    1  UNL1        0.0103
     20 C           2.5364   -0.2722   23.8600 C.3     1  UNL1        0.0919
     21 C           3.6019   -0.1786   24.9116 C.3     1  UNL1        0.0878
     22 C           4.1482   -1.4268   25.5390 C.3     1  UNL1        0.0227
     23 N           4.1211    1.1632   25.3358 N.am    1  UNL1       -0.3011
     24 C           3.4112    1.9379   26.4063 C.2     1  UNL1        0.2458
     25 O           3.9304    3.2797   26.8306 O.2     1  UNL1       -0.2701
     26 H           4.9278    1.5355   24.9117 H       1  UNL1        0.1497
     27 C           2.1821    1.3708   27.0526 C.ar    1  UNL1        0.0534
     28 C           2.3107    0.4482   28.2282 C.ar    1  UNL1        0.0050
     29 C           1.0816   -0.1190   28.8745 C.ar    1  UNL1        0.0068
     30 C          -0.2761    0.2365   28.3451 C.ar    1  UNL1        0.0346
     31 BR         -1.5052   -0.3306   28.9914 Br      1  UNL1       -0.0490
     32 C          -0.4047    1.1591   27.1694 C.ar    1  UNL1        0.0068
     33 C           0.8244    1.7263   26.5232 C.ar    1  UNL1        0.0050
@<TRIPOS>BOND
     1    13    14    1
     2    14    15   ar
     3    15    16   ar
     4    16    17   ar
     5    17    18   ar
     6    18     1    1
     7     1     2    1
     8     2     3    1
     9     3     4   am
    10     4     5    2
    11     4     6    1
    12     6     7    1
    13     7     8    1
    14     8     9    1
    15     9    20    1
    16    20    21    1
    17    21    22    1
    18    21    23    1
    19    23    24   am
    20    24    25    2
    21    24    27    1
    22    27    28   ar
    23    28    29   ar
    24    29    30   ar
    25    30    31    1
    26    30    32   ar
    27    32    33   ar
    28     9    10    1
    29    10    11    1
    30    18    19   ar
    31    19    14   ar
    32     6     1    1
    33    33    27   ar
    34    11     6    1
    35     3    12    1
    36    23    26    1
@<TRIPOS>MOLECULE
*****
 33 36 0 0 0
SMALL
GASTEIGER

@<TRIPOS>ATOM
      1 N           5.0793   -2.4159   23.5690 N.pl3   1  UNL1       -0.2859
      2 C           5.8863   -3.0091   24.6858 C.3     1  UNL1        0.1875
      3 N           5.4122   -2.4024   25.9731 N.am    1  UNL1       -0.2862
      4 C           4.3125   -1.4342   25.6520 C.2     1  UNL1        0.2397
      5 O           3.5519   -0.6035   26.6427 O.2     1  UNL1       -0.2734
      6 C           4.1067   -1.4426   24.1661 C.3     1  UNL1        0.1304
      7 C           4.0160   -1.5576   22.6733 C.3     1  UNL1        0.0444
      8 C           3.0136   -0.7367   21.9174 C.3     1  UNL1        0.0743
      9 N           2.1019    0.1991   22.6543 N.3     1  UNL1       -0.2712
     10 C           2.1926    0.3141   24.1471 C.3     1  UNL1        0.0743
     11 C           3.1950   -0.5067   24.9030 C.3     1  UNL1        0.0444
     12 H           5.7616   -2.6042   26.8712 H       1  UNL1        0.1510
     13 C           3.5432   -5.0821   19.3819 C.3     1  UNL1        0.0311
     14 C           4.4523   -4.0724   20.0176 C.ar    1  UNL1       -0.0206
     15 C           5.5025   -3.3860   19.1952 C.ar    1  UNL1       -0.0042
     16 C           6.4116   -2.3763   19.8309 C.ar    1  UNL1        0.0009
     17 C           6.2705   -2.0529   21.2888 C.ar    1  UNL1        0.0145
     18 C           5.2204   -2.7393   22.1111 C.ar    1  UNL1        0.0490
     19 C           4.3113   -3.7490   21.4754 C.ar    1  UNL1        0.0103
     20 C           1.0995    1.0200   21.8984 C.3     1  UNL1        0.0919
     21 C           1.4839    2.3678   21.3640 C.3     1  UNL1        0.0878
     22 C           2.7045    3.0631   21.8903 C.3     1  UNL1        0.0227
     23 N           0.6479    3.0204   20.3032 N.am    1  UNL1       -0.3011
     24 C           1.0764    2.9589   18.8670 C.2     1  UNL1        0.2458
     25 O           0.2403    3.6115   17.8063 O.2     1  UNL1       -0.2701
     26 H          -0.1821    3.4890   20.5497 H       1  UNL1        0.1497
     27 C           2.3410    2.2449   18.4916 C.ar    1  UNL1        0.0534
     28 C           2.3273    0.7613   18.2710 C.ar    1  UNL1        0.0050
     29 C           3.5919    0.0472   17.8955 C.ar    1  UNL1        0.0068
     30 C           4.8701    0.8167   17.7407 C.ar    1  UNL1        0.0346
     31 BR          6.1347    0.1027   17.3652 Br      1  UNL1       -0.0490
     32 C           4.8837    2.3004   17.9613 C.ar    1  UNL1        0.0068
     33 C           3.6192    3.0144   18.3367 C.ar    1  UNL1        0.0050
@<TRIPOS>BOND
     1    13    14    1
     2    14    15   ar
     3    15    16   ar
     4    16    17   ar
     5    17    18   ar
     6    18     1    1
     7     1     2    1
     8     2     3    1
     9     3     4   am
    10     4     5    2
    11     4     6    1
    12     6     7    1
    13     7     8    1
    14     8     9    1
    15     9    20    1
    16    20    21    1
    17    21    22    1
    18    21    23    1
    19    23    24   am
    20    24    25    2
    21    24    27    1
    22    27    28   ar
    23    28    29   ar
    24    29    30   ar
    25    30    31    1
    26    30    32   ar
    27    32    33   ar
    28     9    10    1
    29    10    11    1
    30    18    19   ar
    31    19    14   ar
    32     6     1    1
    33    33    27   ar
    34    11     6    1
    35     3    12    1
    36    23    26    1
@<TRIPOS>MOLECULE
*****
 33 36 0 0 0
SMALL
GASTEIGER

@<TRIPOS>ATOM
      1 N           4.7563    0.0981   18.6925 N.pl3   1  UNL1       -0.2859
      2 C           5.1278    0.1245   17.2394 C.3     1  UNL1        0.1875
      3 N           6.6129   -0.0605   17.1373 N.am    1  UNL1       -0.2862
      4 C           7.1592   -0.2012   18.5272 C.2     1  UNL1        0.2397
      5 O           8.5999   -0.4042   18.8920 O.2     1  UNL1       -0.2734
      6 C           6.0117   -0.1031   19.4884 C.3     1  UNL1        0.1304
      7 C           4.7715    0.0131   20.3241 C.3     1  UNL1        0.0444
      8 C           4.8634   -0.0747   21.8187 C.3     1  UNL1        0.0743
      9 N           6.1954   -0.2788   22.4776 N.3     1  UNL1       -0.2712
     10 C           7.4355   -0.3950   21.6419 C.3     1  UNL1        0.0743
     11 C           7.3437   -0.3072   20.1473 C.3     1  UNL1        0.0444
     12 H           7.1371   -0.0852   16.3043 H       1  UNL1        0.1510
     13 C           0.8467    3.1297   20.2815 C.3     1  UNL1        0.0311
     14 C           1.4175    1.7627   20.0459 C.ar    1  UNL1       -0.0206
     15 C           0.6043    0.5444   20.3694 C.ar    1  UNL1       -0.0042
     16 C           1.1751   -0.8226   20.1338 C.ar    1  UNL1        0.0009
     17 C           2.5591   -0.9714   19.5749 C.ar    1  UNL1        0.0145
     18 C           3.3723    0.2469   19.2515 C.ar    1  UNL1        0.0490
     19 C           2.8015    1.6139   19.4870 C.ar    1  UNL1        0.0103
     20 C           6.2872   -0.3666   23.9722 C.3     1  UNL1        0.0919
     21 C           5.4449   -1.3585   24.7184 C.3     1  UNL1        0.0878
     22 C           3.9666   -1.1399   24.8481 C.3     1  UNL1        0.0227
     23 N           6.0810   -2.5690   25.3349 N.am    1  UNL1       -0.3011
     24 C           6.3766   -3.7731   24.4905 C.2     1  UNL1        0.2458
     25 O           7.0126   -4.9836   25.1070 O.2     1  UNL1       -0.2701
     26 H           6.3045   -2.5732   26.2937 H       1  UNL1        0.1497
     27 C           6.0361   -3.7666   23.0297 C.ar    1  UNL1        0.0534
     28 C           7.1296   -3.8237   22.0046 C.ar    1  UNL1        0.0050
     29 C           6.7891   -3.8172   20.5437 C.ar    1  UNL1        0.0068
     30 C           5.3552   -3.7536   20.1080 C.ar    1  UNL1        0.0346
     31 BR          5.0147   -3.7472   18.6472 Br      1  UNL1       -0.0490
     32 C           4.2617   -3.6966   21.1333 C.ar    1  UNL1        0.0068
     33 C           4.6022   -3.7031   22.5941 C.ar    1  UNL1        0.0050
@<TRIPOS>BOND
     1    13    14    1
     2    14    15   ar
     3    15    16   ar
     4    16    17   ar
     5    17    18   ar
     6    18     1    1
     7     1     2    1
     8     2     3    1
     9     3     4   am
    10     4     5    2
    11     4     6    1
    12     6     7    1
    13     7     8    1
    14     8     9    1
    15     9    20    1
    16    20    21    1
    17    21    22    1
    18    21    23    1
    19    23    24   am
    20    24    25    2
    21    24    27    1
    22    27    28   ar
    23    28    29   ar
    24    29    30   ar
    25    30    31    1
    26    30    32   ar
    27    32    33   ar
    28     9    10    1
    29    10    11    1
    30    18    19   ar
    31    19    14   ar
    32     6     1    1
    33    33    27   ar
    34    11     6    1
    35     3    12    1
    36    23    26    1
@<TRIPOS>MOLECULE
*****
 33 36 0 0 0
SMALL
GASTEIGER

@<TRIPOS>ATOM
      1 N           0.6465    1.7384   22.7926 N.pl3   1  UNL1       -0.2859
      2 C          -0.2879    2.5023   21.9017 C.3     1  UNL1        0.1875
      3 N          -0.1837    1.9282   20.5197 N.am    1  UNL1       -0.2862
      4 C           0.8150    0.8095   20.5566 C.2     1  UNL1        0.2397
      5 O           1.2281   -0.0422   19.3931 O.2     1  UNL1       -0.2734
      6 C           1.3280    0.6922   21.9613 C.3     1  UNL1        0.1304
      7 C           1.7459    0.6945   23.4019 C.3     1  UNL1        0.0444
      8 C           2.7621   -0.2951   23.8895 C.3     1  UNL1        0.0743
      9 N           3.3604   -1.2871   22.9366 N.3     1  UNL1       -0.2712
     10 C           2.9425   -1.2894   21.4961 C.3     1  UNL1        0.0743
     11 C           1.9264   -0.2998   21.0084 C.3     1  UNL1        0.0444
     12 H          -0.6831    2.2322   19.7276 H       1  UNL1        0.1510
     13 C          -0.6282    0.7977   27.7413 C.3     1  UNL1        0.0311
     14 C           0.2241    1.5081   26.7319 C.ar    1  UNL1       -0.0206
     15 C           1.2913    2.4588   27.1875 C.ar    1  UNL1       -0.0042
     16 C           2.1435    3.1692   26.1780 C.ar    1  UNL1        0.0009
     17 C           1.9286    2.9291   24.7130 C.ar    1  UNL1        0.0145
     18 C           0.8614    1.9785   24.2575 C.ar    1  UNL1        0.0490
     19 C           0.0092    1.2680   25.2670 C.ar    1  UNL1        0.0103
     20 C           4.3766   -2.2768   23.4244 C.3     1  UNL1        0.0919
     21 C           5.8275   -2.0863   23.0947 C.3     1  UNL1        0.0878
     22 C           6.4212   -0.7088   23.0912 C.3     1  UNL1        0.0227
     23 N           6.6847   -3.2733   22.7686 N.am    1  UNL1       -0.3011
     24 C           6.8053   -3.7440   21.3494 C.2     1  UNL1        0.2458
     25 O           7.6624   -4.9310   21.0233 O.2     1  UNL1       -0.2701
     26 H           7.1681   -3.7433   23.4859 H       1  UNL1        0.1497
     27 C           6.0687   -3.0279   20.2565 C.ar    1  UNL1        0.0534
     28 C           6.5925   -1.7257   19.7276 C.ar    1  UNL1        0.0050
     29 C           5.8560   -1.0094   18.6346 C.ar    1  UNL1        0.0068
     30 C           4.5956   -1.5954   18.0706 C.ar    1  UNL1        0.0346
     31 BR          3.8591   -0.8792   16.9777 Br      1  UNL1       -0.0490
     32 C           4.0718   -2.8977   18.5996 C.ar    1  UNL1        0.0068
     33 C           4.8083   -3.6139   19.6926 C.ar    1  UNL1        0.0050
@<TRIPOS>BOND
     1    13    14    1
     2    14    15   ar
     3    15    16   ar
     4    16    17   ar
     5    17    18   ar
     6    18     1    1
     7     1     2    1
     8     2     3    1
     9     3     4   am
    10     4     5    2
    11     4     6    1
    12     6     7    1
    13     7     8    1
    14     8     9    1
    15     9    20    1
    16    20    21    1
    17    21    22    1
    18    21    23    1
    19    23    24   am
    20    24    25    2
    21    24    27    1
    22    27    28   ar
    23    28    29   ar
    24    29    30   ar
    25    30    31    1
    26    30    32   ar
    27    32    33   ar
    28     9    10    1
    29    10    11    1
    30    18    19   ar
    31    19    14   ar
    32     6     1    1
    33    33    27   ar
    34    11     6    1
    35     3    12    1
    36    23    26    1
