@<TRIPOS>MOLECULE
*****
 28 32 0 0 0
SMALL
GASTEIGER

@<TRIPOS>ATOM
      1 C           6.9504   -4.1751   23.2728 C.ar    1  UNL1        0.1383
      2 C           6.3482   -2.8096   23.4244 C.ar    1  UNL1        0.0400
      3 C           6.0641   -2.2629   24.7920 C.ar    1  UNL1        0.0397
      4 C           6.3820   -3.0816   26.0080 C.ar    1  UNL1        0.1344
      5 C           6.9841   -4.4471   25.8564 C.ar    1  UNL1        0.0149
      6 C           7.2683   -4.9938   24.4887 C.ar    1  UNL1        0.0356
      7 C           7.3020   -5.2658   27.0723 C.3     1  UNL1        0.0331
      8 C           7.0178   -4.7191   28.4400 C.3     1  UNL1        0.0449
      9 C           6.4157   -3.3536   28.5916 C.3     1  UNL1        0.1361
     10 C           6.7336   -4.1724   29.8075 C.3     1  UNL1        0.0574
     11 C           6.4494   -3.6256   31.1751 C.3     1  UNL1        0.0756
     12 N           5.8473   -2.2602   31.3267 N.3     1  UNL1       -0.2737
     13 C           5.5294   -1.4415   30.1108 C.3     1  UNL1        0.0756
     14 C           5.8136   -1.9882   28.7432 C.3     1  UNL1        0.0574
     15 O           6.0978   -2.5349   27.3756 O.3     1  UNL1       -0.4828
     16 C           5.5631   -1.7135   32.6944 C.3     1  UNL1        0.0575
     17 C           4.3992   -1.7710   33.6389 C.3     1  UNL1        0.0160
     18 C           5.1612   -0.9403   34.6285 C.3     1  UNL1        0.0028
     19 C           6.3251   -0.8828   33.6839 C.3     1  UNL1        0.0160
     20 O           7.2345   -4.7218   21.9052 O.3     1  UNL1       -0.4791
     21 O           6.8316   -1.3118   17.3170 O.2     1  UNL1       -0.1730
     22 S           6.2042   -2.3001   18.2551 S.O2    1  UNL1       -0.0098
     23 O           5.0508   -2.0515   17.3289 O.2     1  UNL1       -0.1730
     24 C           5.1763   -3.2020   18.8714 C.3     1  UNL1        0.1545
     25 C           5.5198   -4.0093   20.0881 C.3     1  UNL1        0.0688
     26 C           6.8911   -3.9145   20.6885 C.3     1  UNL1        0.1694
     27 C           7.9190   -3.0126   20.0721 C.3     1  UNL1        0.0688
     28 C           7.5756   -2.2054   18.8555 C.3     1  UNL1        0.1545
@<TRIPOS>BOND
     1    21    22    2
     2    22    23    2
     3    22    24    1
     4    24    25    1
     5    25    26    1
     6    26    20    1
     7    20     1    1
     8     1     2   ar
     9     2     3   ar
    10     3     4   ar
    11     4     5   ar
    12     5     6   ar
    13     5     7    1
    14     7     8    1
    15     8     9    1
    16     9    10    1
    17    10    11    1
    18    11    12    1
    19    12    16    1
    20    16    17    1
    21    17    18    1
    22    18    19    1
    23    12    13    1
    24    13    14    1
    25     9    15    1
    26    26    27    1
    27    27    28    1
    28    28    22    1
    29     6     1   ar
    30    14     9    1
    31    15     4    1
    32    19    16    1
@<TRIPOS>MOLECULE
*****
 28 32 0 0 0
SMALL
GASTEIGER

@<TRIPOS>ATOM
      1 C           5.8200    0.6764   35.2950 C.ar    1  UNL1        0.1383
      2 C           4.6529   -0.1387   34.8225 C.ar    1  UNL1        0.0400
      3 C           4.8733   -1.2972   33.8955 C.ar    1  UNL1        0.0397
      4 C           6.2610   -1.6405   33.4409 C.ar    1  UNL1        0.1344
      5 C           7.4282   -0.8253   33.9134 C.ar    1  UNL1        0.0149
      6 C           7.2076    0.3331   34.8405 C.ar    1  UNL1        0.0356
      7 C           8.8158   -1.1686   33.4589 C.3     1  UNL1        0.0331
      8 C           9.0363   -2.3271   32.5319 C.3     1  UNL1        0.0449
      9 C           7.8691   -3.1422   32.0593 C.3     1  UNL1        0.1361
     10 C           9.2568   -3.4855   31.6048 C.3     1  UNL1        0.0574
     11 C           9.4772   -4.6439   30.6778 C.3     1  UNL1        0.0756
     12 N           8.3101   -5.4591   30.2053 N.3     1  UNL1       -0.2737
     13 C           6.9224   -5.1158   30.6598 C.3     1  UNL1        0.0756
     14 C           6.7020   -3.9574   31.5868 C.3     1  UNL1        0.0574
     15 O           6.4815   -2.7989   32.5139 O.3     1  UNL1       -0.4828
     16 C           8.5306   -6.6176   29.2782 C.3     1  UNL1        0.0575
     17 C           7.8373   -7.1462   28.0576 C.3     1  UNL1        0.0160
     18 C           8.8425   -8.2559   27.9673 C.3     1  UNL1        0.0028
     19 C           9.5357   -7.7273   29.1879 C.3     1  UNL1        0.0160
     20 O           5.5996    1.8348   36.2220 O.3     1  UNL1       -0.4791
     21 O           1.2011    1.4680   39.8773 O.2     1  UNL1       -0.1730
     22 S           1.8238    2.0805   38.6578 S.O2    1  UNL1       -0.0098
     23 O           0.5181    2.8185   38.6822 O.2     1  UNL1       -0.1730
     24 C           1.9929    2.9493   37.4468 C.3     1  UNL1        0.1545
     25 C           3.2515    2.8674   36.6349 C.3     1  UNL1        0.0688
     26 C           4.3409    1.9167   37.0340 C.3     1  UNL1        0.1694
     27 C           4.1718    1.0479   38.2450 C.3     1  UNL1        0.0688
     28 C           2.9132    1.1298   39.0569 C.3     1  UNL1        0.1545
@<TRIPOS>BOND
     1    21    22    2
     2    22    23    2
     3    22    24    1
     4    24    25    1
     5    25    26    1
     6    26    20    1
     7    20     1    1
     8     1     2   ar
     9     2     3   ar
    10     3     4   ar
    11     4     5   ar
    12     5     6   ar
    13     5     7    1
    14     7     8    1
    15     8     9    1
    16     9    10    1
    17    10    11    1
    18    11    12    1
    19    12    16    1
    20    16    17    1
    21    17    18    1
    22    18    19    1
    23    12    13    1
    24    13    14    1
    25     9    15    1
    26    26    27    1
    27    27    28    1
    28    28    22    1
    29     6     1   ar
    30    14     9    1
    31    15     4    1
    32    19    16    1
@<TRIPOS>MOLECULE
*****
 28 32 0 0 0
SMALL
GASTEIGER

@<TRIPOS>ATOM
      1 C           2.1251   -0.2664   21.6689 C.ar    1  UNL1        0.1383
      2 C           3.2067   -0.9339   22.4655 C.ar    1  UNL1        0.0400
      3 C           3.2974   -0.7062   23.9453 C.ar    1  UNL1        0.0397
      4 C           2.3065    0.1890   24.6286 C.ar    1  UNL1        0.1344
      5 C           1.2249    0.8565   23.8319 C.ar    1  UNL1        0.0149
      6 C           1.1342    0.6287   22.3520 C.ar    1  UNL1        0.0356
      7 C           0.2340    1.7516   24.5151 C.3     1  UNL1        0.0331
      8 C           0.3247    1.9794   25.9950 C.3     1  UNL1        0.0449
      9 C           1.4063    1.3119   26.7916 C.3     1  UNL1        0.1361
     10 C           0.4154    2.2070   27.4748 C.3     1  UNL1        0.0574
     11 C           0.5061    2.4347   28.9546 C.3     1  UNL1        0.0756
     12 N           1.5877    1.7672   29.7512 N.3     1  UNL1       -0.2737
     13 C           2.5786    0.8721   29.0681 C.3     1  UNL1        0.0756
     14 C           2.4879    0.6444   27.5883 C.3     1  UNL1        0.0574
     15 O           2.3972    0.4167   26.1084 O.3     1  UNL1       -0.4828
     16 C           1.6784    1.9950   31.2311 C.3     1  UNL1        0.0575
     17 C           2.4715    1.3891   32.3509 C.3     1  UNL1        0.0160
     18 C           1.8066    2.3171   33.3239 C.3     1  UNL1        0.0028
     19 C           1.0135    2.9229   32.2042 C.3     1  UNL1        0.0160
     20 O           2.0344   -0.4941   20.1890 O.3     1  UNL1       -0.4791
     21 O           6.7936   -0.4652   16.9967 O.2     1  UNL1       -0.1730
     22 S           5.7720   -1.2234   17.7915 S.O2    1  UNL1       -0.0098
     23 O           6.6592   -2.3539   17.3617 O.2     1  UNL1       -0.1730
     24 C           5.0585   -2.3742   18.4369 C.3     1  UNL1        0.1545
     25 C           3.8127   -2.1311   19.2361 C.3     1  UNL1        0.0688
     26 C           3.2803   -0.7372   19.3898 C.3     1  UNL1        0.1694
     27 C           3.9937    0.4136   18.7444 C.3     1  UNL1        0.0688
     28 C           5.2396    0.1705   17.9452 C.3     1  UNL1        0.1545
@<TRIPOS>BOND
     1    21    22    2
     2    22    23    2
     3    22    24    1
     4    24    25    1
     5    25    26    1
     6    26    20    1
     7    20     1    1
     8     1     2   ar
     9     2     3   ar
    10     3     4   ar
    11     4     5   ar
    12     5     6   ar
    13     5     7    1
    14     7     8    1
    15     8     9    1
    16     9    10    1
    17    10    11    1
    18    11    12    1
    19    12    16    1
    20    16    17    1
    21    17    18    1
    22    18    19    1
    23    12    13    1
    24    13    14    1
    25     9    15    1
    26    26    27    1
    27    27    28    1
    28    28    22    1
    29     6     1   ar
    30    14     9    1
    31    15     4    1
    32    19    16    1
@<TRIPOS>MOLECULE
*****
 28 32 0 0 0
SMALL
GASTEIGER

@<TRIPOS>ATOM
      1 C           1.7525    0.0485   21.0303 C.ar    1  UNL1        0.1383
      2 C           0.6859    0.9922   21.5011 C.ar    1  UNL1        0.0400
      3 C           0.5750    1.3322   22.9578 C.ar    1  UNL1        0.0397
      4 C           1.5307    0.7284   23.9438 C.ar    1  UNL1        0.1344
      5 C           2.5974   -0.2153   23.4730 C.ar    1  UNL1        0.0149
      6 C           2.7082   -0.5553   22.0162 C.ar    1  UNL1        0.0356
      7 C           3.5531   -0.8191   24.4589 C.3     1  UNL1        0.0331
      8 C           3.4422   -0.4791   25.9157 C.3     1  UNL1        0.0449
      9 C           2.3756    0.4647   26.3865 C.3     1  UNL1        0.1361
     10 C           3.3313   -0.1391   27.3724 C.3     1  UNL1        0.0574
     11 C           3.2204    0.2009   28.8291 C.3     1  UNL1        0.0756
     12 N           2.1537    1.1446   29.2999 N.3     1  UNL1       -0.2737
     13 C           1.1980    1.7484   28.3140 C.3     1  UNL1        0.0756
     14 C           1.3089    1.4084   26.8573 C.3     1  UNL1        0.0574
     15 O           1.4198    1.0684   25.4005 O.3     1  UNL1       -0.4828
     16 C           2.0428    1.4846   30.7567 C.3     1  UNL1        0.0575
     17 C           2.8793    1.2221   31.9738 C.3     1  UNL1        0.0160
     18 C           1.8860    1.9654   32.8169 C.3     1  UNL1        0.0028
     19 C           1.0495    2.2280   31.5997 C.3     1  UNL1        0.0160
     20 O           1.8634   -0.2915   19.5735 O.3     1  UNL1       -0.4791
     21 O           6.8596   -2.0809   17.4105 O.2     1  UNL1       -0.1730
     22 S           5.9093   -0.9626   17.7214 S.O2    1  UNL1       -0.0098
     23 O           7.0253   -0.1872   17.0864 O.2     1  UNL1       -0.1730
     24 C           5.3467    0.4249   17.8117 C.3     1  UNL1        0.1545
     25 C           3.9981    0.6486   18.4291 C.3     1  UNL1        0.0688
     26 C           3.2121   -0.5153   18.9561 C.3     1  UNL1        0.1694
     27 C           3.7748   -1.9028   18.8658 C.3     1  UNL1        0.0688
     28 C           5.1234   -2.1264   18.2484 C.3     1  UNL1        0.1545
@<TRIPOS>BOND
     1    21    22    2
     2    22    23    2
     3    22    24    1
     4    24    25    1
     5    25    26    1
     6    26    20    1
     7    20     1    1
     8     1     2   ar
     9     2     3   ar
    10     3     4   ar
    11     4     5   ar
    12     5     6   ar
    13     5     7    1
    14     7     8    1
    15     8     9    1
    16     9    10    1
    17    10    11    1
    18    11    12    1
    19    12    16    1
    20    16    17    1
    21    17    18    1
    22    18    19    1
    23    12    13    1
    24    13    14    1
    25     9    15    1
    26    26    27    1
    27    27    28    1
    28    28    22    1
    29     6     1   ar
    30    14     9    1
    31    15     4    1
    32    19    16    1
@<TRIPOS>MOLECULE
*****
 28 32 0 0 0
SMALL
GASTEIGER

@<TRIPOS>ATOM
      1 C         -11.2986   -1.4709   17.3708 C.ar    1  UNL1        0.1383
      2 C         -11.2265   -0.0040   17.0658 C.ar    1  UNL1        0.0400
      3 C         -12.3071    0.9168   17.5500 C.ar    1  UNL1        0.0397
      4 C         -13.4599    0.3707   18.3391 C.ar    1  UNL1        0.1344
      5 C         -13.5321   -1.0962   18.6442 C.ar    1  UNL1        0.0149
      6 C         -12.4514   -2.0170   18.1600 C.ar    1  UNL1        0.0356
      7 C         -14.6849   -1.6423   19.4333 C.3     1  UNL1        0.0331
      8 C         -15.7656   -0.7215   19.9175 C.3     1  UNL1        0.0449
      9 C         -15.6934    0.7454   19.6125 C.3     1  UNL1        0.1361
     10 C         -16.8462    0.1992   20.4016 C.3     1  UNL1        0.0574
     11 C         -17.9268    1.1200   20.8858 C.3     1  UNL1        0.0756
     12 N         -17.8546    2.5869   20.5807 N.3     1  UNL1       -0.2737
     13 C         -16.7018    3.1330   19.7916 C.3     1  UNL1        0.0756
     14 C         -15.6212    2.2122   19.3075 C.3     1  UNL1        0.0574
     15 O         -14.5405    1.2915   18.8233 O.3     1  UNL1       -0.4828
     16 C         -18.9353    3.5077   21.0649 C.3     1  UNL1        0.0575
     17 C         -18.9647    4.8568   21.7199 C.3     1  UNL1        0.0160
     18 C         -20.4636    4.8098   21.7496 C.3     1  UNL1        0.0028
     19 C         -20.4343    3.4606   21.0947 C.3     1  UNL1        0.0160
     20 O         -10.2180   -2.3916   16.8867 O.3     1  UNL1       -0.4791
     21 O          -9.8887   -7.6635   19.1096 O.2     1  UNL1       -0.1730
     22 S         -10.3126   -6.7516   17.9965 S.O2    1  UNL1       -0.0098
     23 O         -10.7848   -8.0664   17.4504 O.2     1  UNL1       -0.1730
     24 C         -10.9005   -6.2964   16.6938 C.3     1  UNL1        0.1545
     25 C         -10.8690   -4.8431   16.3239 C.3     1  UNL1        0.0688
     26 C         -10.2496   -3.8450   17.2567 C.3     1  UNL1        0.1694
     27 C          -9.6617   -4.3002   18.5594 C.3     1  UNL1        0.0688
     28 C          -9.6932   -5.7535   18.9293 C.3     1  UNL1        0.1545
@<TRIPOS>BOND
     1    21    22    2
     2    22    23    2
     3    22    24    1
     4    24    25    1
     5    25    26    1
     6    26    20    1
     7    20     1    1
     8     1     2   ar
     9     2     3   ar
    10     3     4   ar
    11     4     5   ar
    12     5     6   ar
    13     5     7    1
    14     7     8    1
    15     8     9    1
    16     9    10    1
    17    10    11    1
    18    11    12    1
    19    12    16    1
    20    16    17    1
    21    17    18    1
    22    18    19    1
    23    12    13    1
    24    13    14    1
    25     9    15    1
    26    26    27    1
    27    27    28    1
    28    28    22    1
    29     6     1   ar
    30    14     9    1
    31    15     4    1
    32    19    16    1
@<TRIPOS>MOLECULE
*****
 28 32 0 0 0
SMALL
GASTEIGER

@<TRIPOS>ATOM
      1 C           6.8193   -4.1333   22.9003 C.ar    1  UNL1        0.1383
      2 C           7.7056   -4.5913   24.0205 C.ar    1  UNL1        0.0400
      3 C           7.4578   -4.1076   25.4185 C.ar    1  UNL1        0.0397
      4 C           6.3237   -3.1659   25.6965 C.ar    1  UNL1        0.1344
      5 C           5.4375   -2.7080   24.5763 C.ar    1  UNL1        0.0149
      6 C           5.6853   -3.1917   23.1782 C.ar    1  UNL1        0.0356
      7 C           4.3034   -1.7663   24.8542 C.3     1  UNL1        0.0331
      8 C           4.0556   -1.2826   26.2523 C.3     1  UNL1        0.0449
      9 C           4.9419   -1.7406   27.3725 C.3     1  UNL1        0.1361
     10 C           3.8078   -0.7989   27.6504 C.3     1  UNL1        0.0574
     11 C           3.5601   -0.3153   29.0484 C.3     1  UNL1        0.0756
     12 N           4.4463   -0.7732   30.1686 N.3     1  UNL1       -0.2737
     13 C           5.5804   -1.7149   29.8907 C.3     1  UNL1        0.0756
     14 C           5.8281   -2.1985   28.4927 C.3     1  UNL1        0.0574
     15 O           6.0760   -2.6822   27.0945 O.3     1  UNL1       -0.4828
     16 C           4.1985   -0.2895   31.5667 C.3     1  UNL1        0.0575
     17 C           3.1208    0.5098   32.2372 C.3     1  UNL1        0.0160
     18 C           3.8481    0.3945   33.5439 C.3     1  UNL1        0.0028
     19 C           4.9259   -0.4048   32.8735 C.3     1  UNL1        0.0160
     20 O           7.0671   -4.6170   21.5022 O.3     1  UNL1       -0.4791
     21 O           6.6961   -0.8843   17.1696 O.2     1  UNL1       -0.1730
     22 S           6.0793   -1.9721   17.9981 S.O2    1  UNL1       -0.0098
     23 O           4.9580   -1.7091   17.0371 O.2     1  UNL1       -0.1730
     24 C           5.0731   -2.9685   18.4928 C.3     1  UNL1        0.1545
     25 C           5.4023   -3.8501   19.6609 C.3     1  UNL1        0.0688
     26 C           6.7378   -3.7353   20.3341 C.3     1  UNL1        0.1694
     27 C           7.7440   -2.7390   19.8394 C.3     1  UNL1        0.0688
     28 C           7.4147   -1.8574   18.6714 C.3     1  UNL1        0.1545
@<TRIPOS>BOND
     1    21    22    2
     2    22    23    2
     3    22    24    1
     4    24    25    1
     5    25    26    1
     6    26    20    1
     7    20     1    1
     8     1     2   ar
     9     2     3   ar
    10     3     4   ar
    11     4     5   ar
    12     5     6   ar
    13     5     7    1
    14     7     8    1
    15     8     9    1
    16     9    10    1
    17    10    11    1
    18    11    12    1
    19    12    16    1
    20    16    17    1
    21    17    18    1
    22    18    19    1
    23    12    13    1
    24    13    14    1
    25     9    15    1
    26    26    27    1
    27    27    28    1
    28    28    22    1
    29     6     1   ar
    30    14     9    1
    31    15     4    1
    32    19    16    1
@<TRIPOS>MOLECULE
*****
 28 32 0 0 0
SMALL
GASTEIGER

@<TRIPOS>ATOM
      1 C         -15.8367    2.3096   18.7790 C.ar    1  UNL1        0.1383
      2 C         -14.5701    2.4131   17.9820 C.ar    1  UNL1        0.0400
      3 C         -13.6573    1.2284   17.8672 C.ar    1  UNL1        0.0397
      4 C         -14.0110   -0.0599   18.5494 C.ar    1  UNL1        0.1344
      5 C         -15.2775   -0.1634   19.3464 C.ar    1  UNL1        0.0149
      6 C         -16.1904    1.0214   19.4612 C.ar    1  UNL1        0.0356
      7 C         -15.6312   -1.4516   20.0286 C.3     1  UNL1        0.0331
      8 C         -14.7184   -2.6363   19.9138 C.3     1  UNL1        0.0449
      9 C         -13.4518   -2.5328   19.1168 C.3     1  UNL1        0.1361
     10 C         -13.8055   -3.8210   19.7990 C.3     1  UNL1        0.0574
     11 C         -12.8927   -5.0057   19.6841 C.3     1  UNL1        0.0756
     12 N         -11.6262   -4.9022   18.8871 N.3     1  UNL1       -0.2737
     13 C         -11.2725   -3.6140   18.2049 C.3     1  UNL1        0.0756
     14 C         -12.1853   -2.4293   18.3198 C.3     1  UNL1        0.0574
     15 O         -13.0982   -1.2446   18.4346 O.3     1  UNL1       -0.4828
     16 C         -10.7134   -6.0870   18.7723 C.3     1  UNL1        0.0575
     17 C          -9.3476   -6.4279   19.2904 C.3     1  UNL1        0.0160
     18 C          -9.4225   -7.7625   18.6099 C.3     1  UNL1        0.0028
     19 C         -10.7883   -7.4216   18.0918 C.3     1  UNL1        0.0160
     20 O         -16.7495    3.4943   18.8938 O.3     1  UNL1       -0.4791
     21 O         -16.5371    5.8638   24.1075 O.2     1  UNL1       -0.1730
     22 S         -17.3147    5.5222   22.8710 S.O2    1  UNL1       -0.0098
     23 O         -18.3809    6.2162   23.6658 O.2     1  UNL1       -0.1730
     24 C         -18.4625    5.4216   21.9106 C.3     1  UNL1        0.1545
     25 C         -18.2741    4.7456   20.5849 C.3     1  UNL1        0.0688
     26 C         -16.9379    4.1703   20.2196 C.3     1  UNL1        0.1694
     27 C         -15.7901    4.2708   21.1800 C.3     1  UNL1        0.0688
     28 C         -15.9785    4.9468   22.5057 C.3     1  UNL1        0.1545
@<TRIPOS>BOND
     1    21    22    2
     2    22    23    2
     3    22    24    1
     4    24    25    1
     5    25    26    1
     6    26    20    1
     7    20     1    1
     8     1     2   ar
     9     2     3   ar
    10     3     4   ar
    11     4     5   ar
    12     5     6   ar
    13     5     7    1
    14     7     8    1
    15     8     9    1
    16     9    10    1
    17    10    11    1
    18    11    12    1
    19    12    16    1
    20    16    17    1
    21    17    18    1
    22    18    19    1
    23    12    13    1
    24    13    14    1
    25     9    15    1
    26    26    27    1
    27    27    28    1
    28    28    22    1
    29     6     1   ar
    30    14     9    1
    31    15     4    1
    32    19    16    1
@<TRIPOS>MOLECULE
*****
 28 32 0 0 0
SMALL
GASTEIGER

@<TRIPOS>ATOM
      1 C          -2.2878    4.5973   22.8989 C.ar    1  UNL1        0.1383
      2 C          -2.5636    4.2514   21.4657 C.ar    1  UNL1        0.0400
      3 C          -1.7629    3.1812   20.7849 C.ar    1  UNL1        0.0397
      4 C          -0.6863    2.4569   21.5375 C.ar    1  UNL1        0.1344
      5 C          -0.4105    2.8027   22.9707 C.ar    1  UNL1        0.0149
      6 C          -1.2113    3.8730   23.6515 C.ar    1  UNL1        0.0356
      7 C           0.6661    2.0784   23.7233 C.3     1  UNL1        0.0331
      8 C           1.4669    1.0082   23.0426 C.3     1  UNL1        0.0449
      9 C           1.1911    0.6623   21.6093 C.3     1  UNL1        0.1361
     10 C           2.2676   -0.0620   22.3618 C.3     1  UNL1        0.0574
     11 C           3.0684   -1.1322   21.6811 C.3     1  UNL1        0.0756
     12 N           2.7926   -1.4781   20.2478 N.3     1  UNL1       -0.2737
     13 C           1.7161   -0.7537   19.4952 C.3     1  UNL1        0.0756
     14 C           0.9153    0.3164   20.1760 C.3     1  UNL1        0.0574
     15 O           0.1145    1.3867   20.8567 O.3     1  UNL1       -0.4828
     16 C           3.5934   -2.5483   19.5670 C.3     1  UNL1        0.0575
     17 C           4.5651   -2.5814   18.4248 C.3     1  UNL1        0.0160
     18 C           4.7259   -4.0619   18.6044 C.3     1  UNL1        0.0028
     19 C           3.7542   -4.0288   19.7467 C.3     1  UNL1        0.0160
     20 O          -3.0886    5.6675   23.5797 O.3     1  UNL1       -0.4791
     21 O          -8.7588    6.3511   23.1065 O.2     1  UNL1       -0.1730
     22 S          -7.5850    5.5054   23.5031 S.O2    1  UNL1       -0.0098
     23 O          -8.7076    4.5770   23.8606 O.2     1  UNL1       -0.1730
     24 C          -6.8012    4.3373   24.0239 C.3     1  UNL1        0.1545
     25 C          -5.3024    4.3914   24.0494 C.3     1  UNL1        0.0688
     26 C          -4.5875    5.6135   23.5541 C.3     1  UNL1        0.1694
     27 C          -5.3713    6.7815   23.0334 C.3     1  UNL1        0.0688
     28 C          -6.8700    6.7275   23.0079 C.3     1  UNL1        0.1545
@<TRIPOS>BOND
     1    21    22    2
     2    22    23    2
     3    22    24    1
     4    24    25    1
     5    25    26    1
     6    26    20    1
     7    20     1    1
     8     1     2   ar
     9     2     3   ar
    10     3     4   ar
    11     4     5   ar
    12     5     6   ar
    13     5     7    1
    14     7     8    1
    15     8     9    1
    16     9    10    1
    17    10    11    1
    18    11    12    1
    19    12    16    1
    20    16    17    1
    21    17    18    1
    22    18    19    1
    23    12    13    1
    24    13    14    1
    25     9    15    1
    26    26    27    1
    27    27    28    1
    28    28    22    1
    29     6     1   ar
    30    14     9    1
    31    15     4    1
    32    19    16    1
@<TRIPOS>MOLECULE
*****
 28 32 0 0 0
SMALL
GASTEIGER

@<TRIPOS>ATOM
      1 C           7.7945   -3.7264   21.0687 C.ar    1  UNL1        0.1383
      2 C           8.4099   -2.3740   20.8629 C.ar    1  UNL1        0.0400
      3 C           7.5545   -1.2177   20.4373 C.ar    1  UNL1        0.0397
      4 C           6.0837   -1.4137   20.2174 C.ar    1  UNL1        0.1344
      5 C           5.4683   -2.7661   20.4232 C.ar    1  UNL1        0.0149
      6 C           6.3238   -3.9225   20.8488 C.ar    1  UNL1        0.0356
      7 C           3.9975   -2.9622   20.2033 C.3     1  UNL1        0.0331
      8 C           3.1421   -1.8058   19.7777 C.3     1  UNL1        0.0449
      9 C           3.7575   -0.4535   19.5719 C.3     1  UNL1        0.1361
     10 C           2.2867   -0.6495   19.3521 C.3     1  UNL1        0.0574
     11 C           1.4313    0.5068   18.9264 C.3     1  UNL1        0.0756
     12 N           2.0467    1.8592   18.7207 N.3     1  UNL1       -0.2737
     13 C           3.5175    2.0553   18.9406 C.3     1  UNL1        0.0756
     14 C           4.3729    0.8989   19.3662 C.3     1  UNL1        0.0574
     15 O           5.2283   -0.2574   19.7918 O.3     1  UNL1       -0.4828
     16 C           1.1913    3.0156   18.2951 C.3     1  UNL1        0.0575
     17 C           1.4282    4.4761   18.0488 C.3     1  UNL1        0.0160
     18 C          -0.0186    4.6508   17.6931 C.3     1  UNL1        0.0028
     19 C          -0.2555    3.1902   17.9394 C.3     1  UNL1        0.0160
     20 O           8.6499   -4.8828   21.4943 O.3     1  UNL1       -0.4791
     21 O           8.0504   -8.2989   26.0564 O.2     1  UNL1       -0.1730
     22 S           7.8328   -6.9694   25.3966 S.O2    1  UNL1       -0.0098
     23 O           7.1980   -6.7057   26.7298 O.2     1  UNL1       -0.1730
     24 C           7.3948   -5.5484   25.1999 C.3     1  UNL1        0.1545
     25 C           7.6671   -4.8529   23.8992 C.3     1  UNL1        0.0688
     26 C           8.3775   -5.5784   22.7951 C.3     1  UNL1        0.1694
     27 C           8.8156   -6.9994   22.9918 C.3     1  UNL1        0.0688
     28 C           8.5432   -7.6949   24.2926 C.3     1  UNL1        0.1545
@<TRIPOS>BOND
     1    21    22    2
     2    22    23    2
     3    22    24    1
     4    24    25    1
     5    25    26    1
     6    26    20    1
     7    20     1    1
     8     1     2   ar
     9     2     3   ar
    10     3     4   ar
    11     4     5   ar
    12     5     6   ar
    13     5     7    1
    14     7     8    1
    15     8     9    1
    16     9    10    1
    17    10    11    1
    18    11    12    1
    19    12    16    1
    20    16    17    1
    21    17    18    1
    22    18    19    1
    23    12    13    1
    24    13    14    1
    25     9    15    1
    26    26    27    1
    27    27    28    1
    28    28    22    1
    29     6     1   ar
    30    14     9    1
    31    15     4    1
    32    19    16    1
