@<TRIPOS>MOLECULE
*****
 25 29 0 0 0
SMALL
GASTEIGER

@<TRIPOS>ATOM
      1 C          -1.7795  -18.4611   21.2887 C.ar    1  UNL1        0.1726
      2 C          -2.1899  -18.1511   22.6978 C.ar    1  UNL1        0.0401
      3 C          -3.6404  -18.1759   23.0792 C.ar    1  UNL1        0.0037
      4 C          -4.6805  -18.5107   22.0515 C.ar    1  UNL1        0.0150
      5 C          -6.1310  -18.5355   22.4329 C.ar    1  UNL1        0.0695
      6 C          -7.1710  -18.8703   21.4051 C.ar    1  UNL1        0.2260
      7 N          -6.7606  -19.1803   19.9961 N.ar    1  UNL1       -0.1641
      8 C          -5.3101  -19.1555   19.6148 C.ar    1  UNL1        0.2929
      9 C          -4.2701  -18.8207   20.6425 C.ar    1  UNL1        0.1068
     10 C          -2.8196  -18.7959   20.2611 C.ar    1  UNL1        0.1782
     11 C          -7.8008  -19.5151   18.9684 C.3     1  UNL1        0.3269
     12 C          -9.2512  -19.5399   19.3498 C.3     1  UNL1        0.1119
     13 C          -9.6616  -19.2299   20.7589 C.ar    1  UNL1       -0.0062
     14 C         -11.1121  -19.2547   21.1402 C.ar    1  UNL1        0.0363
     15 C         -11.5226  -18.9447   22.5493 C.ar    1  UNL1        0.1761
     16 C         -10.4825  -18.6099   23.5770 C.ar    1  UNL1        0.1766
     17 C          -9.0320  -18.5851   23.1957 C.ar    1  UNL1        0.0458
     18 C          -8.6216  -18.8951   21.7865 C.ar    1  UNL1        0.0630
     19 O         -11.1829  -18.3498   24.8777 O.3     1  UNL1       -0.4346
     20 C         -12.6558  -18.5239   24.6538 C.3     1  UNL1        0.4294
     21 O         -12.8658  -18.8915   23.2148 O.3     1  UNL1       -0.4346
     22 C           0.2298  -17.2627   20.1588 C.3     1  UNL1        0.2526
     23 O          -0.3290  -18.4363   20.9074 O.3     1  UNL1       -0.4684
     24 O          -2.4092  -19.1059   18.8520 O.3     1  UNL1       -0.4682
     25 C          -2.1302  -17.9899   17.8894 C.3     1  UNL1        0.2526
@<TRIPOS>UNITY_ATOM_ATTR
7 1
charge 1
@<TRIPOS>BOND
     1    22    23    1
     2    23     1    1
     3     1     2   ar
     4     2     3   ar
     5     3     4   ar
     6     4     5   ar
     7     5     6   ar
     8     6     7   ar
     9     7     8   ar
    10     8     9   ar
    11     9    10   ar
    12    10    24    1
    13    24    25    1
    14     7    11    1
    15    11    12    1
    16    12    13    1
    17    13    14   ar
    18    14    15   ar
    19    15    16   ar
    20    16    17   ar
    21    17    18   ar
    22    16    19    1
    23    19    20    1
    24    20    21    1
    25    10     1   ar
    26    18    13   ar
    27     9     4   ar
    28    21    15    1
    29    18     6    1
@<TRIPOS>MOLECULE
*****
 25 29 0 0 0
SMALL
GASTEIGER

@<TRIPOS>ATOM
      1 C         -10.4670  -17.8426   23.8106 C.ar    1  UNL1        0.1726
      2 C          -9.5955  -16.6635   24.1273 C.ar    1  UNL1        0.0401
      3 C          -8.1785  -16.6248   23.6368 C.ar    1  UNL1        0.0037
      4 C          -7.6329  -17.7653   22.8296 C.ar    1  UNL1        0.0150
      5 C          -6.2159  -17.7267   22.3390 C.ar    1  UNL1        0.0695
      6 C          -5.6704  -18.8672   21.5318 C.ar    1  UNL1        0.2260
      7 N          -6.5418  -20.0463   21.2151 N.ar    1  UNL1       -0.1641
      8 C          -7.9588  -20.0849   21.7056 C.ar    1  UNL1        0.2929
      9 C          -8.5043  -18.9444   22.5128 C.ar    1  UNL1        0.1068
     10 C          -9.9213  -18.9831   23.0033 C.ar    1  UNL1        0.1782
     11 C          -5.9962  -21.1868   20.4078 C.3     1  UNL1        0.3269
     12 C          -4.5792  -21.1482   19.9173 C.3     1  UNL1        0.1119
     13 C          -3.7078  -19.9690   20.2340 C.ar    1  UNL1       -0.0062
     14 C          -2.2908  -19.9305   19.7435 C.ar    1  UNL1        0.0363
     15 C          -1.4193  -18.7514   20.0602 C.ar    1  UNL1        0.1761
     16 C          -1.9649  -17.6109   20.8674 C.ar    1  UNL1        0.1766
     17 C          -3.3819  -17.6494   21.3580 C.ar    1  UNL1        0.0458
     18 C          -4.2533  -18.8286   21.0412 C.ar    1  UNL1        0.0630
     19 O          -0.8769  -16.5898   21.0215 O.3     1  UNL1       -0.4346
     20 C           0.3410  -17.0992   20.3094 C.3     1  UNL1        0.4294
     21 O           0.0058  -18.4352   19.7153 O.3     1  UNL1       -0.4346
     22 C         -13.0149  -17.6354   23.3469 C.3     1  UNL1        0.2526
     23 O         -11.8839  -17.8812   24.3011 O.3     1  UNL1       -0.4684
     24 O         -10.7928  -20.1622   22.6866 O.3     1  UNL1       -0.4682
     25 C         -11.4151  -20.2914   21.3280 C.3     1  UNL1        0.2526
@<TRIPOS>UNITY_ATOM_ATTR
7 1
charge 1
@<TRIPOS>BOND
     1    22    23    1
     2    23     1    1
     3     1     2   ar
     4     2     3   ar
     5     3     4   ar
     6     4     5   ar
     7     5     6   ar
     8     6     7   ar
     9     7     8   ar
    10     8     9   ar
    11     9    10   ar
    12    10    24    1
    13    24    25    1
    14     7    11    1
    15    11    12    1
    16    12    13    1
    17    13    14   ar
    18    14    15   ar
    19    15    16   ar
    20    16    17   ar
    21    17    18   ar
    22    16    19    1
    23    19    20    1
    24    20    21    1
    25    10     1   ar
    26    18    13   ar
    27     9     4   ar
    28    21    15    1
    29    18     6    1
@<TRIPOS>MOLECULE
*****
 25 29 0 0 0
SMALL
GASTEIGER

@<TRIPOS>ATOM
      1 C         -10.7101   -5.7593   18.9791 C.ar    1  UNL1        0.1726
      2 C          -9.9302   -4.5024   18.7303 C.ar    1  UNL1        0.0401
      3 C         -10.6356   -3.1795   18.6802 C.ar    1  UNL1        0.0037
      4 C         -12.1209   -3.1136   18.8790 C.ar    1  UNL1        0.0150
      5 C         -12.8263   -1.7908   18.8290 C.ar    1  UNL1        0.0695
      6 C         -14.3116   -1.7248   19.0278 C.ar    1  UNL1        0.2260
      7 N         -15.0915   -2.9817   19.2766 N.ar    1  UNL1       -0.1641
      8 C         -14.3861   -4.3046   19.3267 C.ar    1  UNL1        0.2929
      9 C         -12.9008   -4.3705   19.1279 C.ar    1  UNL1        0.1068
     10 C         -12.1955   -5.6933   19.1779 C.ar    1  UNL1        0.1782
     11 C         -16.5769   -2.9157   19.4755 C.3     1  UNL1        0.3269
     12 C         -17.2823   -1.5929   19.4254 C.3     1  UNL1        0.1119
     13 C         -16.5023   -0.3360   19.1766 C.ar    1  UNL1       -0.0062
     14 C         -17.2077    0.9868   19.1265 C.ar    1  UNL1        0.0363
     15 C         -16.4278    2.2437   18.8777 C.ar    1  UNL1        0.1761
     16 C         -14.9425    2.1778   18.6789 C.ar    1  UNL1        0.1766
     17 C         -14.2371    0.8550   18.7289 C.ar    1  UNL1        0.0458
     18 C         -15.0171   -0.4019   18.9778 C.ar    1  UNL1        0.0630
     19 O         -14.4426    3.5739   18.4533 O.3     1  UNL1       -0.4346
     20 C         -15.6189    4.5027   18.5127 C.3     1  UNL1        0.4294
     21 O         -16.8459    3.6806   18.7750 O.3     1  UNL1       -0.4346
     22 C         -10.0313   -7.9919   17.8368 C.3     1  UNL1        0.2526
     23 O         -10.0047   -7.0821   19.0291 O.3     1  UNL1       -0.4684
     24 O         -12.9754   -6.9502   19.4268 O.3     1  UNL1       -0.4682
     25 C         -13.5983   -7.6862   18.2777 C.3     1  UNL1        0.2526
@<TRIPOS>UNITY_ATOM_ATTR
7 1
charge 1
@<TRIPOS>BOND
     1    22    23    1
     2    23     1    1
     3     1     2   ar
     4     2     3   ar
     5     3     4   ar
     6     4     5   ar
     7     5     6   ar
     8     6     7   ar
     9     7     8   ar
    10     8     9   ar
    11     9    10   ar
    12    10    24    1
    13    24    25    1
    14     7    11    1
    15    11    12    1
    16    12    13    1
    17    13    14   ar
    18    14    15   ar
    19    15    16   ar
    20    16    17   ar
    21    17    18   ar
    22    16    19    1
    23    19    20    1
    24    20    21    1
    25    10     1   ar
    26    18    13   ar
    27     9     4   ar
    28    21    15    1
    29    18     6    1
@<TRIPOS>MOLECULE
*****
 25 29 0 0 0
SMALL
GASTEIGER

@<TRIPOS>ATOM
      1 C           7.4864   -4.3689   25.3911 C.ar    1  UNL1        0.1726
      2 C           6.8871   -3.3202   26.2804 C.ar    1  UNL1        0.0401
      3 C           5.8107   -2.4170   25.7552 C.ar    1  UNL1        0.0037
      4 C           5.3336   -2.5627   24.3406 C.ar    1  UNL1        0.0150
      5 C           4.2573   -1.6597   23.8153 C.ar    1  UNL1        0.0695
      6 C           3.7802   -1.8054   22.4006 C.ar    1  UNL1        0.2260
      7 N           4.3795   -2.8542   21.5113 N.ar    1  UNL1       -0.1641
      8 C           5.4558   -3.7572   22.0366 C.ar    1  UNL1        0.2929
      9 C           5.9329   -3.6115   23.4512 C.ar    1  UNL1        0.1068
     10 C           7.0092   -4.5146   23.9764 C.ar    1  UNL1        0.1782
     11 C           3.9023   -2.9998   20.0967 C.3     1  UNL1        0.3269
     12 C           2.8260   -2.0968   19.5714 C.3     1  UNL1        0.1119
     13 C           2.2267   -1.0479   20.4608 C.ar    1  UNL1       -0.0062
     14 C           1.1504   -0.1449   19.9355 C.ar    1  UNL1        0.0363
     15 C           0.5511    0.9039   20.8248 C.ar    1  UNL1        0.1761
     16 C           1.0282    1.0496   22.2395 C.ar    1  UNL1        0.1766
     17 C           2.1045    0.1466   22.7648 C.ar    1  UNL1        0.0458
     18 C           2.7038   -0.9023   21.8753 C.ar    1  UNL1        0.0630
     19 O           0.2556    2.1664   22.8766 O.3     1  UNL1       -0.4346
     20 C          -0.6990    2.7109   21.8556 C.3     1  UNL1        0.4294
     21 O          -0.5164    1.9306   20.5876 O.3     1  UNL1       -0.4346
     22 C           8.2060   -6.6169   26.4769 C.3     1  UNL1        0.2526
     23 O           8.5627   -5.2720   25.9164 O.3     1  UNL1       -0.4684
     24 O           7.6085   -5.5634   23.0871 O.3     1  UNL1       -0.4682
     25 C           8.8919   -5.2873   22.3614 C.3     1  UNL1        0.2526
@<TRIPOS>UNITY_ATOM_ATTR
7 1
charge 1
@<TRIPOS>BOND
     1    22    23    1
     2    23     1    1
     3     1     2   ar
     4     2     3   ar
     5     3     4   ar
     6     4     5   ar
     7     5     6   ar
     8     6     7   ar
     9     7     8   ar
    10     8     9   ar
    11     9    10   ar
    12    10    24    1
    13    24    25    1
    14     7    11    1
    15    11    12    1
    16    12    13    1
    17    13    14   ar
    18    14    15   ar
    19    15    16   ar
    20    16    17   ar
    21    17    18   ar
    22    16    19    1
    23    19    20    1
    24    20    21    1
    25    10     1   ar
    26    18    13   ar
    27     9     4   ar
    28    21    15    1
    29    18     6    1
@<TRIPOS>MOLECULE
*****
 25 29 0 0 0
SMALL
GASTEIGER

@<TRIPOS>ATOM
      1 C           3.4858    0.4802   29.2143 C.ar    1  UNL1        0.1726
      2 C           4.3622   -0.7221   29.0236 C.ar    1  UNL1        0.0401
      3 C           4.5067   -1.3369   27.6630 C.ar    1  UNL1        0.0037
      4 C           3.7745   -0.7493   26.4930 C.ar    1  UNL1        0.0150
      5 C           3.9189   -1.3639   25.1324 C.ar    1  UNL1        0.0695
      6 C           3.1868   -0.7763   23.9625 C.ar    1  UNL1        0.2260
      7 N           2.3103    0.4260   24.1532 N.ar    1  UNL1       -0.1641
      8 C           2.1660    1.0406   25.5138 C.ar    1  UNL1        0.2929
      9 C           2.8981    0.4530   26.6837 C.ar    1  UNL1        0.1068
     10 C           2.7537    1.0677   28.0443 C.ar    1  UNL1        0.1782
     11 C           1.5782    1.0135   22.9831 C.3     1  UNL1        0.3269
     12 C           1.7226    0.3988   21.6225 C.3     1  UNL1        0.1119
     13 C           2.5991   -0.8035   21.4319 C.ar    1  UNL1       -0.0062
     14 C           2.7434   -1.4182   20.0712 C.ar    1  UNL1        0.0363
     15 C           3.6198   -2.6204   19.8806 C.ar    1  UNL1        0.1761
     16 C           4.3519   -3.2080   21.0505 C.ar    1  UNL1        0.1766
     17 C           4.2076   -2.5934   22.4111 C.ar    1  UNL1        0.0458
     18 C           3.3311   -1.3910   22.6018 C.ar    1  UNL1        0.0630
     19 O           5.1387   -4.3873   20.5602 O.3     1  UNL1       -0.4346
     20 C           4.8928   -4.5285   19.0873 C.3     1  UNL1        0.4294
     21 O           3.9541   -3.4365   18.6672 O.3     1  UNL1       -0.4346
     22 C           2.9190    0.2487   31.7392 C.3     1  UNL1        0.2526
     23 O           3.3415    1.0949   30.5749 O.3     1  UNL1       -0.4684
     24 O           1.8773    2.2700   28.2350 O.3     1  UNL1       -0.4682
     25 C           0.4901    2.1077   28.7820 C.3     1  UNL1        0.2526
@<TRIPOS>UNITY_ATOM_ATTR
7 1
charge 1
@<TRIPOS>BOND
     1    22    23    1
     2    23     1    1
     3     1     2   ar
     4     2     3   ar
     5     3     4   ar
     6     4     5   ar
     7     5     6   ar
     8     6     7   ar
     9     7     8   ar
    10     8     9   ar
    11     9    10   ar
    12    10    24    1
    13    24    25    1
    14     7    11    1
    15    11    12    1
    16    12    13    1
    17    13    14   ar
    18    14    15   ar
    19    15    16   ar
    20    16    17   ar
    21    17    18   ar
    22    16    19    1
    23    19    20    1
    24    20    21    1
    25    10     1   ar
    26    18    13   ar
    27     9     4   ar
    28    21    15    1
    29    18     6    1
@<TRIPOS>MOLECULE
*****
 25 29 0 0 0
SMALL
GASTEIGER

@<TRIPOS>ATOM
      1 C           3.2922   -0.8587   19.5263 C.ar    1  UNL1        0.1726
      2 C           2.6805   -0.8426   20.8957 C.ar    1  UNL1        0.0401
      3 C           3.3291   -1.6005   22.0160 C.ar    1  UNL1        0.0037
      4 C           4.5897   -2.3744   21.7667 C.ar    1  UNL1        0.0150
      5 C           5.2384   -3.1323   22.8868 C.ar    1  UNL1        0.0695
      6 C           6.4989   -3.9062   22.6375 C.ar    1  UNL1        0.2260
      7 N           7.1107   -3.9222   21.2681 N.ar    1  UNL1       -0.1641
      8 C           6.4619   -3.1644   20.1479 C.ar    1  UNL1        0.2929
      9 C           5.2014   -2.3905   20.3972 C.ar    1  UNL1        0.1068
     10 C           4.5528   -1.6326   19.2770 C.ar    1  UNL1        0.1782
     11 C           8.3712   -4.6962   21.0188 C.3     1  UNL1        0.3269
     12 C           9.0200   -5.4541   22.1390 C.3     1  UNL1        0.1119
     13 C           8.4081   -5.4380   23.5085 C.ar    1  UNL1       -0.0062
     14 C           9.0569   -6.1958   24.6286 C.ar    1  UNL1        0.0363
     15 C           8.4451   -6.1798   25.9981 C.ar    1  UNL1        0.1761
     16 C           7.1846   -5.4058   26.2474 C.ar    1  UNL1        0.1766
     17 C           6.5358   -4.6480   25.1273 C.ar    1  UNL1        0.0458
     18 C           7.1477   -4.6641   23.7578 C.ar    1  UNL1        0.0630
     19 O           6.8153   -5.5740   27.6915 O.3     1  UNL1       -0.4346
     20 C           7.8477   -6.4518   28.3347 C.3     1  UNL1        0.4294
     21 O           8.8549   -6.8262   27.2881 O.3     1  UNL1       -0.4346
     22 C           1.3278    0.5848   18.6276 C.3     1  UNL1        0.2526
     23 O           2.6435   -0.1008   18.4061 O.3     1  UNL1       -0.4684
     24 O           5.1645   -1.6487   17.9076 O.3     1  UNL1       -0.4682
     25 C           6.0703   -0.5331   17.4777 C.3     1  UNL1        0.2526
@<TRIPOS>UNITY_ATOM_ATTR
7 1
charge 1
@<TRIPOS>BOND
     1    22    23    1
     2    23     1    1
     3     1     2   ar
     4     2     3   ar
     5     3     4   ar
     6     4     5   ar
     7     5     6   ar
     8     6     7   ar
     9     7     8   ar
    10     8     9   ar
    11     9    10   ar
    12    10    24    1
    13    24    25    1
    14     7    11    1
    15    11    12    1
    16    12    13    1
    17    13    14   ar
    18    14    15   ar
    19    15    16   ar
    20    16    17   ar
    21    17    18   ar
    22    16    19    1
    23    19    20    1
    24    20    21    1
    25    10     1   ar
    26    18    13   ar
    27     9     4   ar
    28    21    15    1
    29    18     6    1
@<TRIPOS>MOLECULE
*****
 25 29 0 0 0
SMALL
GASTEIGER

@<TRIPOS>ATOM
      1 C         -10.7193   -5.1294   18.4502 C.ar    1  UNL1        0.1726
      2 C         -10.3810   -3.6720   18.5575 C.ar    1  UNL1        0.0401
      3 C         -11.4588   -2.6717   18.8541 C.ar    1  UNL1        0.0037
      4 C         -12.8748   -3.1289   19.0435 C.ar    1  UNL1        0.0150
      5 C         -13.9525   -2.1287   19.3401 C.ar    1  UNL1        0.0695
      6 C         -15.3686   -2.5859   19.5295 C.ar    1  UNL1        0.2260
      7 N         -15.7068   -4.0433   19.4222 N.ar    1  UNL1       -0.1641
      8 C         -14.6291   -5.0435   19.1256 C.ar    1  UNL1        0.2929
      9 C         -13.2131   -4.5863   18.9362 C.ar    1  UNL1        0.1068
     10 C         -12.1354   -5.5866   18.6395 C.ar    1  UNL1        0.1782
     11 C         -17.1229   -4.5005   19.6116 C.3     1  UNL1        0.3269
     12 C         -18.2007   -3.5003   19.9082 C.3     1  UNL1        0.1119
     13 C         -17.8623   -2.0428   20.0155 C.ar    1  UNL1       -0.0062
     14 C         -18.9401   -1.0426   20.3122 C.ar    1  UNL1        0.0363
     15 C         -18.6018    0.4148   20.4195 C.ar    1  UNL1        0.1761
     16 C         -17.1858    0.8720   20.2301 C.ar    1  UNL1        0.1766
     17 C         -16.1080   -0.1282   19.9335 C.ar    1  UNL1        0.0458
     18 C         -16.4464   -1.5856   19.8262 C.ar    1  UNL1        0.0630
     19 O         -17.1542    2.3628   20.3934 O.3     1  UNL1       -0.4346
     20 C         -18.5508    2.8269   20.6837 C.3     1  UNL1        0.4294
     21 O         -19.4454    1.6230   20.6998 O.3     1  UNL1       -0.4346
     22 C          -9.2533   -7.1432   19.1889 C.3     1  UNL1        0.2526
     23 O          -9.6415   -6.1296   18.1535 O.3     1  UNL1       -0.4684
     24 O         -12.4736   -7.0440   18.5323 O.3     1  UNL1       -0.4682
     25 C         -12.6648   -7.6722   17.1837 C.3     1  UNL1        0.2526
@<TRIPOS>UNITY_ATOM_ATTR
7 1
charge 1
@<TRIPOS>BOND
     1    22    23    1
     2    23     1    1
     3     1     2   ar
     4     2     3   ar
     5     3     4   ar
     6     4     5   ar
     7     5     6   ar
     8     6     7   ar
     9     7     8   ar
    10     8     9   ar
    11     9    10   ar
    12    10    24    1
    13    24    25    1
    14     7    11    1
    15    11    12    1
    16    12    13    1
    17    13    14   ar
    18    14    15   ar
    19    15    16   ar
    20    16    17   ar
    21    17    18   ar
    22    16    19    1
    23    19    20    1
    24    20    21    1
    25    10     1   ar
    26    18    13   ar
    27     9     4   ar
    28    21    15    1
    29    18     6    1
@<TRIPOS>MOLECULE
*****
 25 29 0 0 0
SMALL
GASTEIGER

@<TRIPOS>ATOM
      1 C          -1.1857    2.9370   25.6143 C.ar    1  UNL1        0.1726
      2 C          -0.2508    1.8646   26.0897 C.ar    1  UNL1        0.0401
      3 C           0.6107    1.1302   25.1055 C.ar    1  UNL1        0.0037
      4 C           0.5373    1.4683   23.6460 C.ar    1  UNL1        0.0150
      5 C           1.3988    0.7340   22.6618 C.ar    1  UNL1        0.0695
      6 C           1.3254    1.0721   21.2022 C.ar    1  UNL1        0.2260
      7 N           0.3905    2.1445   20.7268 N.ar    1  UNL1       -0.1641
      8 C          -0.4709    2.8788   21.7110 C.ar    1  UNL1        0.2929
      9 C          -0.3975    2.5407   23.1706 C.ar    1  UNL1        0.1068
     10 C          -1.2590    3.2750   24.1547 C.ar    1  UNL1        0.1782
     11 C           0.3172    2.4825   19.2672 C.3     1  UNL1        0.3269
     12 C           1.1786    1.7482   18.2830 C.3     1  UNL1        0.1119
     13 C           2.1135    0.6758   18.7585 C.ar    1  UNL1       -0.0062
     14 C           2.9750   -0.0585   17.7743 C.ar    1  UNL1        0.0363
     15 C           3.9099   -1.1309   18.2496 C.ar    1  UNL1        0.1761
     16 C           3.9833   -1.4690   19.7092 C.ar    1  UNL1        0.1766
     17 C           3.1218   -0.7347   20.6934 C.ar    1  UNL1        0.0458
     18 C           2.1869    0.3377   20.2180 C.ar    1  UNL1        0.0630
     19 O           4.9923   -2.5655   19.8809 O.3     1  UNL1       -0.4346
     20 C           5.5425   -2.9051   18.5274 C.3     1  UNL1        0.4294
     21 O           4.8735   -2.0185   17.5192 O.3     1  UNL1       -0.4346
     22 C          -1.6213    5.0148   27.1120 C.3     1  UNL1        0.2526
     23 O          -2.0471    3.6713   26.5985 O.3     1  UNL1       -0.4684
     24 O          -2.1939    4.3474   23.6794 O.3     1  UNL1       -0.4682
     25 C          -3.6354    4.0244   23.4190 C.3     1  UNL1        0.2526
@<TRIPOS>UNITY_ATOM_ATTR
7 1
charge 1
@<TRIPOS>BOND
     1    22    23    1
     2    23     1    1
     3     1     2   ar
     4     2     3   ar
     5     3     4   ar
     6     4     5   ar
     7     5     6   ar
     8     6     7   ar
     9     7     8   ar
    10     8     9   ar
    11     9    10   ar
    12    10    24    1
    13    24    25    1
    14     7    11    1
    15    11    12    1
    16    12    13    1
    17    13    14   ar
    18    14    15   ar
    19    15    16   ar
    20    16    17   ar
    21    17    18   ar
    22    16    19    1
    23    19    20    1
    24    20    21    1
    25    10     1   ar
    26    18    13   ar
    27     9     4   ar
    28    21    15    1
    29    18     6    1
@<TRIPOS>MOLECULE
*****
 25 29 0 0 0
SMALL
GASTEIGER

@<TRIPOS>ATOM
      1 C          -0.9906    3.2355   22.8490 C.ar    1  UNL1        0.1726
      2 C          -0.3957    2.9844   24.2029 C.ar    1  UNL1        0.0401
      3 C           0.6687    1.9411   24.3727 C.ar    1  UNL1        0.0037
      4 C           1.1380    1.1489   23.1886 C.ar    1  UNL1        0.0150
      5 C           2.2022    0.1055   23.3583 C.ar    1  UNL1        0.0695
      6 C           2.6715   -0.6867   22.1742 C.ar    1  UNL1        0.2260
      7 N           2.0766   -0.4356   20.8203 N.ar    1  UNL1       -0.1641
      8 C           1.0123    0.6077   20.6506 C.ar    1  UNL1        0.2929
      9 C           0.5430    1.4000   21.8347 C.ar    1  UNL1        0.1068
     10 C          -0.5212    2.4432   21.6649 C.ar    1  UNL1        0.1782
     11 C           2.5460   -1.2279   19.6362 C.3     1  UNL1        0.3269
     12 C           3.6102   -2.2712   19.8060 C.3     1  UNL1        0.1119
     13 C           4.2052   -2.5222   21.1599 C.ar    1  UNL1       -0.0062
     14 C           5.2694   -3.5655   21.3297 C.ar    1  UNL1        0.0363
     15 C           5.8644   -3.8166   22.6836 C.ar    1  UNL1        0.1761
     16 C           5.3951   -3.0244   23.8677 C.ar    1  UNL1        0.1766
     17 C           4.3308   -1.9811   23.6979 C.ar    1  UNL1        0.0458
     18 C           3.7359   -1.7301   22.3440 C.ar    1  UNL1        0.0630
     19 O           6.1611   -3.4903   25.0702 O.3     1  UNL1       -0.4346
     20 C           7.1038   -4.5705   24.6293 C.3     1  UNL1        0.4294
     21 O           6.9205   -4.7722   23.1543 O.3     1  UNL1       -0.4346
     22 C          -3.5017    3.8830   22.6897 C.3     1  UNL1        0.2526
     23 O          -2.0549    4.2788   22.6793 O.3     1  UNL1       -0.4684
     24 O          -1.1162    2.6943   20.3110 O.3     1  UNL1       -0.4682
     25 C          -0.5940    3.8121   19.4579 C.3     1  UNL1        0.2526
@<TRIPOS>UNITY_ATOM_ATTR
7 1
charge 1
@<TRIPOS>BOND
     1    22    23    1
     2    23     1    1
     3     1     2   ar
     4     2     3   ar
     5     3     4   ar
     6     4     5   ar
     7     5     6   ar
     8     6     7   ar
     9     7     8   ar
    10     8     9   ar
    11     9    10   ar
    12    10    24    1
    13    24    25    1
    14     7    11    1
    15    11    12    1
    16    12    13    1
    17    13    14   ar
    18    14    15   ar
    19    15    16   ar
    20    16    17   ar
    21    17    18   ar
    22    16    19    1
    23    19    20    1
    24    20    21    1
    25    10     1   ar
    26    18    13   ar
    27     9     4   ar
    28    21    15    1
    29    18     6    1
