@<TRIPOS>MOLECULE
*****
 31 35 0 0 0
SMALL
GASTEIGER

@<TRIPOS>ATOM
      1 O          -4.2766  -19.8299   19.8403 O.2     1  UNL1       -0.2501
      2 C          -3.6902  -19.0537   20.9820 C.2     1  UNL1        0.3162
      3 O          -2.1905  -19.0597   20.9540 O.3     1  UNL1       -0.4485
      4 C          -1.7018  -18.2630   22.1272 C.3     1  UNL1        0.2090
      5 C          -2.8994  -17.7647   22.8804 C.3     1  UNL1        0.0582
      6 C          -4.1284  -18.2534   22.1726 C.3     1  UNL1        0.0985
      7 C          -4.4141  -17.4310   23.3941 C.3     1  UNL1        0.0109
      8 C          -5.8322  -17.1659   23.8048 C.3     1  UNL1        0.0026
      9 C          -6.9646  -17.7232   22.9942 C.3     1  UNL1        0.0268
     10 C          -6.6788  -18.5456   21.7727 C.3     1  UNL1        0.1424
     11 C          -7.8111  -19.1030   20.9619 C.ar    1  UNL1        0.0616
     12 C          -9.2292  -18.8379   21.3727 C.ar    1  UNL1        0.1407
     13 F          -9.8628  -18.0808   22.5020 F       1  UNL1       -0.2043
     14 C         -10.3615  -19.3953   20.5620 C.ar    1  UNL1        0.0319
     15 C         -10.0757  -20.2177   19.3406 C.ar    1  UNL1        0.0351
     16 C          -8.6576  -20.4828   18.9299 C.ar    1  UNL1        0.1737
     17 F          -8.3719  -21.3053   17.7084 F       1  UNL1       -0.2010
     18 C          -7.5253  -19.9255   19.7405 C.ar    1  UNL1        0.1654
     19 O          -6.1071  -20.1906   19.3298 O.3     1  UNL1       -0.4733
     20 C          -4.9749  -19.6332   20.1405 C.3     1  UNL1        0.2079
     21 C          -5.2607  -18.8108   21.3620 C.3     1  UNL1        0.0786
     22 S          -8.0969  -18.2806   22.1834 S.O2    1  UNL1        0.0093
     23 O          -8.4643  -18.8259   22.6340 O.2     1  UNL1       -0.1684
     24 O          -8.4121  -16.9518   21.5628 O.2     1  UNL1       -0.1684
     25 C          -9.5150  -18.0155   22.5941 C.ar    1  UNL1        0.1059
     26 C         -10.2061  -18.9449   23.5473 C.ar    1  UNL1        0.0192
     27 C         -11.6241  -18.6798   23.9579 C.ar    1  UNL1        0.0127
     28 C         -12.3512  -17.4853   23.4154 C.ar    1  UNL1        0.0578
     29 CL        -13.7694  -17.2201   23.8260 Cl      1  UNL1       -0.0822
     30 C         -11.6602  -16.5558   22.4622 C.ar    1  UNL1        0.0127
     31 C         -10.2421  -16.8209   22.0515 C.ar    1  UNL1        0.0192
@<TRIPOS>BOND
     1     1     2    2
     2     2     3    1
     3     3     4    1
     4     4     5    1
     5     6     5    1
     6     6     7    1
     7     7     8    1
     8     8     9    1
     9     9    10    1
    10    10    22    1
    11    22    23    2
    12    22    24    2
    13    22    25    1
    14    25    26   ar
    15    26    27   ar
    16    27    28   ar
    17    28    29    1
    18    28    30   ar
    19    30    31   ar
    20    10    11    1
    21    11    12   ar
    22    12    13    1
    23    12    14   ar
    24    14    15   ar
    25    15    16   ar
    26    16    17    1
    27    16    18   ar
    28    18    19    1
    29    19    20    1
    30    21    20    1
    31     6     2    1
    32    21    10    1
    33    21     6    1
    34    31    25   ar
    35    18    11   ar
@<TRIPOS>MOLECULE
*****
 31 35 0 0 0
SMALL
GASTEIGER

@<TRIPOS>ATOM
      1 O         -14.8224   -9.3587   18.6995 O.2     1  UNL1       -0.2501
      2 C         -16.1234   -8.7623   19.1486 C.2     1  UNL1        0.3162
      3 O         -17.1281   -9.8150   19.5124 O.3     1  UNL1       -0.4485
      4 C         -18.3871   -9.1243   19.9458 C.3     1  UNL1        0.2090
      5 C         -18.1605   -7.6446   19.8498 C.3     1  UNL1        0.0582
      6 C         -16.7615   -7.4209   19.3571 C.3     1  UNL1        0.0985
      7 C         -17.5281   -6.1570   19.6116 C.3     1  UNL1        0.0109
      8 C         -16.8808   -4.8256   19.3699 C.3     1  UNL1        0.0026
      9 C         -15.4669   -4.7581   18.8738 C.3     1  UNL1        0.0268
     10 C         -14.7003   -6.0221   18.6193 C.3     1  UNL1        0.1424
     11 C         -13.2862   -5.9547   18.1232 C.ar    1  UNL1        0.0616
     12 C         -12.6389   -4.6233   17.8815 C.ar    1  UNL1        0.1407
     13 F         -13.0948   -3.2015   18.0253 F       1  UNL1       -0.2043
     14 C         -11.2250   -4.5558   17.3853 C.ar    1  UNL1        0.0319
     15 C         -10.4583   -5.8197   17.1309 C.ar    1  UNL1        0.0351
     16 C         -11.1056   -7.1511   17.3726 C.ar    1  UNL1        0.1737
     17 F         -10.3390   -8.4150   17.1181 F       1  UNL1       -0.2010
     18 C         -12.5196   -7.2186   17.8687 C.ar    1  UNL1        0.1654
     19 O         -13.1670   -8.5500   18.1104 O.3     1  UNL1       -0.4733
     20 C         -14.5809   -8.6174   18.6066 C.3     1  UNL1        0.2079
     21 C         -15.3476   -7.3534   18.8610 C.3     1  UNL1        0.0786
     22 S         -14.0529   -4.6907   18.3776 S.O2    1  UNL1        0.0093
     23 O         -14.1200   -4.3680   17.6518 O.2     1  UNL1       -0.1684
     24 O         -13.4232   -4.3488   19.6955 O.2     1  UNL1       -0.1684
     25 C         -13.4055   -3.3594   18.1360 C.ar    1  UNL1        0.1059
     26 C         -12.6040   -2.7067   19.2231 C.ar    1  UNL1        0.0192
     27 C         -11.9567   -1.3755   18.9814 C.ar    1  UNL1        0.0127
     28 C         -12.1107   -0.6967   17.6527 C.ar    1  UNL1        0.0578
     29 CL        -11.4633    0.6347   17.4110 Cl      1  UNL1       -0.0822
     30 C         -12.9121   -1.3493   16.5656 C.ar    1  UNL1        0.0127
     31 C         -13.5595   -2.6807   16.8072 C.ar    1  UNL1        0.0192
@<TRIPOS>BOND
     1     1     2    2
     2     2     3    1
     3     3     4    1
     4     4     5    1
     5     6     5    1
     6     6     7    1
     7     7     8    1
     8     8     9    1
     9     9    10    1
    10    10    22    1
    11    22    23    2
    12    22    24    2
    13    22    25    1
    14    25    26   ar
    15    26    27   ar
    16    27    28   ar
    17    28    29    1
    18    28    30   ar
    19    30    31   ar
    20    10    11    1
    21    11    12   ar
    22    12    13    1
    23    12    14   ar
    24    14    15   ar
    25    15    16   ar
    26    16    17    1
    27    16    18   ar
    28    18    19    1
    29    19    20    1
    30    21    20    1
    31     6     2    1
    32    21    10    1
    33    21     6    1
    34    31    25   ar
    35    18    11   ar
@<TRIPOS>MOLECULE
*****
 31 35 0 0 0
SMALL
GASTEIGER

@<TRIPOS>ATOM
      1 O         -11.6753   -1.1004   18.7904 O.2     1  UNL1       -0.2501
      2 C         -13.0311   -0.4909   18.5903 C.2     1  UNL1        0.3162
      3 O         -12.9766    1.0081   18.5755 O.3     1  UNL1       -0.4485
      4 C         -14.3714    1.5207   18.3713 C.3     1  UNL1        0.2090
      5 C         -15.2880    0.3386   18.2599 C.3     1  UNL1        0.0582
      6 C         -14.4596   -0.9046   18.3952 C.3     1  UNL1        0.0985
      7 C         -15.9229   -1.1654   18.1930 C.3     1  UNL1        0.0109
      8 C         -16.4335   -2.5749   18.1421 C.3     1  UNL1        0.0026
      9 C         -15.4808   -3.7236   18.2935 C.3     1  UNL1        0.0268
     10 C         -14.0176   -3.4628   18.4958 C.3     1  UNL1        0.1424
     11 C         -13.0648   -4.6115   18.6472 C.ar    1  UNL1        0.0616
     12 C         -13.5754   -6.0210   18.5964 C.ar    1  UNL1        0.1407
     13 F         -14.9334   -6.6316   18.4142 F       1  UNL1       -0.2043
     14 C         -12.6228   -7.1697   18.7478 C.ar    1  UNL1        0.0319
     15 C         -11.1596   -6.9089   18.9500 C.ar    1  UNL1        0.0351
     16 C         -10.6490   -5.4994   19.0009 C.ar    1  UNL1        0.1737
     17 F          -9.1857   -5.2386   19.2031 F       1  UNL1       -0.2010
     18 C         -11.6016   -4.3507   18.8495 C.ar    1  UNL1        0.1654
     19 O         -11.0911   -2.9411   18.9003 O.3     1  UNL1       -0.4733
     20 C         -12.0438   -1.7925   18.7489 C.3     1  UNL1        0.2079
     21 C         -13.5070   -2.0533   18.5466 C.3     1  UNL1        0.0786
     22 S         -14.5281   -4.8724   18.4450 S.O2    1  UNL1        0.0093
     23 O         -14.7558   -5.1628   17.7384 O.2     1  UNL1       -0.1684
     24 O         -14.4442   -5.3402   19.8677 O.2     1  UNL1       -0.1684
     25 C         -15.0386   -6.2819   18.3942 C.ar    1  UNL1        0.1059
     26 C         -15.6022   -6.9204   19.6290 C.ar    1  UNL1        0.0192
     27 C         -16.1127   -8.3299   19.5783 C.ar    1  UNL1        0.0127
     28 C         -16.0596   -9.1010   18.2927 C.ar    1  UNL1        0.0578
     29 CL        -16.5701  -10.5106   18.2419 Cl      1  UNL1       -0.0822
     30 C         -15.4961   -8.4625   17.0579 C.ar    1  UNL1        0.0127
     31 C         -14.9856   -7.0529   17.1087 C.ar    1  UNL1        0.0192
@<TRIPOS>BOND
     1     1     2    2
     2     2     3    1
     3     3     4    1
     4     4     5    1
     5     6     5    1
     6     6     7    1
     7     7     8    1
     8     8     9    1
     9     9    10    1
    10    10    22    1
    11    22    23    2
    12    22    24    2
    13    22    25    1
    14    25    26   ar
    15    26    27   ar
    16    27    28   ar
    17    28    29    1
    18    28    30   ar
    19    30    31   ar
    20    10    11    1
    21    11    12   ar
    22    12    13    1
    23    12    14   ar
    24    14    15   ar
    25    15    16   ar
    26    16    17    1
    27    16    18   ar
    28    18    19    1
    29    19    20    1
    30    21    20    1
    31     6     2    1
    32    21    10    1
    33    21     6    1
    34    31    25   ar
    35    18    11   ar
@<TRIPOS>MOLECULE
*****
 31 35 0 0 0
SMALL
GASTEIGER

@<TRIPOS>ATOM
      1 O         -10.6742  -16.1980   23.8383 O.2     1  UNL1       -0.2501
      2 C         -11.3317  -17.0972   22.8337 C.2     1  UNL1        0.3162
      3 O         -12.8259  -16.9670   22.8562 O.3     1  UNL1       -0.4485
      4 C         -13.3881  -17.8990   21.8241 C.3     1  UNL1        0.2090
      5 C         -12.2413  -18.6053   21.1637 C.3     1  UNL1        0.0582
      6 C         -10.9705  -18.1097   21.7876 C.3     1  UNL1        0.0985
      7 C         -10.7631  -19.1368   20.7143 C.3     1  UNL1        0.0109
      8 C          -9.3747  -19.5766   20.3552 C.3     1  UNL1        0.0026
      9 C          -8.1937  -18.9894   21.0695 C.3     1  UNL1        0.0268
     10 C          -8.4010  -17.9623   22.1428 C.3     1  UNL1        0.1424
     11 C          -7.2200  -17.3749   22.8572 C.ar    1  UNL1        0.0616
     12 C          -5.8316  -17.8147   22.4981 C.ar    1  UNL1        0.1407
     13 F          -5.2714  -18.7907   21.5063 F       1  UNL1       -0.2043
     14 C          -4.6505  -17.2275   23.2124 C.ar    1  UNL1        0.0319
     15 C          -4.8578  -16.2004   24.2857 C.ar    1  UNL1        0.0351
     16 C          -6.2462  -15.7606   24.6448 C.ar    1  UNL1        0.1737
     17 F          -6.4536  -14.7335   25.7181 F       1  UNL1       -0.2010
     18 C          -7.4273  -16.3478   23.9305 C.ar    1  UNL1        0.1654
     19 O          -8.8158  -15.9081   24.2896 O.3     1  UNL1       -0.4733
     20 C          -9.9967  -16.4954   23.5753 C.3     1  UNL1        0.2079
     21 C          -9.7894  -17.5225   22.5019 C.3     1  UNL1        0.0786
     22 S          -7.0126  -18.4021   21.7838 S.O2    1  UNL1        0.0093
     23 O          -6.5460  -17.8870   21.3933 O.2     1  UNL1       -0.1684
     24 O          -6.9251  -19.8006   22.3191 O.2     1  UNL1       -0.1684
     25 C          -5.6242  -18.8418   21.4248 C.ar    1  UNL1        0.1059
     26 C          -5.0372  -18.4634   20.0973 C.ar    1  UNL1        0.0192
     27 C          -3.6489  -18.9032   19.7383 C.ar    1  UNL1        0.0127
     28 C          -2.8474  -19.7214   20.7068 C.ar    1  UNL1        0.0578
     29 CL         -1.4589  -20.1613   20.3478 Cl      1  UNL1       -0.0822
     30 C          -3.4343  -20.0999   22.0343 C.ar    1  UNL1        0.0127
     31 C          -4.8227  -19.6601   22.3933 C.ar    1  UNL1        0.0192
@<TRIPOS>BOND
     1     1     2    2
     2     2     3    1
     3     3     4    1
     4     4     5    1
     5     6     5    1
     6     6     7    1
     7     7     8    1
     8     8     9    1
     9     9    10    1
    10    10    22    1
    11    22    23    2
    12    22    24    2
    13    22    25    1
    14    25    26   ar
    15    26    27   ar
    16    27    28   ar
    17    28    29    1
    18    28    30   ar
    19    30    31   ar
    20    10    11    1
    21    11    12   ar
    22    12    13    1
    23    12    14   ar
    24    14    15   ar
    25    15    16   ar
    26    16    17    1
    27    16    18   ar
    28    18    19    1
    29    19    20    1
    30    21    20    1
    31     6     2    1
    32    21    10    1
    33    21     6    1
    34    31    25   ar
    35    18    11   ar
@<TRIPOS>MOLECULE
*****
 31 35 0 0 0
SMALL
GASTEIGER

@<TRIPOS>ATOM
      1 O         -12.9064   -3.1159   19.6397 O.2     1  UNL1       -0.2501
      2 C         -11.9289   -4.1890   19.2617 C.2     1  UNL1        0.3162
      3 O         -10.5138   -3.6920   19.2807 O.3     1  UNL1       -0.4485
      4 C          -9.6175   -4.8301   18.8915 C.3     1  UNL1        0.2090
      5 C         -10.4786   -6.0305   18.6320 C.3     1  UNL1        0.0582
      6 C         -11.9072   -5.6343   18.8608 C.3     1  UNL1        0.0985
      7 C         -11.7293   -7.0661   18.4505 C.3     1  UNL1        0.0109
      8 C         -12.9260   -7.9585   18.3041 C.3     1  UNL1        0.0026
      9 C         -14.3006   -7.4192   18.5679 C.3     1  UNL1        0.0268
     10 C         -14.4785   -5.9874   18.9781 C.3     1  UNL1        0.1424
     11 C         -15.8531   -5.4479   19.2420 C.ar    1  UNL1        0.0616
     12 C         -17.0498   -6.3404   19.0956 C.ar    1  UNL1        0.1407
     13 F         -17.2365   -7.7790   18.7139 F       1  UNL1       -0.2043
     14 C         -18.4244   -5.8010   19.3594 C.ar    1  UNL1        0.0319
     15 C         -18.6022   -4.3692   19.7696 C.ar    1  UNL1        0.0351
     16 C         -17.4055   -3.4768   19.9160 C.ar    1  UNL1        0.1737
     17 F         -17.5834   -2.0450   20.3263 F       1  UNL1       -0.2010
     18 C         -16.0309   -4.0161   19.6522 C.ar    1  UNL1        0.1654
     19 O         -14.8341   -3.1237   19.7987 O.3     1  UNL1       -0.4733
     20 C         -13.4596   -3.6632   19.5348 C.3     1  UNL1        0.2079
     21 C         -13.2818   -5.0950   19.1246 C.3     1  UNL1        0.0786
     22 S         -15.6753   -6.8798   18.8317 S.O2    1  UNL1        0.0093
     23 O         -15.8762   -7.3410   19.4500 O.2     1  UNL1       -0.1684
     24 O         -16.1669   -6.6023   17.4420 O.2     1  UNL1       -0.1684
     25 C         -16.8720   -7.7721   18.6853 C.ar    1  UNL1        0.1059
     26 C         -17.4207   -8.4932   19.8807 C.ar    1  UNL1        0.0192
     27 C         -18.6174   -9.3854   19.7343 C.ar    1  UNL1        0.0127
     28 C         -19.2655   -9.5568   18.3924 C.ar    1  UNL1        0.0578
     29 CL        -20.4623  -10.4492   18.2458 Cl      1  UNL1       -0.0822
     30 C         -18.7168   -8.8358   17.1970 C.ar    1  UNL1        0.0127
     31 C         -17.5200   -7.9435   17.3434 C.ar    1  UNL1        0.0192
@<TRIPOS>BOND
     1     1     2    2
     2     2     3    1
     3     3     4    1
     4     4     5    1
     5     6     5    1
     6     6     7    1
     7     7     8    1
     8     8     9    1
     9     9    10    1
    10    10    22    1
    11    22    23    2
    12    22    24    2
    13    22    25    1
    14    25    26   ar
    15    26    27   ar
    16    27    28   ar
    17    28    29    1
    18    28    30   ar
    19    30    31   ar
    20    10    11    1
    21    11    12   ar
    22    12    13    1
    23    12    14   ar
    24    14    15   ar
    25    15    16   ar
    26    16    17    1
    27    16    18   ar
    28    18    19    1
    29    19    20    1
    30    21    20    1
    31     6     2    1
    32    21    10    1
    33    21     6    1
    34    31    25   ar
    35    18    11   ar
@<TRIPOS>MOLECULE
*****
 31 35 0 0 0
SMALL
GASTEIGER

@<TRIPOS>ATOM
      1 O         -10.3532  -19.6670   18.6144 O.2     1  UNL1       -0.2501
      2 C          -9.0665  -20.4205   18.7773 C.2     1  UNL1        0.3162
      3 O          -8.8375  -21.3903   17.6561 O.3     1  UNL1       -0.4485
      4 C          -7.5349  -22.0903   17.9074 C.3     1  UNL1        0.2090
      5 C          -6.9588  -21.5532   19.1840 C.3     1  UNL1        0.0582
      6 C          -7.9054  -20.5212   19.7216 C.3     1  UNL1        0.0985
      7 C          -6.6860  -20.7314   20.5695 C.3     1  UNL1        0.0109
      8 C          -6.5035  -19.9392   21.8301 C.3     1  UNL1        0.0026
      9 C          -7.5403  -18.9369   22.2428 C.3     1  UNL1        0.0268
     10 C          -8.7596  -18.7267   21.3949 C.3     1  UNL1        0.1424
     11 C          -9.7966  -17.7243   21.8075 C.ar    1  UNL1        0.0616
     12 C          -9.6140  -16.9321   23.0681 C.ar    1  UNL1        0.1407
     13 F          -8.5503  -16.8853   24.1246 F       1  UNL1       -0.2043
     14 C         -10.6508  -15.9298   23.4807 C.ar    1  UNL1        0.0319
     15 C         -11.8702  -15.7196   22.6328 C.ar    1  UNL1        0.0351
     16 C         -12.0527  -16.5118   21.3722 C.ar    1  UNL1        0.1737
     17 F         -13.2721  -16.3017   20.5243 F       1  UNL1       -0.2010
     18 C         -11.0159  -17.5142   20.9595 C.ar    1  UNL1        0.1654
     19 O         -11.1984  -18.3064   19.6989 O.3     1  UNL1       -0.4733
     20 C         -10.1615  -19.3087   19.2863 C.3     1  UNL1        0.2079
     21 C          -8.9422  -19.5189   20.1343 C.3     1  UNL1        0.0786
     22 S          -8.5772  -17.9344   22.6555 S.O2    1  UNL1        0.0093
     23 O          -8.8636  -18.2394   23.3340 O.2     1  UNL1       -0.1684
     24 O          -7.8465  -16.7033   22.2077 O.2     1  UNL1       -0.1684
     25 C          -8.3947  -17.1422   23.9160 C.ar    1  UNL1        0.1059
     26 C          -7.5828  -15.8810   23.8983 C.ar    1  UNL1        0.0192
     27 C          -7.4003  -15.0887   25.1587 C.ar    1  UNL1        0.0127
     28 C          -8.0297  -15.5576   26.4370 C.ar    1  UNL1        0.0578
     29 CL         -7.8472  -14.7654   27.6977 Cl      1  UNL1       -0.0822
     30 C          -8.8415  -16.8188   26.4548 C.ar    1  UNL1        0.0127
     31 C          -9.0240  -17.6111   25.1943 C.ar    1  UNL1        0.0192
@<TRIPOS>BOND
     1     1     2    2
     2     2     3    1
     3     3     4    1
     4     4     5    1
     5     6     5    1
     6     6     7    1
     7     7     8    1
     8     8     9    1
     9     9    10    1
    10    10    22    1
    11    22    23    2
    12    22    24    2
    13    22    25    1
    14    25    26   ar
    15    26    27   ar
    16    27    28   ar
    17    28    29    1
    18    28    30   ar
    19    30    31   ar
    20    10    11    1
    21    11    12   ar
    22    12    13    1
    23    12    14   ar
    24    14    15   ar
    25    15    16   ar
    26    16    17    1
    27    16    18   ar
    28    18    19    1
    29    19    20    1
    30    21    20    1
    31     6     2    1
    32    21    10    1
    33    21     6    1
    34    31    25   ar
    35    18    11   ar
@<TRIPOS>MOLECULE
*****
 31 35 0 0 0
SMALL
GASTEIGER

@<TRIPOS>ATOM
      1 O         -18.4536   -5.8880   19.9710 O.2     1  UNL1       -0.2501
      2 C         -18.2135   -7.3406   19.6840 C.2     1  UNL1        0.3162
      3 O         -19.4200   -8.1796   19.9850 O.3     1  UNL1       -0.4485
      4 C         -19.0830   -9.6065   19.6680 C.3     1  UNL1        0.2090
      5 C         -17.6684   -9.6494   19.1711 C.3     1  UNL1        0.0582
      6 C         -17.1310   -8.2490   19.1810 C.3     1  UNL1        0.0985
      7 C         -16.1503   -9.2754   18.6968 C.3     1  UNL1        0.0109
      8 C         -14.7723   -8.8569   18.2773 C.3     1  UNL1        0.0026
      9 C         -14.3750   -7.4119   18.3421 C.3     1  UNL1        0.0268
     10 C         -15.3558   -6.3854   18.8263 C.3     1  UNL1        0.1424
     11 C         -14.9586   -4.9404   18.8911 C.ar    1  UNL1        0.0616
     12 C         -13.5806   -4.5218   18.4717 C.ar    1  UNL1        0.1407
     13 F         -12.3810   -5.2574   17.9522 F       1  UNL1       -0.2043
     14 C         -13.1834   -3.0768   18.5364 C.ar    1  UNL1        0.0319
     15 C         -14.1642   -2.0504   19.0206 C.ar    1  UNL1        0.0351
     16 C         -15.5422   -2.4689   19.4401 C.ar    1  UNL1        0.1737
     17 F         -16.5230   -1.4425   19.9243 F       1  UNL1       -0.2010
     18 C         -15.9394   -3.9139   19.3753 C.ar    1  UNL1        0.1654
     19 O         -17.3174   -4.3326   19.7948 O.3     1  UNL1       -0.4733
     20 C         -17.7146   -5.7775   19.7300 C.3     1  UNL1        0.2079
     21 C         -16.7338   -6.8040   19.2458 C.3     1  UNL1        0.0786
     22 S         -13.9778   -5.9668   18.4069 S.O2    1  UNL1        0.0093
     23 O         -13.8286   -5.8983   17.6268 O.2     1  UNL1       -0.1684
     24 O         -13.2419   -5.7912   19.7021 O.2     1  UNL1       -0.1684
     25 C         -12.5999   -5.5482   17.9875 C.ar    1  UNL1        0.1059
     26 C         -11.4768   -5.5614   18.9818 C.ar    1  UNL1        0.0192
     27 C         -10.0989   -5.1428   18.5625 C.ar    1  UNL1        0.0127
     28 C          -9.8438   -4.7109   17.1488 C.ar    1  UNL1        0.0578
     29 CL         -8.4658   -4.2923   16.7293 Cl      1  UNL1       -0.0822
     30 C         -10.9668   -4.6978   16.1545 C.ar    1  UNL1        0.0127
     31 C         -12.3449   -5.1164   16.5738 C.ar    1  UNL1        0.0192
@<TRIPOS>BOND
     1     1     2    2
     2     2     3    1
     3     3     4    1
     4     4     5    1
     5     6     5    1
     6     6     7    1
     7     7     8    1
     8     8     9    1
     9     9    10    1
    10    10    22    1
    11    22    23    2
    12    22    24    2
    13    22    25    1
    14    25    26   ar
    15    26    27   ar
    16    27    28   ar
    17    28    29    1
    18    28    30   ar
    19    30    31   ar
    20    10    11    1
    21    11    12   ar
    22    12    13    1
    23    12    14   ar
    24    14    15   ar
    25    15    16   ar
    26    16    17    1
    27    16    18   ar
    28    18    19    1
    29    19    20    1
    30    21    20    1
    31     6     2    1
    32    21    10    1
    33    21     6    1
    34    31    25   ar
    35    18    11   ar
@<TRIPOS>MOLECULE
*****
 31 35 0 0 0
SMALL
GASTEIGER

@<TRIPOS>ATOM
      1 O         -13.1101   -6.8530   19.2412 O.2     1  UNL1       -0.2501
      2 C         -11.8605   -6.0422   19.0649 C.2     1  UNL1        0.3162
      3 O         -10.6366   -6.9061   18.9876 O.3     1  UNL1       -0.4485
      4 C          -9.4467   -6.0096   18.8126 C.3     1  UNL1        0.2090
      5 C          -9.9352   -4.5917   18.7819 C.3     1  UNL1        0.0582
      6 C         -11.4270   -4.6119   18.9378 C.3     1  UNL1        0.0985
      7 C         -10.8466   -3.2358   18.7985 C.3     1  UNL1        0.0109
      8 C         -11.7468   -2.0361   18.8230 C.3     1  UNL1        0.0026
      9 C         -13.2273   -2.2127   18.9868 C.3     1  UNL1        0.0268
     10 C         -13.8077   -3.5888   19.1260 C.3     1  UNL1        0.1424
     11 C         -15.2883   -3.7655   19.2898 C.ar    1  UNL1        0.0616
     12 C         -16.1885   -2.5659   19.3143 C.ar    1  UNL1        0.1407
     13 F         -15.9580   -1.0877   19.2055 F       1  UNL1       -0.2043
     14 C         -17.6690   -2.7424   19.4780 C.ar    1  UNL1        0.0319
     15 C         -18.2493   -4.1186   19.6173 C.ar    1  UNL1        0.0351
     16 C         -17.3491   -5.3182   19.5928 C.ar    1  UNL1        0.1737
     17 F         -17.9295   -6.6943   19.7321 F       1  UNL1       -0.2010
     18 C         -15.8686   -5.1416   19.4291 C.ar    1  UNL1        0.1654
     19 O         -14.9683   -6.3412   19.4046 O.3     1  UNL1       -0.4733
     20 C         -13.4878   -6.1646   19.2408 C.3     1  UNL1        0.2079
     21 C         -12.9075   -4.7884   19.1015 C.3     1  UNL1        0.0786
     22 S         -14.7080   -2.3892   19.1505 S.O2    1  UNL1        0.0093
     23 O         -14.8404   -2.0349   19.8522 O.2     1  UNL1       -0.1684
     24 O         -15.1165   -2.2129   17.7180 O.2     1  UNL1       -0.1684
     25 C         -15.6082   -1.1898   19.1750 C.ar    1  UNL1        0.1059
     26 C         -16.1527   -0.6344   17.8923 C.ar    1  UNL1        0.0192
     27 C         -17.0530    0.5651   17.9167 C.ar    1  UNL1        0.0127
     28 C         -17.4088    1.2093   19.2238 C.ar    1  UNL1        0.0578
     29 CL        -18.3091    2.4089   19.2483 Cl      1  UNL1       -0.0822
     30 C         -16.8643    0.6540   20.5064 C.ar    1  UNL1        0.0127
     31 C         -15.9640   -0.5455   20.4820 C.ar    1  UNL1        0.0192
@<TRIPOS>BOND
     1     1     2    2
     2     2     3    1
     3     3     4    1
     4     4     5    1
     5     6     5    1
     6     6     7    1
     7     7     8    1
     8     8     9    1
     9     9    10    1
    10    10    22    1
    11    22    23    2
    12    22    24    2
    13    22    25    1
    14    25    26   ar
    15    26    27   ar
    16    27    28   ar
    17    28    29    1
    18    28    30   ar
    19    30    31   ar
    20    10    11    1
    21    11    12   ar
    22    12    13    1
    23    12    14   ar
    24    14    15   ar
    25    15    16   ar
    26    16    17    1
    27    16    18   ar
    28    18    19    1
    29    19    20    1
    30    21    20    1
    31     6     2    1
    32    21    10    1
    33    21     6    1
    34    31    25   ar
    35    18    11   ar
@<TRIPOS>MOLECULE
*****
 31 35 0 0 0
SMALL
GASTEIGER

@<TRIPOS>ATOM
      1 O         -15.2842    0.3060   18.8039 O.2     1  UNL1       -0.2501
      2 C         -14.1722    0.9972   18.0721 C.2     1  UNL1        0.3162
      3 O         -14.4740    2.4466   17.8308 O.3     1  UNL1       -0.4485
      4 C         -13.3106    3.0467   17.0983 C.3     1  UNL1        0.2090
      5 C         -12.2898    1.9682   16.8869 C.3     1  UNL1        0.0582
      6 C         -12.8222    0.7016   17.4888 C.3     1  UNL1        0.0985
      7 C         -11.4671    0.5568   16.8623 C.3     1  UNL1        0.0109
      8 C         -10.7716   -0.7722   16.8780 C.3     1  UNL1        0.0026
      9 C         -11.4314   -1.9563   17.5202 C.3     1  UNL1        0.0268
     10 C         -12.7866   -1.8116   18.1467 C.3     1  UNL1        0.1424
     11 C         -13.4465   -2.9957   18.7889 C.ar    1  UNL1        0.0616
     12 C         -12.7510   -4.3247   18.8046 C.ar    1  UNL1        0.1407
     13 F         -11.4311   -4.8163   18.2887 F       1  UNL1       -0.2043
     14 C         -13.4108   -5.5089   19.4468 C.ar    1  UNL1        0.0319
     15 C         -14.7660   -5.3641   20.0733 C.ar    1  UNL1        0.0351
     16 C         -15.4614   -4.0351   20.0576 C.ar    1  UNL1        0.1737
     17 F         -16.8166   -3.8903   20.6840 F       1  UNL1       -0.2010
     18 C         -14.8017   -2.8509   19.4154 C.ar    1  UNL1        0.1654
     19 O         -15.4970   -1.5219   19.3996 O.3     1  UNL1       -0.4733
     20 C         -14.8372   -0.3378   18.7574 C.3     1  UNL1        0.2079
     21 C         -13.4820   -0.4826   18.1309 C.3     1  UNL1        0.0786
     22 S         -12.0912   -3.1406   18.1624 S.O2    1  UNL1        0.0093
     23 O         -11.8149   -3.4102   18.8598 O.2     1  UNL1       -0.1684
     24 O         -12.1356   -3.5903   16.7320 O.2     1  UNL1       -0.1684
     25 C         -11.3959   -4.4695   18.1781 C.ar    1  UNL1        0.1059
     26 C         -10.3102   -4.7362   19.1782 C.ar    1  UNL1        0.0192
     27 C          -9.6149   -6.0651   19.1939 C.ar    1  UNL1        0.0127
     28 C         -10.0052   -7.1275   18.2095 C.ar    1  UNL1        0.0578
     29 CL         -9.3099   -8.4566   18.2251 Cl      1  UNL1       -0.0822
     30 C         -11.0909   -6.8609   17.2094 C.ar    1  UNL1        0.0127
     31 C         -11.7863   -5.5319   17.1937 C.ar    1  UNL1        0.0192
@<TRIPOS>BOND
     1     1     2    2
     2     2     3    1
     3     3     4    1
     4     4     5    1
     5     6     5    1
     6     6     7    1
     7     7     8    1
     8     8     9    1
     9     9    10    1
    10    10    22    1
    11    22    23    2
    12    22    24    2
    13    22    25    1
    14    25    26   ar
    15    26    27   ar
    16    27    28   ar
    17    28    29    1
    18    28    30   ar
    19    30    31   ar
    20    10    11    1
    21    11    12   ar
    22    12    13    1
    23    12    14   ar
    24    14    15   ar
    25    15    16   ar
    26    16    17    1
    27    16    18   ar
    28    18    19    1
    29    19    20    1
    30    21    20    1
    31     6     2    1
    32    21    10    1
    33    21     6    1
    34    31    25   ar
    35    18    11   ar
