@<TRIPOS>MOLECULE
*****
 31 33 0 0 0
SMALL
GASTEIGER

@<TRIPOS>ATOM
      1 C          -7.1516  -19.9037   20.5093 C.ar    1  UNL1        0.1384
      2 C          -7.4085  -20.6000   19.2058 C.ar    1  UNL1        0.0608
      3 C          -8.7485  -20.4798   18.5427 C.ar    1  UNL1        0.1023
      4 N          -9.8317  -19.6633   19.1831 N.ar    1  UNL1       -0.2435
      5 C          -9.5748  -18.9670   20.4866 C.ar    1  UNL1        0.0877
      6 C         -10.6580  -18.1506   21.1270 C.ar    1  UNL1        0.0574
      7 C         -10.4011  -17.4543   22.4305 C.ar    1  UNL1        0.1571
      8 C          -9.0610  -17.5745   23.0937 C.ar    1  UNL1        0.1395
      9 C          -7.9778  -18.3910   22.4533 C.ar    1  UNL1        0.0263
     10 C          -8.2348  -19.0873   21.1497 C.ar    1  UNL1        0.0560
     11 S          -8.8041  -16.8783   24.3972 S.O2    1  UNL1        0.0083
     12 O          -9.4896  -17.9942   25.1284 O.2     1  UNL1       -0.1686
     13 O          -8.1186  -15.7623   23.6661 O.2     1  UNL1       -0.1686
     14 C          -8.5472  -16.1820   25.7008 C.3     1  UNL1        0.1152
     15 C          -9.0859  -17.3699   26.4415 C.3     1  UNL1        0.0240
     16 C          -8.0085  -14.9941   24.9601 C.3     1  UNL1        0.0240
     17 C          -8.2903  -15.4857   27.0043 C.3     1  UNL1        0.0240
     18 N          -5.8115  -20.0240   21.1725 N.pl3   1  UNL1       -0.2004
     19 H          -5.6595  -20.7193   21.8527 H       1  UNL1        0.2982
     20 C          -1.7627  -16.6506   21.5029 C.3     1  UNL1        0.0519
     21 C          -2.8420  -17.5342   20.9511 C.2     1  UNL1        0.0948
     22 N          -3.1527  -17.7447   19.4988 N.2     1  UNL1       -0.0428
     23 N          -4.3028  -18.7030   19.4050 N.2     1  UNL1        0.0753
     24 C          -4.7031  -19.0847   20.7993 C.2     1  UNL1        0.3331
     25 C          -3.8002  -18.3624   21.7548 C.3     1  UNL1        0.1480
     26 C          -3.8473  -18.4524   23.2514 C.3     1  UNL1        0.0190
     27 O         -11.4843  -16.6378   23.0709 O.3     1  UNL1       -0.4714
     28 C         -12.8994  -17.1350   23.0678 C.3     1  UNL1        0.2370
     29 C         -13.3532  -18.1127   24.1109 C.3     1  UNL1        0.1847
     30 O         -12.3466  -18.7873   24.9951 O.3     1  UNL1       -0.3784
     31 H         -11.7851  -19.3697   24.4599 H       1  UNL1        0.2106
@<TRIPOS>BOND
     1    20    21    1
     2    21    22    2
     3    22    23    1
     4    23    24    2
     5    24    18    1
     6    18     1    1
     7     1     2   ar
     8     2     3   ar
     9     3     4   ar
    10     4     5   ar
    11     5     6   ar
    12     6     7   ar
    13     7    27    1
    14    27    28    1
    15    28    29    1
    16    29    30    1
    17     7     8   ar
    18     8    11    1
    19    11    12    2
    20    11    13    2
    21    11    14    1
    22    14    15    1
    23    14    16    1
    24    14    17    1
    25     8     9   ar
    26     9    10   ar
    27    24    25    1
    28    25    26    1
    29    25    21    1
    30    10     1   ar
    31    10     5   ar
    32    18    19    1
    33    30    31    1
@<TRIPOS>MOLECULE
*****
 31 33 0 0 0
SMALL
GASTEIGER

@<TRIPOS>ATOM
      1 C          -5.7678  -15.7855   24.5273 C.ar    1  UNL1        0.1384
      2 C          -5.5390  -15.0931   25.8382 C.ar    1  UNL1        0.0608
      3 C          -6.6134  -15.0954   26.8849 C.ar    1  UNL1        0.1023
      4 N          -7.9164  -15.7900   26.6209 N.ar    1  UNL1       -0.2435
      5 C          -8.1451  -16.4823   25.3101 C.ar    1  UNL1        0.0877
      6 C          -9.4481  -17.1769   25.0460 C.ar    1  UNL1        0.0574
      7 C          -9.6768  -17.8692   23.7352 C.ar    1  UNL1        0.1571
      8 C          -8.6025  -17.8670   22.6883 C.ar    1  UNL1        0.1395
      9 C          -7.2995  -17.1724   22.9524 C.ar    1  UNL1        0.0263
     10 C          -7.0708  -16.4800   24.2633 C.ar    1  UNL1        0.0560
     11 S          -8.8312  -18.5593   21.3775 S.O2    1  UNL1        0.0083
     12 O          -9.5318  -17.3400   20.8557 O.2     1  UNL1       -0.1686
     13 O          -8.1306  -19.7787   21.8993 O.2     1  UNL1       -0.1686
     14 C          -9.0599  -19.2517   20.0666 C.3     1  UNL1        0.1152
     15 C          -7.6090  -19.6283   20.0125 C.3     1  UNL1        0.0240
     16 C         -10.5108  -18.8751   20.1208 C.3     1  UNL1        0.0240
     17 C          -9.2885  -19.9441   18.7558 C.3     1  UNL1        0.0240
     18 N          -4.6934  -15.7833   23.4805 N.pl3   1  UNL1       -0.2004
     19 H          -4.4110  -14.9357   23.0667 H       1  UNL1        0.2982
     20 C          -1.3990  -19.2656   21.2667 C.3     1  UNL1        0.0519
     21 C          -2.5351  -18.6731   22.0464 C.2     1  UNL1        0.0948
     22 N          -3.5817  -19.4393   22.7998 N.2     1  UNL1       -0.0428
     23 N          -4.5176  -18.4500   23.4287 N.2     1  UNL1        0.0753
     24 C          -4.0494  -17.0724   23.0640 C.2     1  UNL1        0.3331
     25 C          -2.8242  -17.2103   22.2097 C.3     1  UNL1        0.1480
     26 C          -2.0278  -16.0832   21.6219 C.3     1  UNL1        0.0190
     27 O         -10.9798  -18.5638   23.4712 O.3     1  UNL1       -0.4714
     28 C         -12.2613  -17.7843   23.4840 C.3     1  UNL1        0.2370
     29 C         -12.4942  -16.7070   22.4665 C.3     1  UNL1        0.1847
     30 O         -11.5227  -15.5710   22.3413 O.3     1  UNL1       -0.3784
     31 H         -11.5436  -15.0370   23.1508 H       1  UNL1        0.2106
@<TRIPOS>BOND
     1    20    21    1
     2    21    22    2
     3    22    23    1
     4    23    24    2
     5    24    18    1
     6    18     1    1
     7     1     2   ar
     8     2     3   ar
     9     3     4   ar
    10     4     5   ar
    11     5     6   ar
    12     6     7   ar
    13     7    27    1
    14    27    28    1
    15    28    29    1
    16    29    30    1
    17     7     8   ar
    18     8    11    1
    19    11    12    2
    20    11    13    2
    21    11    14    1
    22    14    15    1
    23    14    16    1
    24    14    17    1
    25     8     9   ar
    26     9    10   ar
    27    24    25    1
    28    25    26    1
    29    25    21    1
    30    10     1   ar
    31    10     5   ar
    32    18    19    1
    33    30    31    1
@<TRIPOS>MOLECULE
*****
 31 33 0 0 0
SMALL
GASTEIGER

@<TRIPOS>ATOM
      1 C          -5.0761  -16.9175   24.3532 C.ar    1  UNL1        0.1384
      2 C          -4.7503  -16.0068   25.4996 C.ar    1  UNL1        0.0608
      3 C          -5.8055  -15.1003   26.0606 C.ar    1  UNL1        0.1023
      4 N          -7.1866  -15.1046   25.4752 N.ar    1  UNL1       -0.2435
      5 C          -7.5124  -16.0154   24.3288 C.ar    1  UNL1        0.0877
      6 C          -8.8935  -16.0196   23.7434 C.ar    1  UNL1        0.0574
      7 C          -9.2193  -16.9304   22.5969 C.ar    1  UNL1        0.1571
      8 C          -8.1640  -17.8369   22.0359 C.ar    1  UNL1        0.1395
      9 C          -6.7830  -17.8326   22.6213 C.ar    1  UNL1        0.0263
     10 C          -6.4572  -16.9218   23.7678 C.ar    1  UNL1        0.0560
     11 S          -8.4899  -18.7476   20.8894 S.O2    1  UNL1        0.0083
     12 O          -7.2411  -18.3073   20.1847 O.2     1  UNL1       -0.1686
     13 O          -9.7386  -19.1880   21.5941 O.2     1  UNL1       -0.1686
     14 C          -8.8157  -19.6584   19.7430 C.3     1  UNL1        0.1152
     15 C         -10.2704  -19.5904   20.1024 C.3     1  UNL1        0.0240
     16 C          -7.3611  -19.7265   19.3835 C.3     1  UNL1        0.0240
     17 C          -9.1417  -20.5692   18.5966 C.3     1  UNL1        0.0240
     18 N          -4.0209  -17.8241   23.7921 N.pl3   1  UNL1       -0.2004
     19 H          -3.8722  -18.7121   24.1904 H       1  UNL1        0.2982
     20 C          -0.9696  -17.8872   19.4832 C.3     1  UNL1        0.0519
     21 C          -1.7897  -17.4066   20.6435 C.2     1  UNL1        0.0948
     22 N          -2.0444  -15.9746   21.0102 N.2     1  UNL1       -0.0428
     23 N          -2.9112  -15.9567   22.2343 N.2     1  UNL1        0.0753
     24 C          -3.1923  -17.3776   22.6242 C.2     1  UNL1        0.3331
     25 C          -2.4991  -18.2737   21.6410 C.3     1  UNL1        0.1480
     26 C          -2.5129  -19.7736   21.6531 C.3     1  UNL1        0.0190
     27 O         -10.6003  -16.9346   22.0115 O.3     1  UNL1       -0.4714
     28 C         -10.9785  -15.9191   20.9745 C.3     1  UNL1        0.2370
     29 C         -11.9548  -16.2783   19.8939 C.3     1  UNL1        0.1847
     30 O         -12.2849  -15.2840   18.8204 O.3     1  UNL1       -0.3784
     31 H         -12.7477  -14.5269   19.2122 H       1  UNL1        0.2106
@<TRIPOS>BOND
     1    20    21    1
     2    21    22    2
     3    22    23    1
     4    23    24    2
     5    24    18    1
     6    18     1    1
     7     1     2   ar
     8     2     3   ar
     9     3     4   ar
    10     4     5   ar
    11     5     6   ar
    12     6     7   ar
    13     7    27    1
    14    27    28    1
    15    28    29    1
    16    29    30    1
    17     7     8   ar
    18     8    11    1
    19    11    12    2
    20    11    13    2
    21    11    14    1
    22    14    15    1
    23    14    16    1
    24    14    17    1
    25     8     9   ar
    26     9    10   ar
    27    24    25    1
    28    25    26    1
    29    25    21    1
    30    10     1   ar
    31    10     5   ar
    32    18    19    1
    33    30    31    1
@<TRIPOS>MOLECULE
*****
 31 33 0 0 0
SMALL
GASTEIGER

@<TRIPOS>ATOM
      1 C          -8.6758  -16.9822   23.9355 C.ar    1  UNL1        0.1384
      2 C          -9.1946  -15.9450   24.8867 C.ar    1  UNL1        0.0608
      3 C          -8.2427  -14.9998   25.5578 C.ar    1  UNL1        0.1023
      4 N          -6.7720  -15.0918   25.2776 N.ar    1  UNL1       -0.2435
      5 C          -6.2532  -16.1291   24.3264 C.ar    1  UNL1        0.0877
      6 C          -4.7825  -16.2211   24.0462 C.ar    1  UNL1        0.0574
      7 C          -4.2636  -17.2583   23.0949 C.ar    1  UNL1        0.1571
      8 C          -5.2156  -18.2036   22.4238 C.ar    1  UNL1        0.1395
      9 C          -6.6863  -18.1116   22.7040 C.ar    1  UNL1        0.0263
     10 C          -7.2051  -17.0743   23.6553 C.ar    1  UNL1        0.0560
     11 S          -4.6968  -19.2408   21.4725 S.O2    1  UNL1        0.0083
     12 O          -5.2397  -18.4530   20.3174 O.2     1  UNL1       -0.1686
     13 O          -4.1538  -20.0287   22.6277 O.2     1  UNL1       -0.1686
     14 C          -4.1779  -20.2782   20.5213 C.3     1  UNL1        0.1152
     15 C          -2.7799  -20.0147   20.9966 C.3     1  UNL1        0.0240
     16 C          -5.5760  -20.5416   20.0459 C.3     1  UNL1        0.0240
     17 C          -3.6590  -21.3154   19.5701 C.3     1  UNL1        0.0240
     18 N          -9.6278  -17.9275   23.2643 N.pl3   1  UNL1       -0.2004
     19 H          -9.9128  -18.7492   23.7257 H       1  UNL1        0.2982
     20 C         -12.4425  -15.8603   19.3039 C.3     1  UNL1        0.0519
     21 C         -11.4392  -16.6706   20.0698 C.2     1  UNL1        0.0948
     22 N         -10.4446  -17.6272   19.4817 N.2     1  UNL1       -0.0428
     23 N          -9.6450  -18.2144   20.6068 N.2     1  UNL1        0.0753
     24 C         -10.1454  -17.6208   21.8903 C.2     1  UNL1        0.3331
     25 C         -11.2542  -16.6667   21.5584 C.3     1  UNL1        0.1480
     26 C         -12.0401  -15.8518   22.5423 C.3     1  UNL1        0.0190
     27 O          -2.7929  -17.3503   22.8147 O.3     1  UNL1       -0.4714
     28 C          -2.1312  -16.3293   21.9375 C.3     1  UNL1        0.2370
     29 C          -1.7542  -16.6820   20.5291 C.3     1  UNL1        0.1847
     30 O          -2.8220  -16.9852   19.5203 O.3     1  UNL1       -0.3784
     31 H          -3.2840  -17.7997   19.7734 H       1  UNL1        0.2106
@<TRIPOS>BOND
     1    20    21    1
     2    21    22    2
     3    22    23    1
     4    23    24    2
     5    24    18    1
     6    18     1    1
     7     1     2   ar
     8     2     3   ar
     9     3     4   ar
    10     4     5   ar
    11     5     6   ar
    12     6     7   ar
    13     7    27    1
    14    27    28    1
    15    28    29    1
    16    29    30    1
    17     7     8   ar
    18     8    11    1
    19    11    12    2
    20    11    13    2
    21    11    14    1
    22    14    15    1
    23    14    16    1
    24    14    17    1
    25     8     9   ar
    26     9    10   ar
    27    24    25    1
    28    25    26    1
    29    25    21    1
    30    10     1   ar
    31    10     5   ar
    32    18    19    1
    33    30    31    1
@<TRIPOS>MOLECULE
*****
 31 33 0 0 0
SMALL
GASTEIGER

@<TRIPOS>ATOM
      1 C          -5.2977  -16.8973   24.1972 C.ar    1  UNL1        0.1384
      2 C          -4.8386  -16.0102   25.3163 C.ar    1  UNL1        0.0608
      3 C          -5.8091  -15.0809   25.9829 C.ar    1  UNL1        0.1023
      4 N          -7.2386  -15.0386   25.5305 N.ar    1  UNL1       -0.2435
      5 C          -7.6977  -15.9256   24.4114 C.ar    1  UNL1        0.0877
      6 C          -9.1272  -15.8833   23.9589 C.ar    1  UNL1        0.0574
      7 C          -9.5862  -16.7703   22.8399 C.ar    1  UNL1        0.1571
      8 C          -8.6157  -17.6997   22.1732 C.ar    1  UNL1        0.1395
      9 C          -7.1862  -17.7421   22.6256 C.ar    1  UNL1        0.0263
     10 C          -6.7272  -16.8549   23.7448 C.ar    1  UNL1        0.0560
     11 S          -9.0748  -18.5868   21.0541 S.O2    1  UNL1        0.0083
     12 O          -8.4399  -19.7665   21.7288 O.2     1  UNL1       -0.1686
     13 O          -9.7096  -17.4071   20.3794 O.2     1  UNL1       -0.1686
     14 C          -9.5339  -19.4738   19.9349 C.3     1  UNL1        0.1152
     15 C          -8.1226  -19.5763   19.4373 C.3     1  UNL1        0.0240
     16 C         -10.9452  -19.3713   20.4325 C.3     1  UNL1        0.0240
     17 C          -9.9929  -20.3608   18.8158 C.3     1  UNL1        0.0240
     18 N          -4.3272  -17.8267   23.5305 N.pl3   1  UNL1       -0.2004
     19 H          -4.3481  -18.7895   23.7348 H       1  UNL1        0.2982
     20 C          -0.5427  -17.5500   19.8587 C.3     1  UNL1        0.0519
     21 C          -1.5854  -17.1619   20.8648 C.2     1  UNL1        0.0948
     22 N          -1.9797  -15.7616   21.2305 N.2     1  UNL1       -0.0428
     23 N          -3.0548  -15.8402   22.2735 N.2     1  UNL1        0.0753
     24 C          -3.3249  -17.2891   22.5526 C.2     1  UNL1        0.3331
     25 C          -2.4168  -18.1059   21.6819 C.3     1  UNL1        0.1480
     26 C          -2.3514  -19.6038   21.6364 C.3     1  UNL1        0.0190
     27 O         -11.0157  -16.7280   22.3874 O.3     1  UNL1       -0.4714
     28 C         -12.0884  -17.3495   23.2318 C.3     1  UNL1        0.2370
     29 C         -11.8767  -18.7070   23.8338 C.3     1  UNL1        0.1847
     30 O         -11.2379  -18.8371   25.1847 O.3     1  UNL1       -0.3784
     31 H         -10.3173  -18.5352   25.1374 H       1  UNL1        0.2106
@<TRIPOS>BOND
     1    20    21    1
     2    21    22    2
     3    22    23    1
     4    23    24    2
     5    24    18    1
     6    18     1    1
     7     1     2   ar
     8     2     3   ar
     9     3     4   ar
    10     4     5   ar
    11     5     6   ar
    12     6     7   ar
    13     7    27    1
    14    27    28    1
    15    28    29    1
    16    29    30    1
    17     7     8   ar
    18     8    11    1
    19    11    12    2
    20    11    13    2
    21    11    14    1
    22    14    15    1
    23    14    16    1
    24    14    17    1
    25     8     9   ar
    26     9    10   ar
    27    24    25    1
    28    25    26    1
    29    25    21    1
    30    10     1   ar
    31    10     5   ar
    32    18    19    1
    33    30    31    1
@<TRIPOS>MOLECULE
*****
 31 33 0 0 0
SMALL
GASTEIGER

@<TRIPOS>ATOM
      1 C          -7.5214  -15.7159   24.0200 C.ar    1  UNL1        0.1384
      2 C          -7.0608  -14.7634   25.0833 C.ar    1  UNL1        0.0608
      3 C          -5.6560  -14.8420   25.6031 C.ar    1  UNL1        0.1023
      4 N          -4.7118  -15.8730   25.0597 N.ar    1  UNL1       -0.2435
      5 C          -5.1723  -16.8255   23.9964 C.ar    1  UNL1        0.0877
      6 C          -4.2280  -17.8565   23.4530 C.ar    1  UNL1        0.0574
      7 C          -4.6885  -18.8090   22.3897 C.ar    1  UNL1        0.1571
      8 C          -6.0934  -18.7305   21.8698 C.ar    1  UNL1        0.1395
      9 C          -7.0377  -17.6995   22.4132 C.ar    1  UNL1        0.0263
     10 C          -6.5771  -16.7470   23.4766 C.ar    1  UNL1        0.0560
     11 S          -6.5539  -19.6830   20.8065 S.O2    1  UNL1        0.0083
     12 O          -6.5911  -20.7919   21.8159 O.2     1  UNL1       -0.1686
     13 O          -6.5168  -18.5741   19.7971 O.2     1  UNL1       -0.1686
     14 C          -7.0145  -20.6355   19.7431 C.3     1  UNL1        0.1152
     15 C          -8.1230  -19.6929   19.3790 C.3     1  UNL1        0.0240
     16 C          -5.9060  -21.5781   20.1073 C.3     1  UNL1        0.0240
     17 C          -7.4750  -21.5880   18.6798 C.3     1  UNL1        0.0240
     18 N          -8.9262  -15.6374   23.5000 N.pl3   1  UNL1       -0.2004
     19 H          -9.1972  -14.8852   22.9256 H       1  UNL1        0.2982
     20 C         -13.3577  -18.4993   23.7295 C.3     1  UNL1        0.0519
     21 C         -11.9551  -18.0205   23.9608 C.2     1  UNL1        0.0948
     22 N         -10.9341  -18.6755   24.8433 N.2     1  UNL1       -0.0428
     23 N          -9.6753  -17.8624   24.7781 N.2     1  UNL1        0.0753
     24 C          -9.9182  -16.7050   23.8553 C.2     1  UNL1        0.3331
     25 C         -11.3272  -16.8028   23.3502 C.3     1  UNL1        0.1480
     26 C         -11.9917  -15.8500   22.4012 C.3     1  UNL1        0.0190
     27 O          -3.7442  -19.8401   21.8463 O.3     1  UNL1       -0.4714
     28 C          -2.7025  -19.4473   20.8411 C.3     1  UNL1        0.2370
     29 C          -3.1024  -19.1345   19.4297 C.3     1  UNL1        0.1847
     30 O          -3.8167  -17.8526   19.1191 O.3     1  UNL1       -0.3784
     31 H          -4.6916  -17.8604   19.5378 H       1  UNL1        0.2106
@<TRIPOS>BOND
     1    20    21    1
     2    21    22    2
     3    22    23    1
     4    23    24    2
     5    24    18    1
     6    18     1    1
     7     1     2   ar
     8     2     3   ar
     9     3     4   ar
    10     4     5   ar
    11     5     6   ar
    12     6     7   ar
    13     7    27    1
    14    27    28    1
    15    28    29    1
    16    29    30    1
    17     7     8   ar
    18     8    11    1
    19    11    12    2
    20    11    13    2
    21    11    14    1
    22    14    15    1
    23    14    16    1
    24    14    17    1
    25     8     9   ar
    26     9    10   ar
    27    24    25    1
    28    25    26    1
    29    25    21    1
    30    10     1   ar
    31    10     5   ar
    32    18    19    1
    33    30    31    1
@<TRIPOS>MOLECULE
*****
 31 33 0 0 0
SMALL
GASTEIGER

@<TRIPOS>ATOM
      1 C          -7.6931  -16.1489   24.4231 C.ar    1  UNL1        0.1384
      2 C          -7.2623  -15.1594   25.4649 C.ar    1  UNL1        0.0608
      3 C          -5.8040  -14.9664   25.7582 C.ar    1  UNL1        0.1023
      4 N          -4.7766  -15.7628   25.0098 N.ar    1  UNL1       -0.2435
      5 C          -5.2074  -16.7523   23.9681 C.ar    1  UNL1        0.0877
      6 C          -4.1800  -17.5487   23.2197 C.ar    1  UNL1        0.0574
      7 C          -4.6108  -18.5381   22.1779 C.ar    1  UNL1        0.1571
      8 C          -6.0692  -18.7312   21.8845 C.ar    1  UNL1        0.1395
      9 C          -7.0966  -17.9348   22.6329 C.ar    1  UNL1        0.0263
     10 C          -6.6657  -16.9453   23.6747 C.ar    1  UNL1        0.0560
     11 S          -6.5000  -19.7206   20.8427 S.O2    1  UNL1        0.0083
     12 O          -6.4883  -20.8106   21.8731 O.2     1  UNL1       -0.1686
     13 O          -6.5117  -18.6306   19.8123 O.2     1  UNL1       -0.1686
     14 C          -6.9309  -20.7101   19.8009 C.3     1  UNL1        0.1152
     15 C          -8.0837  -19.8228   19.4350 C.3     1  UNL1        0.0240
     16 C          -5.7781  -21.5973   20.1667 C.3     1  UNL1        0.0240
     17 C          -7.3618  -21.6995   18.7590 C.3     1  UNL1        0.0240
     18 N          -9.1515  -16.3419   24.1297 N.pl3   1  UNL1       -0.2004
     19 H          -9.7591  -16.6544   24.8385 H       1  UNL1        0.2982
     20 C         -12.3126  -16.1850   19.9031 C.3     1  UNL1        0.0519
     21 C         -11.1370  -15.9868   20.8135 C.2     1  UNL1        0.0948
     22 N          -9.8701  -15.2599   20.4720 N.2     1  UNL1       -0.0428
     23 N          -8.9721  -15.3045   21.6727 N.2     1  UNL1        0.0753
     24 C          -9.6840  -16.0589   22.7563 C.2     1  UNL1        0.3331
     25 C         -11.0220  -16.4805   22.2252 C.3     1  UNL1        0.1480
     26 C         -12.0624  -17.2592   22.9744 C.3     1  UNL1        0.0190
     27 O          -3.5834  -19.3345   21.4295 O.3     1  UNL1       -0.4714
     28 C          -2.9464  -18.7663   20.1961 C.3     1  UNL1        0.2370
     29 C          -1.7298  -17.8967   20.3128 C.3     1  UNL1        0.1847
     30 O          -0.6555  -18.2389   21.3021 O.3     1  UNL1       -0.3784
     31 H          -1.0051  -18.1506   22.2026 H       1  UNL1        0.2106
@<TRIPOS>BOND
     1    20    21    1
     2    21    22    2
     3    22    23    1
     4    23    24    2
     5    24    18    1
     6    18     1    1
     7     1     2   ar
     8     2     3   ar
     9     3     4   ar
    10     4     5   ar
    11     5     6   ar
    12     6     7   ar
    13     7    27    1
    14    27    28    1
    15    28    29    1
    16    29    30    1
    17     7     8   ar
    18     8    11    1
    19    11    12    2
    20    11    13    2
    21    11    14    1
    22    14    15    1
    23    14    16    1
    24    14    17    1
    25     8     9   ar
    26     9    10   ar
    27    24    25    1
    28    25    26    1
    29    25    21    1
    30    10     1   ar
    31    10     5   ar
    32    18    19    1
    33    30    31    1
@<TRIPOS>MOLECULE
*****
 31 33 0 0 0
SMALL
GASTEIGER

@<TRIPOS>ATOM
      1 C          -9.2879  -19.2612   19.4351 C.ar    1  UNL1        0.1384
      2 C          -9.4651  -20.3296   18.3973 C.ar    1  UNL1        0.0608
      3 C          -8.4233  -21.3962   18.2336 C.ar    1  UNL1        0.1023
      4 N          -7.2043  -21.3945   19.1078 N.ar    1  UNL1       -0.2435
      5 C          -7.0272  -20.3261   20.1456 C.ar    1  UNL1        0.0877
      6 C          -5.8082  -20.3243   21.0197 C.ar    1  UNL1        0.0574
      7 C          -5.6310  -19.2559   22.0575 C.ar    1  UNL1        0.1571
      8 C          -6.6728  -18.1892   22.2212 C.ar    1  UNL1        0.1395
      9 C          -7.8918  -18.1909   21.3471 C.ar    1  UNL1        0.0263
     10 C          -8.0690  -19.2594   20.3092 C.ar    1  UNL1        0.0560
     11 S          -6.4957  -17.1208   23.2590 S.O2    1  UNL1        0.0083
     12 O          -5.0642  -16.9540   22.8429 O.2     1  UNL1       -0.1686
     13 O          -7.9271  -17.2876   23.6751 O.2     1  UNL1       -0.1686
     14 C          -6.3185  -16.0523   24.2969 C.3     1  UNL1        0.1152
     15 C          -4.8362  -16.0765   24.0687 C.3     1  UNL1        0.0240
     16 C          -7.8008  -16.0282   24.5251 C.3     1  UNL1        0.0240
     17 C          -6.1413  -14.9839   25.3347 C.3     1  UNL1        0.0240
     18 N         -10.3298  -18.1944   19.5988 N.pl3   1  UNL1       -0.2004
     19 H         -10.6737  -17.7169   18.8095 H       1  UNL1        0.2982
     20 C         -12.2179  -18.6480   24.5090 C.3     1  UNL1        0.0519
     21 C         -11.7155  -18.0637   23.2222 C.2     1  UNL1        0.0948
     22 N         -11.5733  -16.6027   22.9133 N.2     1  UNL1       -0.0428
     23 N         -11.0369  -16.4739   21.5184 N.2     1  UNL1        0.0753
     24 C         -10.8476  -17.8552   20.9652 C.2     1  UNL1        0.3331
     25 C         -11.2670  -18.8377   22.0181 C.3     1  UNL1        0.1480
     26 C         -11.2422  -20.3320   21.8896 C.3     1  UNL1        0.0190
     27 O          -4.4120  -19.2542   22.9316 O.3     1  UNL1       -0.4714
     28 C          -3.0646  -19.5450   22.3402 C.3     1  UNL1        0.2370
     29 C          -2.5418  -18.7023   21.2148 C.3     1  UNL1        0.1847
     30 O          -2.8705  -17.2399   21.1574 O.3     1  UNL1       -0.3784
     31 H          -3.8235  -17.1281   21.0148 H       1  UNL1        0.2106
@<TRIPOS>BOND
     1    20    21    1
     2    21    22    2
     3    22    23    1
     4    23    24    2
     5    24    18    1
     6    18     1    1
     7     1     2   ar
     8     2     3   ar
     9     3     4   ar
    10     4     5   ar
    11     5     6   ar
    12     6     7   ar
    13     7    27    1
    14    27    28    1
    15    28    29    1
    16    29    30    1
    17     7     8   ar
    18     8    11    1
    19    11    12    2
    20    11    13    2
    21    11    14    1
    22    14    15    1
    23    14    16    1
    24    14    17    1
    25     8     9   ar
    26     9    10   ar
    27    24    25    1
    28    25    26    1
    29    25    21    1
    30    10     1   ar
    31    10     5   ar
    32    18    19    1
    33    30    31    1
@<TRIPOS>MOLECULE
*****
 31 33 0 0 0
SMALL
GASTEIGER

@<TRIPOS>ATOM
      1 C         -16.9701   -4.6958   18.6793 C.ar    1  UNL1        0.1384
      2 C         -17.8794   -5.8113   19.1021 C.ar    1  UNL1        0.0608
      3 C         -17.3008   -7.1023   19.6006 C.ar    1  UNL1        0.1023
      4 N         -15.8131   -7.2778   19.6763 N.ar    1  UNL1       -0.2435
      5 C         -14.9038   -6.1623   19.2535 C.ar    1  UNL1        0.0877
      6 C         -13.4160   -6.3377   19.3292 C.ar    1  UNL1        0.0574
      7 C         -12.5068   -5.2222   18.9064 C.ar    1  UNL1        0.1571
      8 C         -13.0853   -3.9311   18.4079 C.ar    1  UNL1        0.1395
      9 C         -14.5731   -3.7556   18.3322 C.ar    1  UNL1        0.0263
     10 C         -15.4823   -4.8712   18.7550 C.ar    1  UNL1        0.0560
     11 S         -12.1760   -2.8156   17.9852 S.O2    1  UNL1        0.0083
     12 O         -12.2043   -2.2640   19.3797 O.2     1  UNL1       -0.1686
     13 O         -12.1478   -3.3671   16.5906 O.2     1  UNL1       -0.1686
     14 C         -11.2667   -1.7000   17.5623 C.3     1  UNL1        0.1152
     15 C         -10.4205   -2.6779   16.8024 C.3     1  UNL1        0.0240
     16 C         -12.1130   -0.7221   18.3222 C.3     1  UNL1        0.0240
     17 C         -10.3574   -0.5845   17.1395 C.3     1  UNL1        0.0240
     18 N         -17.5486   -3.4046   18.1808 N.pl3   1  UNL1       -0.2004
     19 H         -17.6810   -3.2648   17.2153 H       1  UNL1        0.2982
     20 C         -17.5288    1.0905   20.9510 C.3     1  UNL1        0.0519
     21 C         -17.9163   -0.2604   20.4267 C.2     1  UNL1        0.0948
     22 N         -19.0940   -1.0749   20.8733 N.2     1  UNL1       -0.0428
     23 N         -19.0996   -2.3519   20.0864 N.2     1  UNL1        0.0753
     24 C         -17.9254   -2.3266   19.1534 C.2     1  UNL1        0.3331
     25 C         -17.1940   -1.0340   19.3637 C.3     1  UNL1        0.1480
     26 C         -15.9575   -0.5924   18.6385 C.3     1  UNL1        0.0190
     27 O         -11.0190   -5.3977   18.9821 O.3     1  UNL1       -0.4714
     28 C         -10.3289   -6.3562   18.0576 C.3     1  UNL1        0.2370
     29 C          -9.6316   -7.5629   18.6122 C.3     1  UNL1        0.1847
     30 O          -9.7424   -8.8828   17.9082 O.3     1  UNL1       -0.3784
     31 H         -10.6604   -9.1937   17.9467 H       1  UNL1        0.2106
@<TRIPOS>BOND
     1    20    21    1
     2    21    22    2
     3    22    23    1
     4    23    24    2
     5    24    18    1
     6    18     1    1
     7     1     2   ar
     8     2     3   ar
     9     3     4   ar
    10     4     5   ar
    11     5     6   ar
    12     6     7   ar
    13     7    27    1
    14    27    28    1
    15    28    29    1
    16    29    30    1
    17     7     8   ar
    18     8    11    1
    19    11    12    2
    20    11    13    2
    21    11    14    1
    22    14    15    1
    23    14    16    1
    24    14    17    1
    25     8     9   ar
    26     9    10   ar
    27    24    25    1
    28    25    26    1
    29    25    21    1
    30    10     1   ar
    31    10     5   ar
    32    18    19    1
    33    30    31    1
