@<TRIPOS>MOLECULE
*****
 32 34 0 0 0
SMALL
GASTEIGER

@<TRIPOS>ATOM
      1 N         -10.3466  -18.5972   21.7598 N.3     1  UNL1       -0.2689
      2 C         -11.0919  -19.4732   20.7969 C.3     1  UNL1        0.0735
      3 C         -10.3953  -20.0190   19.5858 C.3     1  UNL1        0.0332
      4 C          -8.9533  -19.6888   19.3375 C.3     1  UNL1        0.1000
      5 C          -8.2079  -18.8129   20.3003 C.3     1  UNL1        0.0332
      6 C          -8.9046  -18.2670   21.5115 C.3     1  UNL1        0.0735
      7 C          -9.2315  -20.5546   18.1446 C.1     1  UNL1        0.0729
      8 N          -9.5096  -21.4203   16.9516 N.1     1  UNL1       -0.1959
      9 C         -11.0432  -18.0514   22.9708 C.3     1  UNL1        0.0991
     10 C          -8.6385  -16.3777   26.3865 C.ar    1  UNL1        0.1387
     11 C          -9.1859  -17.7719   26.4669 C.ar    1  UNL1        0.0366
     12 C          -9.9874  -18.3298   25.3283 C.ar    1  UNL1        0.0002
     13 C         -10.2416  -17.4935   24.1094 C.ar    1  UNL1       -0.0059
     14 C          -9.6943  -16.0993   24.0290 C.ar    1  UNL1        0.0002
     15 C          -8.8928  -15.5414   25.1676 C.ar    1  UNL1        0.0366
     16 C          -6.5472  -15.1036   27.2542 C.3     1  UNL1        0.2525
     17 O          -7.8370  -15.8198   27.5251 O.3     1  UNL1       -0.4714
     18 C          -7.6079  -19.6593   18.6750 C.3     1  UNL1        0.1037
     19 N          -6.4324  -19.0626   19.3906 N.am    1  UNL1       -0.2998
     20 C          -5.5173  -19.9407   20.1917 C.2     1  UNL1        0.2461
     21 O          -5.7777  -21.4154   20.2770 O.2     1  UNL1       -0.2701
     22 H          -6.2614  -18.0947   19.3346 H       1  UNL1        0.1498
     23 C          -4.3418  -19.3440   20.9073 C.ar    1  UNL1        0.0594
     24 C          -2.9805  -19.3866   20.2789 C.ar    1  UNL1        0.0416
     25 C          -1.8050  -18.7898   20.9945 C.ar    1  UNL1        0.1419
     26 C          -1.9909  -18.1504   22.3386 C.ar    1  UNL1        0.0738
     27 C          -3.3523  -18.1078   22.9670 C.ar    1  UNL1        0.1419
     28 C          -4.5277  -18.7045   22.2514 C.ar    1  UNL1        0.0416
     29 O          -0.4437  -18.8324   20.3661 O.3     1  UNL1       -0.4713
     30 C           0.2778  -17.5552   20.0523 C.3     1  UNL1        0.2525
     31 O          -3.5381  -17.4683   24.3112 O.3     1  UNL1       -0.4713
     32 C          -4.6391  -16.4716   24.5217 C.3     1  UNL1        0.2525
@<TRIPOS>BOND
     1    16    17    1
     2    17    10    1
     3    10    11   ar
     4    11    12   ar
     5    12    13   ar
     6    13     9    1
     7     9     1    1
     8     1     2    1
     9     2     3    1
    10     3     4    1
    11     4     7    1
    12     7     8    3
    13     4    18    1
    14    18    19    1
    15    19    20   am
    16    20    21    2
    17    20    23    1
    18    23    24   ar
    19    24    25   ar
    20    25    29    1
    21    29    30    1
    22    25    26   ar
    23    26    27   ar
    24    27    31    1
    25    31    32    1
    26    27    28   ar
    27     4     5    1
    28     5     6    1
    29    13    14   ar
    30    14    15   ar
    31    15    10   ar
    32     6     1    1
    33    28    23   ar
    34    19    22    1
@<TRIPOS>MOLECULE
*****
 32 34 0 0 0
SMALL
GASTEIGER

@<TRIPOS>ATOM
      1 N         -10.3509  -18.5932   21.7673 N.3     1  UNL1       -0.2689
      2 C         -11.1004  -19.4606   20.7999 C.3     1  UNL1        0.0735
      3 C         -10.4054  -20.0065   19.5879 C.3     1  UNL1        0.0332
      4 C          -8.9609  -19.6849   19.3433 C.3     1  UNL1        0.1000
      5 C          -8.2113  -18.8176   20.3106 C.3     1  UNL1        0.0332
      6 C          -8.9063  -18.2717   21.5227 C.3     1  UNL1        0.0735
      7 C          -9.2428  -20.5443   18.1466 C.1     1  UNL1        0.0729
      8 N          -9.5247  -21.4036   16.9499 N.1     1  UNL1       -0.1959
      9 C         -11.0459  -18.0474   22.9793 C.3     1  UNL1        0.0991
     10 C          -8.6363  -16.3841   26.3966 C.ar    1  UNL1        0.1387
     11 C          -8.8841  -15.5475   25.1765 C.ar    1  UNL1        0.0366
     12 C          -9.6873  -16.1019   24.0374 C.ar    1  UNL1        0.0002
     13 C         -10.2427  -17.4929   24.1184 C.ar    1  UNL1       -0.0059
     14 C          -9.9949  -18.3295   25.3385 C.ar    1  UNL1        0.0002
     15 C          -9.1917  -17.7751   26.4776 C.ar    1  UNL1        0.0366
     16 C          -6.5580  -15.0881   27.2633 C.3     1  UNL1        0.2525
     17 O          -7.8332  -15.8296   27.5357 O.3     1  UNL1       -0.4714
     18 C          -7.6142  -19.6619   18.6830 C.3     1  UNL1        0.1037
     19 N          -6.4390  -19.0624   19.3970 N.am    1  UNL1       -0.2998
     20 C          -5.5177  -19.9392   20.1924 C.2     1  UNL1        0.2461
     21 O          -5.7716  -21.4153   20.2738 O.2     1  UNL1       -0.2701
     22 H          -6.2724  -18.0936   19.3436 H       1  UNL1        0.1498
     23 C          -4.3426  -19.3397   20.9063 C.ar    1  UNL1        0.0594
     24 C          -4.5292  -18.6940   22.2472 C.ar    1  UNL1        0.0416
     25 C          -3.3541  -18.0945   22.9612 C.ar    1  UNL1        0.1419
     26 C          -1.9922  -18.1409   22.3340 C.ar    1  UNL1        0.0738
     27 C          -1.8056  -18.7866   20.9931 C.ar    1  UNL1        0.1419
     28 C          -2.9807  -19.3861   20.2792 C.ar    1  UNL1        0.0416
     29 O          -3.5407  -17.4488   24.3021 O.3     1  UNL1       -0.4713
     30 C          -4.6356  -16.4436   24.5045 C.3     1  UNL1        0.2525
     31 O          -0.4437  -18.8329   20.3660 O.3     1  UNL1       -0.4713
     32 C           0.2762  -17.5577   20.0414 C.3     1  UNL1        0.2525
@<TRIPOS>BOND
     1    16    17    1
     2    17    10    1
     3    10    11   ar
     4    11    12   ar
     5    12    13   ar
     6    13     9    1
     7     9     1    1
     8     1     2    1
     9     2     3    1
    10     3     4    1
    11     4     7    1
    12     7     8    3
    13     4    18    1
    14    18    19    1
    15    19    20   am
    16    20    21    2
    17    20    23    1
    18    23    24   ar
    19    24    25   ar
    20    25    29    1
    21    29    30    1
    22    25    26   ar
    23    26    27   ar
    24    27    31    1
    25    31    32    1
    26    27    28   ar
    27     4     5    1
    28     5     6    1
    29    13    14   ar
    30    14    15   ar
    31    15    10   ar
    32     6     1    1
    33    28    23   ar
    34    19    22    1
@<TRIPOS>MOLECULE
*****
 32 34 0 0 0
SMALL
GASTEIGER

@<TRIPOS>ATOM
      1 N          -9.5587  -16.5789   23.8712 N.3     1  UNL1       -0.2689
      2 C          -9.6041  -16.1684   25.3133 C.3     1  UNL1        0.0735
      3 C          -8.3657  -15.6557   25.9865 C.3     1  UNL1        0.0332
      4 C          -7.0817  -15.5534   25.2178 C.3     1  UNL1        0.1000
      5 C          -7.0362  -15.9638   23.7757 C.3     1  UNL1        0.0332
      6 C          -8.2747  -16.4766   23.1024 C.3     1  UNL1        0.0735
      7 C          -6.6264  -15.0463   26.5540 C.1     1  UNL1        0.0729
      8 N          -6.1710  -14.5391   27.8902 N.1     1  UNL1       -0.1959
      9 C         -10.7971  -17.0916   23.1979 C.3     1  UNL1        0.0991
     10 C         -10.4632  -19.5574   19.4485 C.ar    1  UNL1        0.1387
     11 C         -10.7914  -18.0966   19.3587 C.ar    1  UNL1        0.0366
     12 C         -10.9027  -17.2746   20.6085 C.ar    1  UNL1        0.0002
     13 C         -10.6858  -17.9135   21.9481 C.ar    1  UNL1       -0.0059
     14 C         -10.3576  -19.3744   22.0380 C.ar    1  UNL1        0.0002
     15 C         -10.2463  -20.1964   20.7882 C.ar    1  UNL1        0.0366
     16 C          -9.0614  -21.0680   17.8664 C.3     1  UNL1        0.2525
     17 O         -10.3518  -20.3794   18.1987 O.3     1  UNL1       -0.4714
     18 C          -5.6397  -15.2750   24.9131 C.3     1  UNL1        0.1037
     19 N          -5.0069  -15.8568   23.6837 N.am    1  UNL1       -0.2998
     20 C          -4.1632  -17.0927   23.7877 C.2     1  UNL1        0.2461
     21 O          -3.9521  -17.7467   25.1210 O.2     1  UNL1       -0.2701
     22 H          -5.1455  -15.4276   22.8086 H       1  UNL1        0.1498
     23 C          -3.5305  -17.6744   22.5584 C.ar    1  UNL1        0.0594
     24 C          -2.3503  -16.9954   21.9292 C.ar    1  UNL1        0.0416
     25 C          -1.7176  -17.5771   20.6999 C.ar    1  UNL1        0.1419
     26 C          -2.2653  -18.8380   20.0996 C.ar    1  UNL1        0.0738
     27 C          -3.4456  -19.5170   20.7288 C.ar    1  UNL1        0.1419
     28 C          -4.0782  -18.9353   21.9581 C.ar    1  UNL1        0.0416
     29 O          -0.5374  -16.8981   20.0707 O.3     1  UNL1       -0.4713
     30 C           0.8050  -17.5677   20.0782 C.3     1  UNL1        0.2525
     31 O          -3.9932  -20.7780   20.1285 O.3     1  UNL1       -0.4713
     32 C          -5.4703  -21.0382   20.1485 C.3     1  UNL1        0.2525
@<TRIPOS>BOND
     1    16    17    1
     2    17    10    1
     3    10    11   ar
     4    11    12   ar
     5    12    13   ar
     6    13     9    1
     7     9     1    1
     8     1     2    1
     9     2     3    1
    10     3     4    1
    11     4     7    1
    12     7     8    3
    13     4    18    1
    14    18    19    1
    15    19    20   am
    16    20    21    2
    17    20    23    1
    18    23    24   ar
    19    24    25   ar
    20    25    29    1
    21    29    30    1
    22    25    26   ar
    23    26    27   ar
    24    27    31    1
    25    31    32    1
    26    27    28   ar
    27     4     5    1
    28     5     6    1
    29    13    14   ar
    30    14    15   ar
    31    15    10   ar
    32     6     1    1
    33    28    23   ar
    34    19    22    1
@<TRIPOS>MOLECULE
*****
 32 34 0 0 0
SMALL
GASTEIGER

@<TRIPOS>ATOM
      1 N          -9.5596  -16.4382   23.8234 N.3     1  UNL1       -0.2689
      2 C          -9.6145  -16.0384   25.2681 C.3     1  UNL1        0.0735
      3 C          -8.3710  -15.5709   25.9646 C.3     1  UNL1        0.0332
      4 C          -7.0727  -15.5032   25.2165 C.3     1  UNL1        0.1000
      5 C          -7.0178  -15.9031   23.7719 C.3     1  UNL1        0.0332
      6 C          -8.2613  -16.3706   23.0753 C.3     1  UNL1        0.0735
      7 C          -6.6223  -15.0218   26.5639 C.1     1  UNL1        0.0729
      8 N          -6.1719  -14.5403   27.9112 N.1     1  UNL1       -0.1959
      9 C         -10.8031  -16.9057   23.1269 C.3     1  UNL1        0.0991
     10 C         -10.4912  -19.5505   19.4995 C.ar    1  UNL1        0.1387
     11 C         -10.7673  -18.0851   19.3377 C.ar    1  UNL1        0.0366
     12 C         -10.8713  -17.2035   20.5468 C.ar    1  UNL1        0.0002
     13 C         -10.6991  -17.7873   21.9177 C.ar    1  UNL1       -0.0059
     14 C         -10.4230  -19.2527   22.0795 C.ar    1  UNL1        0.0002
     15 C         -10.3190  -20.1343   20.8704 C.ar    1  UNL1        0.0366
     16 C          -9.0534  -20.9751   17.8706 C.3     1  UNL1        0.2525
     17 O         -10.3872  -20.4321   18.2904 O.3     1  UNL1       -0.4714
     18 C          -5.6179  -15.2684   24.9363 C.3     1  UNL1        0.1037
     19 N          -4.9884  -15.8477   23.7040 N.am    1  UNL1       -0.2998
     20 C          -4.1549  -17.0910   23.8013 C.2     1  UNL1        0.2461
     21 O          -3.9510  -17.7551   25.1307 O.2     1  UNL1       -0.2701
     22 H          -5.1223  -15.4118   22.8315 H       1  UNL1        0.1498
     23 C          -3.5255  -17.6702   22.5691 C.ar    1  UNL1        0.0594
     24 C          -4.0736  -18.9306   21.9685 C.ar    1  UNL1        0.0416
     25 C          -3.4441  -19.5098   20.7363 C.ar    1  UNL1        0.1419
     26 C          -2.2665  -18.8284   20.1047 C.ar    1  UNL1        0.0738
     27 C          -1.7184  -17.5679   20.7054 C.ar    1  UNL1        0.1419
     28 C          -2.3478  -16.9888   21.9376 C.ar    1  UNL1        0.0416
     29 O          -3.9922  -20.7702   20.1357 O.3     1  UNL1       -0.4713
     30 C          -5.4691  -21.0319   20.1596 C.3     1  UNL1        0.2525
     31 O          -0.5407  -16.8866   20.0737 O.3     1  UNL1       -0.4713
     32 C           0.8024  -17.5545   20.0761 C.3     1  UNL1        0.2525
@<TRIPOS>BOND
     1    16    17    1
     2    17    10    1
     3    10    11   ar
     4    11    12   ar
     5    12    13   ar
     6    13     9    1
     7     9     1    1
     8     1     2    1
     9     2     3    1
    10     3     4    1
    11     4     7    1
    12     7     8    3
    13     4    18    1
    14    18    19    1
    15    19    20   am
    16    20    21    2
    17    20    23    1
    18    23    24   ar
    19    24    25   ar
    20    25    29    1
    21    29    30    1
    22    25    26   ar
    23    26    27   ar
    24    27    31    1
    25    31    32    1
    26    27    28   ar
    27     4     5    1
    28     5     6    1
    29    13    14   ar
    30    14    15   ar
    31    15    10   ar
    32     6     1    1
    33    28    23   ar
    34    19    22    1
@<TRIPOS>MOLECULE
*****
 32 34 0 0 0
SMALL
GASTEIGER

@<TRIPOS>ATOM
      1 N          -0.7844    3.3504   25.7334 N.3     1  UNL1       -0.2689
      2 C          -2.0572    3.4596   24.9470 C.3     1  UNL1        0.0735
      3 C          -2.0228    3.3797   23.4496 C.3     1  UNL1        0.0332
      4 C          -0.7157    3.1907   22.7384 C.3     1  UNL1        0.1000
      5 C           0.5570    3.0816   23.5246 C.3     1  UNL1        0.0332
      6 C           0.5226    3.1614   25.0222 C.3     1  UNL1        0.0735
      7 C          -1.6468    3.2402   21.5634 C.1     1  UNL1        0.0729
      8 N          -2.5779    3.2898   20.3885 N.1     1  UNL1       -0.1959
      9 C          -0.8188    3.4302   27.2308 C.3     1  UNL1        0.0991
     10 C           1.2612    0.2952   29.6996 C.ar    1  UNL1        0.1387
     11 C           1.6428    1.7386   29.8439 C.ar    1  UNL1        0.0366
     12 C           0.9495    2.7836   29.0210 C.ar    1  UNL1        0.0002
     13 C          -0.1255    2.3852   28.0537 C.ar    1  UNL1       -0.0059
     14 C          -0.5071    0.9418   27.9093 C.ar    1  UNL1        0.0002
     15 C           0.1863   -0.1032   28.7323 C.ar    1  UNL1        0.0366
     16 C           3.1517   -0.3821   31.3480 C.3     1  UNL1        0.2525
     17 O           1.9546   -0.7499   30.5225 O.3     1  UNL1       -0.4714
     18 C           0.2680    3.0189   21.6192 C.3     1  UNL1        0.1037
     19 N           1.3249    1.9579   21.7058 N.am    1  UNL1       -0.2998
     20 C           1.0686    0.5955   21.1327 C.2     1  UNL1        0.2461
     21 O          -0.2444    0.2942   20.4731 O.2     1  UNL1       -0.2701
     22 H           2.1867    2.1557   22.1387 H       1  UNL1        0.1498
     23 C           2.1255   -0.4653   21.2193 C.ar    1  UNL1        0.0594
     24 C           2.8622   -0.6869   22.5070 C.ar    1  UNL1        0.0416
     25 C           3.9190   -1.7477   22.5936 C.ar    1  UNL1        0.1419
     26 C           4.2392   -2.5872   21.3924 C.ar    1  UNL1        0.0738
     27 C           3.5025   -2.3657   20.1047 C.ar    1  UNL1        0.1419
     28 C           2.4457   -1.3048   20.0181 C.ar    1  UNL1        0.0416
     29 O           4.6557   -1.9692   23.8813 O.3     1  UNL1       -0.4713
     30 C           4.0868   -1.4520   25.1694 C.3     1  UNL1        0.2525
     31 O           3.8227   -3.2052   18.9035 O.3     1  UNL1       -0.4713
     32 C           4.0017   -4.6872   19.0504 C.3     1  UNL1        0.2525
@<TRIPOS>BOND
     1    16    17    1
     2    17    10    1
     3    10    11   ar
     4    11    12   ar
     5    12    13   ar
     6    13     9    1
     7     9     1    1
     8     1     2    1
     9     2     3    1
    10     3     4    1
    11     4     7    1
    12     7     8    3
    13     4    18    1
    14    18    19    1
    15    19    20   am
    16    20    21    2
    17    20    23    1
    18    23    24   ar
    19    24    25   ar
    20    25    29    1
    21    29    30    1
    22    25    26   ar
    23    26    27   ar
    24    27    31    1
    25    31    32    1
    26    27    28   ar
    27     4     5    1
    28     5     6    1
    29    13    14   ar
    30    14    15   ar
    31    15    10   ar
    32     6     1    1
    33    28    23   ar
    34    19    22    1
@<TRIPOS>MOLECULE
*****
 32 34 0 0 0
SMALL
GASTEIGER

@<TRIPOS>ATOM
      1 N           4.6798   -1.4589   19.1000 N.3     1  UNL1       -0.2689
      2 C           5.0892   -2.8733   18.8134 C.3     1  UNL1        0.0735
      3 C           6.1172   -3.5456   19.6743 C.3     1  UNL1        0.0332
      4 C           6.7358   -2.8036   20.8218 C.3     1  UNL1        0.1000
      5 C           6.3265   -1.3893   21.1084 C.3     1  UNL1        0.0332
      6 C           5.2985   -0.7169   20.2474 C.3     1  UNL1        0.0735
      7 C           7.4456   -4.1189   20.9491 C.1     1  UNL1        0.0729
      8 N           8.1553   -5.4342   21.0763 N.1     1  UNL1       -0.1959
      9 C           3.6519   -0.7866   18.2391 C.3     1  UNL1        0.0991
     10 C           0.1353    1.2843   20.1351 C.ar    1  UNL1        0.1387
     11 C           0.5311   -0.0893   20.5895 C.ar    1  UNL1        0.0366
     12 C           1.7033   -0.7796   19.9575 C.ar    1  UNL1        0.0002
     13 C           2.4797   -0.0963   18.8711 C.ar    1  UNL1       -0.0059
     14 C           2.0838    1.2773   18.4167 C.ar    1  UNL1        0.0002
     15 C           0.9116    1.9676   19.0487 C.ar    1  UNL1        0.0366
     16 C          -0.8175    3.1608   21.6585 C.3     1  UNL1        0.2525
     17 O          -1.0369    1.9746   20.7671 O.3     1  UNL1       -0.4714
     18 C           7.6010   -2.5184   22.0134 C.3     1  UNL1        0.1037
     19 N           7.5299   -3.4051   23.2213 N.am    1  UNL1       -0.2998
     20 C           6.9212   -2.8929   24.4930 C.2     1  UNL1        0.2461
     21 O           6.3837   -1.4940   24.5568 O.2     1  UNL1       -0.2701
     22 H           7.8828   -4.3233   23.1794 H       1  UNL1        0.1498
     23 C           6.8502   -3.7795   25.7008 C.ar    1  UNL1        0.0594
     24 C           6.9691   -5.2669   25.5474 C.ar    1  UNL1        0.0416
     25 C           6.8981   -6.1536   26.7551 C.ar    1  UNL1        0.1419
     26 C           6.7082   -5.5528   28.1164 C.ar    1  UNL1        0.0738
     27 C           6.5893   -4.0654   28.2698 C.ar    1  UNL1        0.1419
     28 C           6.6603   -3.1787   27.0621 C.ar    1  UNL1        0.0416
     29 O           7.0170   -7.6409   26.6017 O.3     1  UNL1       -0.4713
     30 C           8.3671   -8.2935   26.6425 C.3     1  UNL1        0.2525
     31 O           6.3993   -3.4647   29.6312 O.3     1  UNL1       -0.4713
     32 C           6.7786   -4.2450   30.8548 C.3     1  UNL1        0.2525
@<TRIPOS>BOND
     1    16    17    1
     2    17    10    1
     3    10    11   ar
     4    11    12   ar
     5    12    13   ar
     6    13     9    1
     7     9     1    1
     8     1     2    1
     9     2     3    1
    10     3     4    1
    11     4     7    1
    12     7     8    3
    13     4    18    1
    14    18    19    1
    15    19    20   am
    16    20    21    2
    17    20    23    1
    18    23    24   ar
    19    24    25   ar
    20    25    29    1
    21    29    30    1
    22    25    26   ar
    23    26    27   ar
    24    27    31    1
    25    31    32    1
    26    27    28   ar
    27     4     5    1
    28     5     6    1
    29    13    14   ar
    30    14    15   ar
    31    15    10   ar
    32     6     1    1
    33    28    23   ar
    34    19    22    1
@<TRIPOS>MOLECULE
*****
 32 34 0 0 0
SMALL
GASTEIGER

@<TRIPOS>ATOM
      1 N           4.7153   -1.2872   19.0519 N.3     1  UNL1       -0.2689
      2 C           5.0636   -2.7184   18.7680 C.3     1  UNL1        0.0735
      3 C           6.0694   -3.4295   19.6238 C.3     1  UNL1        0.0332
      4 C           6.7271   -2.7095   20.7636 C.3     1  UNL1        0.1000
      5 C           6.3789   -1.2784   21.0475 C.3     1  UNL1        0.0332
      6 C           5.3730   -0.5672   20.1917 C.3     1  UNL1        0.0735
      7 C           7.3828   -4.0526   20.8908 C.1     1  UNL1        0.0729
      8 N           8.0384   -5.3957   21.0180 N.1     1  UNL1       -0.1959
      9 C           3.7095   -0.5761   18.1961 C.3     1  UNL1        0.0991
     10 C           0.1263    1.3801   20.0893 C.ar    1  UNL1        0.1387
     11 C           0.9481    2.1323   19.0850 C.ar    1  UNL1        0.0366
     12 C           2.1425    1.4802   18.4539 C.ar    1  UNL1        0.0002
     13 C           2.5151    0.0760   18.8272 C.ar    1  UNL1       -0.0059
     14 C           1.6932   -0.6762   19.8315 C.ar    1  UNL1        0.0002
     15 C           0.4988   -0.0241   20.4626 C.ar    1  UNL1        0.0366
     16 C          -0.8822    3.0242   21.8300 C.3     1  UNL1        0.2525
     17 O          -1.0681    2.0322   20.7204 O.3     1  UNL1       -0.4714
     18 C           7.6125   -2.4560   21.9475 C.3     1  UNL1        0.1037
     19 N           7.5197   -3.3393   23.1564 N.am    1  UNL1       -0.2998
     20 C           6.9152   -2.8138   24.4247 C.2     1  UNL1        0.2461
     21 O           6.4037   -1.4050   24.4841 O.2     1  UNL1       -0.2701
     22 H           7.8554   -4.2640   23.1173 H       1  UNL1        0.1498
     23 C           6.8224   -3.6971   25.6334 C.ar    1  UNL1        0.0594
     24 C           6.5943   -3.0939   26.9876 C.ar    1  UNL1        0.0416
     25 C           6.5015   -3.9772   28.1963 C.ar    1  UNL1        0.1419
     26 C           6.6369   -5.4640   28.0507 C.ar    1  UNL1        0.0738
     27 C           6.8650   -6.0673   26.6965 C.ar    1  UNL1        0.1419
     28 C           6.9578   -5.1840   25.4878 C.ar    1  UNL1        0.0416
     29 O           6.2734   -3.3739   29.5505 O.3     1  UNL1       -0.4713
     30 C           6.8677   -4.0178   30.7681 C.3     1  UNL1        0.2525
     31 O           7.0003   -7.5542   26.5510 O.3     1  UNL1       -0.4713
     32 C           8.3602   -8.1749   26.4273 C.3     1  UNL1        0.2525
@<TRIPOS>BOND
     1    16    17    1
     2    17    10    1
     3    10    11   ar
     4    11    12   ar
     5    12    13   ar
     6    13     9    1
     7     9     1    1
     8     1     2    1
     9     2     3    1
    10     3     4    1
    11     4     7    1
    12     7     8    3
    13     4    18    1
    14    18    19    1
    15    19    20   am
    16    20    21    2
    17    20    23    1
    18    23    24   ar
    19    24    25   ar
    20    25    29    1
    21    29    30    1
    22    25    26   ar
    23    26    27   ar
    24    27    31    1
    25    31    32    1
    26    27    28   ar
    27     4     5    1
    28     5     6    1
    29    13    14   ar
    30    14    15   ar
    31    15    10   ar
    32     6     1    1
    33    28    23   ar
    34    19    22    1
@<TRIPOS>MOLECULE
*****
 32 34 0 0 0
SMALL
GASTEIGER

@<TRIPOS>ATOM
      1 N           4.1468   -0.2221   30.0746 N.3     1  UNL1       -0.2689
      2 C           2.7527   -0.5572   30.5157 C.3     1  UNL1        0.0735
      3 C           1.5837   -0.1895   29.6508 C.3     1  UNL1        0.0332
      4 C           1.8085    0.5133   28.3449 C.3     1  UNL1        0.1000
      5 C           3.2025    0.8484   27.9038 C.3     1  UNL1        0.0332
      6 C           4.3716    0.4807   28.7686 C.3     1  UNL1        0.0735
      7 C           0.3122    0.4098   28.3307 C.1     1  UNL1        0.0729
      8 N          -1.1842    0.3063   28.3167 N.1     1  UNL1       -0.1959
      9 C           5.3158   -0.5899   30.9394 C.3     1  UNL1        0.0991
     10 C           7.0404   -4.7417   30.7452 C.ar    1  UNL1        0.1387
     11 C           6.8755   -3.9386   29.4891 C.ar    1  UNL1        0.0366
     12 C           6.3006   -2.5547   29.5539 C.ar    1  UNL1        0.0002
     13 C           5.8907   -1.9738   30.8747 C.ar    1  UNL1       -0.0059
     14 C           6.0557   -2.7770   32.1307 C.ar    1  UNL1        0.0002
     15 C           6.6305   -4.1609   32.0660 C.ar    1  UNL1        0.0366
     16 C           8.9499   -6.4133   31.3018 C.3     1  UNL1        0.2525
     17 O           7.6153   -6.1257   30.6804 O.3     1  UNL1       -0.4714
     18 C           1.5137    1.1802   27.0341 C.3     1  UNL1        0.1037
     19 N           1.8550    0.4888   25.7473 N.am    1  UNL1       -0.2998
     20 C           1.4319    1.0879   24.4388 C.2     1  UNL1        0.2461
     21 O           0.6676    2.3784   24.4171 O.2     1  UNL1       -0.2701
     22 H           2.3566   -0.3582   25.7616 H       1  UNL1        0.1498
     23 C           1.7731    0.3965   23.1522 C.ar    1  UNL1        0.0594
     24 C           0.9949    0.7024   21.9069 C.ar    1  UNL1        0.0416
     25 C           1.3361    0.0109   20.6203 C.ar    1  UNL1        0.1419
     26 C           2.4558   -0.9865   20.5790 C.ar    1  UNL1        0.0738
     27 C           3.2340   -1.2923   21.8243 C.ar    1  UNL1        0.1419
     28 C           2.8928   -0.6009   23.1109 C.ar    1  UNL1        0.0416
     29 O           0.5579    0.3168   19.3751 O.3     1  UNL1       -0.4713
     30 C           0.9028    1.5228   18.5524 C.3     1  UNL1        0.2525
     31 O           4.3537   -2.2898   21.7829 O.3     1  UNL1       -0.4713
     32 C           4.6719   -3.1109   22.9971 C.3     1  UNL1        0.2525
@<TRIPOS>BOND
     1    16    17    1
     2    17    10    1
     3    10    11   ar
     4    11    12   ar
     5    12    13   ar
     6    13     9    1
     7     9     1    1
     8     1     2    1
     9     2     3    1
    10     3     4    1
    11     4     7    1
    12     7     8    3
    13     4    18    1
    14    18    19    1
    15    19    20   am
    16    20    21    2
    17    20    23    1
    18    23    24   ar
    19    24    25   ar
    20    25    29    1
    21    29    30    1
    22    25    26   ar
    23    26    27   ar
    24    27    31    1
    25    31    32    1
    26    27    28   ar
    27     4     5    1
    28     5     6    1
    29    13    14   ar
    30    14    15   ar
    31    15    10   ar
    32     6     1    1
    33    28    23   ar
    34    19    22    1
@<TRIPOS>MOLECULE
*****
 32 34 0 0 0
SMALL
GASTEIGER

@<TRIPOS>ATOM
      1 N           4.2280   -0.3840   30.3165 N.3     1  UNL1       -0.2689
      2 C           2.8133   -0.8267   30.5464 C.3     1  UNL1        0.0735
      3 C           1.7165   -0.3268   29.6536 C.3     1  UNL1        0.0332
      4 C           2.0343    0.6156   28.5308 C.3     1  UNL1        0.1000
      5 C           3.4489    1.0583   28.3008 C.3     1  UNL1        0.0332
      6 C           4.5458    0.5585   29.1937 C.3     1  UNL1        0.0735
      7 C           0.5512    0.4845   28.3489 C.1     1  UNL1        0.0729
      8 N          -0.9319    0.3533   28.1669 N.1     1  UNL1       -0.1959
      9 C           5.3247   -0.8838   31.2093 C.3     1  UNL1        0.0991
     10 C           7.1025   -4.9605   30.5234 C.ar    1  UNL1        0.1387
     11 C           6.8476   -4.0481   29.3605 C.ar    1  UNL1        0.0366
     12 C           6.2551   -2.6892   29.5891 C.ar    1  UNL1        0.0002
     13 C           5.9173   -2.2427   30.9807 C.ar    1  UNL1       -0.0059
     14 C           6.1721   -3.1552   32.1436 C.ar    1  UNL1        0.0002
     15 C           6.7647   -4.5140   31.9150 C.ar    1  UNL1        0.0366
     16 C           8.2905   -6.6633   28.9617 C.3     1  UNL1        0.2525
     17 O           7.6950   -6.3194   30.2948 O.3     1  UNL1       -0.4714
     18 C           1.8371    1.5126   27.3448 C.3     1  UNL1        0.1037
     19 N           1.5700    0.9203   25.9927 N.am    1  UNL1       -0.2998
     20 C           2.3904    1.3470   24.8117 C.2     1  UNL1        0.2461
     21 O           3.4779    2.3659   24.9827 O.2     1  UNL1       -0.2701
     22 H           0.8562    0.2516   25.8805 H       1  UNL1        0.1498
     23 C           2.1233    0.7548   23.4597 C.ar    1  UNL1        0.0594
     24 C           2.9953   -0.3489   22.9387 C.ar    1  UNL1        0.0416
     25 C           2.7282   -0.9411   21.5867 C.ar    1  UNL1        0.1419
     26 C           1.5889   -0.4296   20.7557 C.ar    1  UNL1        0.0738
     27 C           0.7170    0.6741   21.2767 C.ar    1  UNL1        0.1419
     28 C           0.9841    1.2663   22.6287 C.ar    1  UNL1        0.0416
     29 O           3.6002   -2.0448   21.0657 O.3     1  UNL1       -0.4713
     30 C           3.4095   -2.5549   19.6680 C.3     1  UNL1        0.2525
     31 O          -0.4223    1.1856   20.4456 O.3     1  UNL1       -0.4713
     32 C          -0.2699    2.4581   19.6662 C.3     1  UNL1        0.2525
@<TRIPOS>BOND
     1    16    17    1
     2    17    10    1
     3    10    11   ar
     4    11    12   ar
     5    12    13   ar
     6    13     9    1
     7     9     1    1
     8     1     2    1
     9     2     3    1
    10     3     4    1
    11     4     7    1
    12     7     8    3
    13     4    18    1
    14    18    19    1
    15    19    20   am
    16    20    21    2
    17    20    23    1
    18    23    24   ar
    19    24    25   ar
    20    25    29    1
    21    29    30    1
    22    25    26   ar
    23    26    27   ar
    24    27    31    1
    25    31    32    1
    26    27    28   ar
    27     4     5    1
    28     5     6    1
    29    13    14   ar
    30    14    15   ar
    31    15    10   ar
    32     6     1    1
    33    28    23   ar
    34    19    22    1
