@<TRIPOS>MOLECULE
*****
 26 29 0 0 0
SMALL
GASTEIGER

@<TRIPOS>ATOM
      1 C          -8.1357  -17.9389   22.6417 C.3     1  UNL1        0.2026
      2 C          -9.2049  -17.9746   21.5903 C.ar    1  UNL1        0.0146
      3 C          -9.6489  -19.0526   20.6465 C.ar    1  UNL1       -0.0011
      4 C         -10.7707  -18.7926   19.6853 C.ar    1  UNL1       -0.0002
      5 C         -11.4486  -17.4546   19.6680 C.ar    1  UNL1       -0.0003
      6 C         -11.0046  -16.3766   20.6118 C.ar    1  UNL1       -0.0044
      7 C          -9.8828  -16.6366   21.5729 C.ar    1  UNL1       -0.0213
      8 C          -9.2325  -15.7740   22.6136 C.3     1  UNL1        0.0461
      9 C          -8.1527  -16.5789   23.2741 C.3     1  UNL1        0.1066
     10 N          -7.2487  -16.1066   24.3740 N.3     1  UNL1       -0.2703
     11 C          -7.6563  -15.8216   25.7891 C.3     1  UNL1        0.0722
     12 C          -6.4379  -15.3753   26.5416 C.3     1  UNL1        0.0188
     13 C          -5.2772  -15.3843   25.5915 C.3     1  UNL1        0.0188
     14 C          -5.7783  -15.8363   24.2519 C.3     1  UNL1        0.0722
     15 O          -7.2117  -19.0655   22.9981 O.3     1  UNL1       -0.4733
     16 C          -3.7208  -19.2898   21.1236 C.ar    1  UNL1        0.0533
     17 C          -4.0131  -20.3528   20.1064 C.ar    1  UNL1        0.0149
     18 C          -5.3716  -20.9866   20.0531 C.ar    1  UNL1        0.0044
     19 C          -6.4378  -20.5575   21.0170 C.ar    1  UNL1        0.0370
     20 C          -6.1456  -19.4946   22.0342 C.ar    1  UNL1        0.1402
     21 C          -4.7870  -18.8607   22.0874 C.ar    1  UNL1        0.0516
     22 C          -0.6351  -16.9549   20.2427 C.3     1  UNL1        0.0949
     23 C          -1.9935  -17.5888   20.1894 C.2     1  UNL1        0.2266
     24 O          -2.9829  -17.1555   19.1487 O.2     1  UNL1       -0.2748
     25 N          -2.3624  -18.6559   21.1769 N.am    1  UNL1       -0.2838
     26 H          -1.7130  -18.9403   21.8600 H       1  UNL1        0.1549
@<TRIPOS>BOND
     1    22    23    1
     2    23    24    2
     3    23    25   am
     4    25    16    1
     5    16    17   ar
     6    17    18   ar
     7    18    19   ar
     8    19    20   ar
     9    20    15    1
    10     1    15    1
    11     1     2    1
    12     2     3   ar
    13     3     4   ar
    14     4     5   ar
    15     5     6   ar
    16     6     7   ar
    17     7     8    1
    18     8     9    1
    19     9    10    1
    20    10    11    1
    21    11    12    1
    22    12    13    1
    23    13    14    1
    24    20    21   ar
    25    21    16   ar
    26     9     1    1
    27    14    10    1
    28     7     2   ar
    29    25    26    1
@<TRIPOS>MOLECULE
*****
 26 29 0 0 0
SMALL
GASTEIGER

@<TRIPOS>ATOM
      1 C          -6.4532  -16.1444   23.5879 C.3     1  UNL1        0.2026
      2 C          -7.1257  -15.7609   24.8727 C.ar    1  UNL1        0.0146
      3 C          -8.5406  -15.3767   25.1892 C.ar    1  UNL1       -0.0011
      4 C          -8.9284  -15.0373   26.5978 C.ar    1  UNL1       -0.0002
      5 C          -7.9012  -15.0820   27.6900 C.ar    1  UNL1       -0.0003
      6 C          -6.4862  -15.4661   27.3735 C.ar    1  UNL1       -0.0044
      7 C          -6.0984  -15.8056   25.9648 C.ar    1  UNL1       -0.0213
      8 C          -4.7911  -16.2167   25.3550 C.3     1  UNL1        0.0461
      9 C          -5.0104  -16.4262   23.8860 C.3     1  UNL1        0.1066
     10 N          -3.9695  -16.8440   22.8899 N.3     1  UNL1       -0.2703
     11 C          -2.8942  -15.9681   22.3184 C.3     1  UNL1        0.0722
     12 C          -2.0814  -16.7938   21.3657 C.3     1  UNL1        0.0188
     13 C          -2.6543  -18.1800   21.3485 C.3     1  UNL1        0.0188
     14 C          -3.8212  -18.2110   22.2905 C.3     1  UNL1        0.0722
     15 O          -7.1085  -16.2310   22.2414 O.3     1  UNL1       -0.4733
     16 C         -10.5851  -18.1343   22.0390 C.ar    1  UNL1        0.0533
     17 C         -10.1604  -19.4359   21.4261 C.ar    1  UNL1        0.0149
     18 C          -8.7185  -19.6691   21.0850 C.ar    1  UNL1        0.0044
     19 C          -7.7011  -18.6009   21.3567 C.ar    1  UNL1        0.0370
     20 C          -8.1257  -17.2993   21.9696 C.ar    1  UNL1        0.1402
     21 C          -9.5678  -17.0661   22.3107 C.ar    1  UNL1        0.0516
     22 C         -13.9855  -18.0290   24.0825 C.3     1  UNL1        0.0949
     23 C         -12.5436  -18.2622   23.7413 C.2     1  UNL1        0.2266
     24 O         -11.6183  -18.8567   24.7612 O.2     1  UNL1       -0.2748
     25 N         -12.0270  -17.9010   22.3801 N.am    1  UNL1       -0.2838
     26 H         -12.6343  -17.5109   21.7107 H       1  UNL1        0.1549
@<TRIPOS>BOND
     1    22    23    1
     2    23    24    2
     3    23    25   am
     4    25    16    1
     5    16    17   ar
     6    17    18   ar
     7    18    19   ar
     8    19    20   ar
     9    20    15    1
    10     1    15    1
    11     1     2    1
    12     2     3   ar
    13     3     4   ar
    14     4     5   ar
    15     5     6   ar
    16     6     7   ar
    17     7     8    1
    18     8     9    1
    19     9    10    1
    20    10    11    1
    21    11    12    1
    22    12    13    1
    23    13    14    1
    24    20    21   ar
    25    21    16   ar
    26     9     1    1
    27    14    10    1
    28     7     2   ar
    29    25    26    1
@<TRIPOS>MOLECULE
*****
 26 29 0 0 0
SMALL
GASTEIGER

@<TRIPOS>ATOM
      1 C          -4.3960  -18.0778   22.5133 C.3     1  UNL1        0.2026
      2 C          -3.2233  -18.1866   21.5844 C.ar    1  UNL1        0.0146
      3 C          -2.7752  -19.2771   20.6571 C.ar    1  UNL1       -0.0011
      4 C          -1.5339  -19.0988   19.8340 C.ar    1  UNL1       -0.0002
      5 C          -0.7408  -17.8299   19.9382 C.ar    1  UNL1       -0.0003
      6 C          -1.1889  -16.7394   20.8655 C.ar    1  UNL1       -0.0044
      7 C          -2.4301  -16.9177   21.6886 C.ar    1  UNL1       -0.0213
      8 C          -3.1127  -16.0248   22.6820 C.3     1  UNL1        0.0461
      9 C          -4.3276  -16.7417   23.1917 C.3     1  UNL1        0.1066
     10 N          -5.3030  -16.2151   24.2023 N.3     1  UNL1       -0.2703
     11 C          -6.7271  -15.8275   23.9346 C.3     1  UNL1        0.0722
     12 C          -7.3298  -15.3564   25.2249 C.3     1  UNL1        0.0188
     13 C          -6.2781  -15.4529   26.2901 C.3     1  UNL1        0.0188
     14 C          -5.0255  -15.9835   25.6581 C.3     1  UNL1        0.0722
     15 O          -5.4517  -19.1219   22.7265 O.3     1  UNL1       -0.4733
     16 C          -9.1975  -18.6425   21.5063 C.ar    1  UNL1        0.0533
     17 C          -9.1130  -19.1867   20.1110 C.ar    1  UNL1        0.0149
     18 C          -7.8080  -19.7093   19.5877 C.ar    1  UNL1        0.0044
     19 C          -6.5876  -19.6877   20.4594 C.ar    1  UNL1        0.0370
     20 C          -6.6720  -19.1435   21.8547 C.ar    1  UNL1        0.1402
     21 C          -7.9771  -18.6209   22.3781 C.ar    1  UNL1        0.0516
     22 C         -12.1835  -16.1622   22.3318 C.3     1  UNL1        0.0949
     23 C         -10.8787  -16.6848   21.8083 C.2     1  UNL1        0.2266
     24 O          -9.9499  -15.7724   21.0634 O.2     1  UNL1       -0.2748
     25 N         -10.5024  -18.1199   22.0298 N.am    1  UNL1       -0.2838
     26 H         -11.1120  -18.7188   22.5187 H       1  UNL1        0.1549
@<TRIPOS>BOND
     1    22    23    1
     2    23    24    2
     3    23    25   am
     4    25    16    1
     5    16    17   ar
     6    17    18   ar
     7    18    19   ar
     8    19    20   ar
     9    20    15    1
    10     1    15    1
    11     1     2    1
    12     2     3   ar
    13     3     4   ar
    14     4     5   ar
    15     5     6   ar
    16     6     7   ar
    17     7     8    1
    18     8     9    1
    19     9    10    1
    20    10    11    1
    21    11    12    1
    22    12    13    1
    23    13    14    1
    24    20    21   ar
    25    21    16   ar
    26     9     1    1
    27    14    10    1
    28     7     2   ar
    29    25    26    1
@<TRIPOS>MOLECULE
*****
 26 29 0 0 0
SMALL
GASTEIGER

@<TRIPOS>ATOM
      1 C          -6.4165  -16.9804   22.7417 C.3     1  UNL1        0.2026
      2 C          -6.6561  -16.3293   24.0716 C.ar    1  UNL1        0.0146
      3 C          -7.8400  -15.5990   24.6329 C.ar    1  UNL1       -0.0011
      4 C          -7.7878  -15.0446   26.0256 C.ar    1  UNL1       -0.0002
      5 C          -6.5518  -15.2203   26.8571 C.ar    1  UNL1       -0.0003
      6 C          -5.3679  -15.9505   26.2958 C.ar    1  UNL1       -0.0044
      7 C          -5.4200  -16.5050   24.9030 C.ar    1  UNL1       -0.0213
      8 C          -4.4166  -17.2647   24.0870 C.3     1  UNL1        0.0461
      9 C          -5.0325  -17.5586   22.7512 C.3     1  UNL1        0.1066
     10 N          -4.3790  -18.3003   21.6230 N.3     1  UNL1       -0.2703
     11 C          -4.9793  -19.4375   20.8507 C.3     1  UNL1        0.0722
     12 C          -3.9818  -19.8751   19.8194 C.3     1  UNL1        0.0188
     13 C          -2.7650  -19.0083   19.9543 C.3     1  UNL1        0.0188
     14 C          -3.0105  -18.0351   21.0689 C.3     1  UNL1        0.0722
     15 O          -7.3901  -17.0424   21.6023 O.3     1  UNL1       -0.4733
     16 C         -10.6596  -18.9815   22.7429 C.ar    1  UNL1        0.0533
     17 C         -10.7528  -20.0319   21.6762 C.ar    1  UNL1        0.0149
     18 C          -9.7251  -20.0859   20.5849 C.ar    1  UNL1        0.0044
     19 C          -8.6042  -19.0894   20.5602 C.ar    1  UNL1        0.0370
     20 C          -8.5110  -18.0389   21.6269 C.ar    1  UNL1        0.1402
     21 C          -9.5387  -17.9850   22.7182 C.ar    1  UNL1        0.0516
     22 C         -13.9837  -18.0994   24.7233 C.3     1  UNL1        0.0949
     23 C         -12.9561  -18.1535   23.6320 C.2     1  UNL1        0.2266
     24 O         -13.1973  -17.4335   22.3384 O.2     1  UNL1       -0.2748
     25 N         -11.6872  -18.9275   23.8343 N.am    1  UNL1       -0.2838
     26 H         -11.5289  -19.4000   24.6833 H       1  UNL1        0.1549
@<TRIPOS>BOND
     1    22    23    1
     2    23    24    2
     3    23    25   am
     4    25    16    1
     5    16    17   ar
     6    17    18   ar
     7    18    19   ar
     8    19    20   ar
     9    20    15    1
    10     1    15    1
    11     1     2    1
    12     2     3   ar
    13     3     4   ar
    14     4     5   ar
    15     5     6   ar
    16     6     7   ar
    17     7     8    1
    18     8     9    1
    19     9    10    1
    20    10    11    1
    21    11    12    1
    22    12    13    1
    23    13    14    1
    24    20    21   ar
    25    21    16   ar
    26     9     1    1
    27    14    10    1
    28     7     2   ar
    29    25    26    1
@<TRIPOS>MOLECULE
*****
 26 29 0 0 0
SMALL
GASTEIGER

@<TRIPOS>ATOM
      1 C          -6.7525  -18.8482   20.4910 C.3     1  UNL1        0.2026
      2 C          -7.5816  -19.7720   19.6489 C.ar    1  UNL1        0.0146
      3 C          -8.9377  -19.6174   19.0268 C.ar    1  UNL1       -0.0011
      4 C          -9.5245  -20.7372   18.2195 C.ar    1  UNL1       -0.0002
      5 C          -8.7552  -22.0114   18.0342 C.ar    1  UNL1       -0.0003
      6 C          -7.3990  -22.1660   18.6563 C.ar    1  UNL1       -0.0044
      7 C          -6.8123  -21.0462   19.4636 C.ar    1  UNL1       -0.0213
      8 C          -5.5077  -20.9100   20.1912 C.3     1  UNL1        0.0461
      9 C          -5.4707  -19.5515   20.8262 C.3     1  UNL1        0.1066
     10 N          -4.3489  -18.9943   21.6515 N.3     1  UNL1       -0.2703
     11 C          -4.4743  -18.3991   23.0227 C.3     1  UNL1        0.0722
     12 C          -3.1077  -17.9713   23.4691 C.3     1  UNL1        0.0188
     13 C          -2.1376  -18.3021   22.3739 C.3     1  UNL1        0.0188
     14 C          -2.9047  -18.9343   21.2506 C.3     1  UNL1        0.0722
     15 O          -7.1375  -17.4641   20.9223 O.3     1  UNL1       -0.4733
     16 C          -9.9353  -17.6487   23.7310 C.ar    1  UNL1        0.0533
     17 C          -9.2960  -16.8408   24.8213 C.ar    1  UNL1        0.0149
     18 C          -7.9373  -16.2407   24.6119 C.ar    1  UNL1        0.0044
     19 C          -7.2178  -16.4485   23.3123 C.ar    1  UNL1        0.0370
     20 C          -7.8570  -17.2563   22.2219 C.ar    1  UNL1        0.1402
     21 C          -9.2157  -17.8564   22.4313 C.ar    1  UNL1        0.0516
     22 C         -13.8740  -18.1289   23.6596 C.3     1  UNL1        0.0949
     23 C         -12.5153  -17.5289   23.4503 C.2     1  UNL1        0.2266
     24 O         -12.3780  -16.2090   22.7511 O.2     1  UNL1       -0.2748
     25 N         -11.2939  -18.2488   23.9403 N.am    1  UNL1       -0.2838
     26 H         -11.3841  -19.1151   24.3992 H       1  UNL1        0.1549
@<TRIPOS>BOND
     1    22    23    1
     2    23    24    2
     3    23    25   am
     4    25    16    1
     5    16    17   ar
     6    17    18   ar
     7    18    19   ar
     8    19    20   ar
     9    20    15    1
    10     1    15    1
    11     1     2    1
    12     2     3   ar
    13     3     4   ar
    14     4     5   ar
    15     5     6   ar
    16     6     7   ar
    17     7     8    1
    18     8     9    1
    19     9    10    1
    20    10    11    1
    21    11    12    1
    22    12    13    1
    23    13    14    1
    24    20    21   ar
    25    21    16   ar
    26     9     1    1
    27    14    10    1
    28     7     2   ar
    29    25    26    1
@<TRIPOS>MOLECULE
*****
 26 29 0 0 0
SMALL
GASTEIGER

@<TRIPOS>ATOM
      1 C          -6.1073  -17.0439   23.2590 C.3     1  UNL1        0.2026
      2 C          -6.8615  -16.4511   24.4122 C.ar    1  UNL1        0.0146
      3 C          -8.3294  -16.3348   24.6980 C.ar    1  UNL1       -0.0011
      4 C          -8.7975  -15.6765   25.9619 C.ar    1  UNL1       -0.0002
      5 C          -7.7977  -15.1345   26.9400 C.ar    1  UNL1       -0.0003
      6 C          -6.3298  -15.2508   26.6542 C.ar    1  UNL1       -0.0044
      7 C          -5.8617  -15.9091   25.3903 C.ar    1  UNL1       -0.0213
      8 C          -4.4897  -16.1669   24.8416 C.3     1  UNL1        0.0461
      9 C          -4.6415  -16.8683   23.5244 C.3     1  UNL1        0.1066
     10 N          -3.5237  -17.3155   22.6297 N.3     1  UNL1       -0.2703
     11 C          -2.4493  -16.4399   22.0560 C.3     1  UNL1        0.0722
     12 C          -1.5456  -17.3001   21.2233 C.3     1  UNL1        0.0188
     13 C          -2.0615  -18.7074   21.2823 C.3     1  UNL1        0.0188
     14 C          -3.2840  -18.7169   22.1514 C.3     1  UNL1        0.0722
     15 O          -6.7128  -17.6976   22.0523 O.3     1  UNL1       -0.4733
     16 C         -10.5876  -18.3060   21.4476 C.ar    1  UNL1        0.0533
     17 C         -10.8212  -19.5166   22.3019 C.ar    1  UNL1        0.0149
     18 C          -9.6853  -20.1209   23.0730 C.ar    1  UNL1        0.0044
     19 C          -8.3158  -19.5146   22.9898 C.ar    1  UNL1        0.0370
     20 C          -8.0822  -18.3040   22.1355 C.ar    1  UNL1        0.1402
     21 C          -9.2181  -17.6997   21.3644 C.ar    1  UNL1        0.0516
     22 C         -12.7451  -15.6990   19.3742 C.3     1  UNL1        0.0949
     23 C         -11.6094  -16.3035   20.1453 C.2     1  UNL1        0.2266
     24 O         -10.3594  -15.5096   20.3853 O.2     1  UNL1       -0.2748
     25 N         -11.7234  -17.7016   20.6765 N.am    1  UNL1       -0.2838
     26 H         -12.5438  -18.2226   20.5190 H       1  UNL1        0.1549
@<TRIPOS>BOND
     1    22    23    1
     2    23    24    2
     3    23    25   am
     4    25    16    1
     5    16    17   ar
     6    17    18   ar
     7    18    19   ar
     8    19    20   ar
     9    20    15    1
    10     1    15    1
    11     1     2    1
    12     2     3   ar
    13     3     4   ar
    14     4     5   ar
    15     5     6   ar
    16     6     7   ar
    17     7     8    1
    18     8     9    1
    19     9    10    1
    20    10    11    1
    21    11    12    1
    22    12    13    1
    23    13    14    1
    24    20    21   ar
    25    21    16   ar
    26     9     1    1
    27    14    10    1
    28     7     2   ar
    29    25    26    1
@<TRIPOS>MOLECULE
*****
 26 29 0 0 0
SMALL
GASTEIGER

@<TRIPOS>ATOM
      1 C          -6.7816  -18.9866   20.4140 C.3     1  UNL1        0.2026
      2 C          -7.5685  -19.9183   19.5406 C.ar    1  UNL1        0.0146
      3 C          -8.9177  -19.7919   18.8976 C.ar    1  UNL1       -0.0011
      4 C          -9.4572  -20.9130   18.0597 C.ar    1  UNL1       -0.0002
      5 C          -8.6473  -22.1605   17.8648 C.ar    1  UNL1       -0.0003
      6 C          -7.2981  -22.2869   18.5077 C.ar    1  UNL1       -0.0044
      7 C          -6.7586  -21.1658   19.3456 C.ar    1  UNL1       -0.0213
      8 C          -5.4713  -21.0050   20.0986 C.3     1  UNL1        0.0461
      9 C          -5.4855  -19.6583   20.7589 C.3     1  UNL1        0.1066
     10 N          -4.3950  -19.0840   21.6139 N.3     1  UNL1       -0.2703
     11 C          -2.9208  -19.2246   21.3750 C.3     1  UNL1        0.0722
     12 C          -2.2019  -18.4957   22.4713 C.3     1  UNL1        0.0188
     13 C          -3.2318  -17.9047   23.3879 C.3     1  UNL1        0.0188
     14 C          -4.5872  -18.2682   22.8579 C.3     1  UNL1        0.0722
     15 O          -7.2148  -17.6228   20.8636 O.3     1  UNL1       -0.4733
     16 C          -8.9463  -16.3470   24.1989 C.ar    1  UNL1        0.0533
     17 C         -10.1823  -17.1968   24.2195 C.ar    1  UNL1        0.0149
     18 C         -10.4290  -18.1885   23.1216 C.ar    1  UNL1        0.0044
     19 C          -9.4399  -18.3305   22.0029 C.ar    1  UNL1        0.0370
     20 C          -8.2040  -17.4808   21.9822 C.ar    1  UNL1        0.1402
     21 C          -7.9572  -16.4891   23.0802 C.ar    1  UNL1        0.0516
     22 C          -8.2677  -14.8376   27.8060 C.3     1  UNL1        0.0949
     23 C          -8.5146  -15.8292   26.7080 C.2     1  UNL1        0.2266
     24 O          -8.5765  -17.2949   27.0211 O.2     1  UNL1       -0.2748
     25 N          -8.6995  -15.3553   25.2969 N.am    1  UNL1       -0.2838
     26 H          -8.6589  -14.3934   25.0914 H       1  UNL1        0.1549
@<TRIPOS>BOND
     1    22    23    1
     2    23    24    2
     3    23    25   am
     4    25    16    1
     5    16    17   ar
     6    17    18   ar
     7    18    19   ar
     8    19    20   ar
     9    20    15    1
    10     1    15    1
    11     1     2    1
    12     2     3   ar
    13     3     4   ar
    14     4     5   ar
    15     5     6   ar
    16     6     7   ar
    17     7     8    1
    18     8     9    1
    19     9    10    1
    20    10    11    1
    21    11    12    1
    22    12    13    1
    23    13    14    1
    24    20    21   ar
    25    21    16   ar
    26     9     1    1
    27    14    10    1
    28     7     2   ar
    29    25    26    1
@<TRIPOS>MOLECULE
*****
 26 29 0 0 0
SMALL
GASTEIGER

@<TRIPOS>ATOM
      1 C          -6.5471  -16.3625   23.5500 C.3     1  UNL1        0.2026
      2 C          -7.1969  -15.8857   24.8151 C.ar    1  UNL1        0.0146
      3 C          -8.6162  -15.5256   25.1405 C.ar    1  UNL1       -0.0011
      4 C          -8.9763  -15.0707   26.5237 C.ar    1  UNL1       -0.0002
      5 C          -7.9171  -14.9760   27.5816 C.ar    1  UNL1       -0.0003
      6 C          -6.4978  -15.3361   27.2562 C.ar    1  UNL1       -0.0044
      7 C          -6.1377  -15.7909   25.8730 C.ar    1  UNL1       -0.0213
      8 C          -4.8334  -16.2092   25.2617 C.3     1  UNL1        0.0461
      9 C          -5.0864  -16.5624   23.8260 C.3     1  UNL1        0.1066
     10 N          -4.0590  -17.0330   22.8395 N.3     1  UNL1       -0.2703
     11 C          -4.0599  -18.3533   22.1277 C.3     1  UNL1        0.0722
     12 C          -2.8518  -18.4022   21.2399 C.3     1  UNL1        0.0188
     13 C          -2.1043  -17.1120   21.4031 C.3     1  UNL1        0.0188
     14 C          -2.8503  -16.2658   22.3917 C.3     1  UNL1        0.0722
     15 O          -7.2370  -16.5981   22.2391 O.3     1  UNL1       -0.4733
     16 C          -9.5397  -19.3789   20.5914 C.ar    1  UNL1        0.0533
     17 C         -10.1578  -19.9945   21.8116 C.ar    1  UNL1        0.0149
     18 C          -9.8023  -19.4780   23.1743 C.ar    1  UNL1        0.0044
     19 C          -8.8288  -18.3459   23.3168 C.ar    1  UNL1        0.0370
     20 C          -8.2106  -17.7302   22.0966 C.ar    1  UNL1        0.1402
     21 C          -8.5661  -18.2467   20.7339 C.ar    1  UNL1        0.0516
     22 C          -9.2695  -21.2515   17.1029 C.3     1  UNL1        0.0949
     23 C          -8.9141  -20.7350   18.4655 C.2     1  UNL1        0.2266
     24 O          -7.5777  -21.0583   19.0650 O.2     1  UNL1       -0.2748
     25 N          -9.8952  -19.8953   19.2287 N.am    1  UNL1       -0.2838
     26 H         -10.7723  -19.6831   18.8352 H       1  UNL1        0.1549
@<TRIPOS>BOND
     1    22    23    1
     2    23    24    2
     3    23    25   am
     4    25    16    1
     5    16    17   ar
     6    17    18   ar
     7    18    19   ar
     8    19    20   ar
     9    20    15    1
    10     1    15    1
    11     1     2    1
    12     2     3   ar
    13     3     4   ar
    14     4     5   ar
    15     5     6   ar
    16     6     7   ar
    17     7     8    1
    18     8     9    1
    19     9    10    1
    20    10    11    1
    21    11    12    1
    22    12    13    1
    23    13    14    1
    24    20    21   ar
    25    21    16   ar
    26     9     1    1
    27    14    10    1
    28     7     2   ar
    29    25    26    1
@<TRIPOS>MOLECULE
*****
 26 29 0 0 0
SMALL
GASTEIGER

@<TRIPOS>ATOM
      1 C          -6.0132  -19.5109   21.5632 C.3     1  UNL1        0.2026
      2 C          -4.6608  -18.9521   21.8927 C.ar    1  UNL1        0.0146
      3 C          -4.0655  -18.4558   23.1769 C.ar    1  UNL1       -0.0011
      4 C          -2.6560  -17.9435   23.2015 C.ar    1  UNL1       -0.0002
      5 C          -1.8417  -17.9275   21.9419 C.ar    1  UNL1       -0.0003
      6 C          -2.4369  -18.4238   20.6577 C.ar    1  UNL1       -0.0044
      7 C          -3.8465  -18.9361   20.6331 C.ar    1  UNL1       -0.0213
      8 C          -4.6957  -19.4850   19.5251 C.3     1  UNL1        0.0461
      9 C          -6.0349  -19.8403   20.1000 C.3     1  UNL1        0.1066
     10 N          -7.1924  -20.4226   19.3443 N.3     1  UNL1       -0.2703
     11 C          -7.2417  -21.7857   18.7201 C.3     1  UNL1        0.0722
     12 C          -8.5836  -21.9496   18.0702 C.3     1  UNL1        0.0188
     13 C          -9.3637  -20.6879   18.2927 C.3     1  UNL1        0.0188
     14 C          -8.5039  -19.7442   19.0802 C.3     1  UNL1        0.0722
     15 O          -7.1454  -19.7061   22.5277 O.3     1  UNL1       -0.4733
     16 C         -10.4984  -17.8683   23.5905 C.ar    1  UNL1        0.0533
     17 C         -10.2737  -16.5065   23.0030 C.ar    1  UNL1        0.0149
     18 C          -9.0062  -16.2113   22.2572 C.ar    1  UNL1        0.0044
     19 C          -7.9634  -17.2778   22.0987 C.ar    1  UNL1        0.0370
     20 C          -8.1881  -18.6396   22.6861 C.ar    1  UNL1        0.1402
     21 C          -9.4556  -18.9348   23.4320 C.ar    1  UNL1        0.0516
     22 C         -14.3566  -18.3524   24.3839 C.3     1  UNL1        0.0949
     23 C         -13.0891  -18.0572   23.6381 C.2     1  UNL1        0.2266
     24 O         -13.1450  -17.6554   22.1940 O.2     1  UNL1       -0.2748
     25 N         -11.7658  -18.1636   24.3364 N.am    1  UNL1       -0.2838
     26 H         -11.7292  -18.4272   25.2842 H       1  UNL1        0.1549
@<TRIPOS>BOND
     1    22    23    1
     2    23    24    2
     3    23    25   am
     4    25    16    1
     5    16    17   ar
     6    17    18   ar
     7    18    19   ar
     8    19    20   ar
     9    20    15    1
    10     1    15    1
    11     1     2    1
    12     2     3   ar
    13     3     4   ar
    14     4     5   ar
    15     5     6   ar
    16     6     7   ar
    17     7     8    1
    18     8     9    1
    19     9    10    1
    20    10    11    1
    21    11    12    1
    22    12    13    1
    23    13    14    1
    24    20    21   ar
    25    21    16   ar
    26     9     1    1
    27    14    10    1
    28     7     2   ar
    29    25    26    1
