@<TRIPOS>MOLECULE
*****
 15 16 0 0 0
SMALL
GASTEIGER

@<TRIPOS>ATOM
      1 C         -10.8675  -19.6836   21.8786 C.3     1  UNL1        0.0345
      2 C         -10.1218  -18.6105   22.6152 C.2     1  UNL1        0.0202
      3 C          -9.4498  -17.5065   21.8539 C.2     1  UNL1        0.0410
      4 C          -8.7041  -16.4335   22.5904 C.2     1  UNL1        0.1984
      5 O          -8.0321  -15.3295   21.8291 O.2     1  UNL1       -0.2865
      6 C          -8.6303  -16.4644   24.0883 C.ar    1  UNL1        0.0756
      7 C          -7.8846  -15.3914   24.8248 C.ar    1  UNL1        0.1368
      8 O          -7.2126  -14.2874   24.0635 O.3     1  UNL1       -0.5054
      9 C          -7.8109  -15.4224   26.3227 C.ar    1  UNL1        0.0367
     10 C          -8.4828  -16.5264   27.0840 C.ar    1  UNL1        0.0032
     11 C          -9.2286  -17.5994   26.3475 C.ar    1  UNL1        0.0035
     12 C          -9.3023  -17.5684   24.8497 C.ar    1  UNL1        0.0446
     13 C         -10.0481  -18.6415   24.1131 C.2     1  UNL1        0.1919
     14 O         -10.7200  -19.7455   24.8744 O.2     1  UNL1       -0.2869
     15 H          -7.2587  -14.2681   23.1278 H       1  UNL1        0.2922
@<TRIPOS>BOND
     1     1     2    1
     2     2     3    2
     3     3     4    1
     4     4     5    2
     5     4     6    1
     6     6     7   ar
     7     7     8    1
     8     7     9   ar
     9     9    10   ar
    10    10    11   ar
    11    11    12   ar
    12    12    13    1
    13    13    14    2
    14    13     2    1
    15    12     6   ar
    16     8    15    1
@<TRIPOS>MOLECULE
*****
 15 16 0 0 0
SMALL
GASTEIGER

@<TRIPOS>ATOM
      1 C          -6.8974  -19.9864   20.8782 C.3     1  UNL1        0.0345
      2 C          -8.1662  -19.6310   21.5952 C.2     1  UNL1        0.0202
      3 C          -8.3209  -19.9554   23.0515 C.2     1  UNL1        0.0410
      4 C          -9.5896  -19.6000   23.7684 C.2     1  UNL1        0.1984
      5 O          -9.7442  -19.9245   25.2247 O.2     1  UNL1       -0.2865
      6 C         -10.7037  -18.9202   23.0291 C.ar    1  UNL1        0.0756
      7 C         -11.9724  -18.5648   23.7460 C.ar    1  UNL1        0.1368
      8 O         -12.1271  -18.8893   25.2023 O.3     1  UNL1       -0.5054
      9 C         -13.0864  -17.8850   23.0067 C.ar    1  UNL1        0.0367
     10 C         -12.9318  -17.5605   21.5504 C.ar    1  UNL1        0.0032
     11 C         -11.6631  -17.9159   20.8334 C.ar    1  UNL1        0.0035
     12 C         -10.5491  -18.5957   21.5728 C.ar    1  UNL1        0.0446
     13 C          -9.2803  -18.9511   20.8558 C.2     1  UNL1        0.1919
     14 O          -9.1256  -18.6267   19.3995 O.2     1  UNL1       -0.2869
     15 H         -11.4311  -19.3139   25.6642 H       1  UNL1        0.2922
@<TRIPOS>BOND
     1     1     2    1
     2     2     3    2
     3     3     4    1
     4     4     5    2
     5     4     6    1
     6     6     7   ar
     7     7     8    1
     8     7     9   ar
     9     9    10   ar
    10    10    11   ar
    11    11    12   ar
    12    12    13    1
    13    13    14    2
    14    13     2    1
    15    12     6   ar
    16     8    15    1
@<TRIPOS>MOLECULE
*****
 15 16 0 0 0
SMALL
GASTEIGER

@<TRIPOS>ATOM
      1 C          -7.2226  -20.3067   22.3364 C.3     1  UNL1        0.0345
      2 C          -8.5374  -19.5925   22.2296 C.2     1  UNL1        0.0202
      3 C          -8.8658  -18.8065   20.9949 C.2     1  UNL1        0.0410
      4 C         -10.1805  -18.0923   20.8881 C.2     1  UNL1        0.1984
      5 O         -10.5089  -17.3064   19.6534 O.2     1  UNL1       -0.2865
      6 C         -11.1668  -18.1640   22.0160 C.ar    1  UNL1        0.0756
      7 C         -12.4815  -17.4497   21.9092 C.ar    1  UNL1        0.1368
      8 O         -12.8099  -16.6638   20.6745 O.3     1  UNL1       -0.5054
      9 C         -13.4677  -17.5214   23.0370 C.ar    1  UNL1        0.0367
     10 C         -13.1393  -18.3073   24.2717 C.ar    1  UNL1        0.0032
     11 C         -11.8246  -19.0216   24.3786 C.ar    1  UNL1        0.0035
     12 C         -10.8384  -18.9499   23.2507 C.ar    1  UNL1        0.0446
     13 C          -9.5236  -19.6642   23.3575 C.2     1  UNL1        0.1919
     14 O          -9.1952  -20.4501   24.5922 O.2     1  UNL1       -0.2869
     15 H         -12.1938  -16.6190   19.9699 H       1  UNL1        0.2922
@<TRIPOS>BOND
     1     1     2    1
     2     2     3    2
     3     3     4    1
     4     4     5    2
     5     4     6    1
     6     6     7   ar
     7     7     8    1
     8     7     9   ar
     9     9    10   ar
    10    10    11   ar
    11    11    12   ar
    12    12    13    1
    13    13    14    2
    14    13     2    1
    15    12     6   ar
    16     8    15    1
@<TRIPOS>MOLECULE
*****
 15 16 0 0 0
SMALL
GASTEIGER

@<TRIPOS>ATOM
      1 C         -13.9292  -17.8453   24.0902 C.3     1  UNL1        0.0345
      2 C         -12.6179  -18.3048   23.5250 C.2     1  UNL1        0.0202
      3 C         -11.5832  -18.9097   24.4269 C.2     1  UNL1        0.0410
      4 C         -10.2720  -19.3692   23.8618 C.2     1  UNL1        0.1984
      5 O          -9.2373  -19.9741   24.7637 O.2     1  UNL1       -0.2865
      6 C          -9.9954  -19.2239   22.3947 C.ar    1  UNL1        0.0756
      7 C          -8.6841  -19.6834   21.8295 C.ar    1  UNL1        0.1368
      8 O          -7.6494  -20.2883   22.7315 O.3     1  UNL1       -0.5054
      9 C          -8.4075  -19.5380   20.3625 C.ar    1  UNL1        0.0367
     10 C          -9.4422  -18.9331   19.4605 C.ar    1  UNL1        0.0032
     11 C         -10.7535  -18.4736   20.0256 C.ar    1  UNL1        0.0035
     12 C         -11.0300  -18.6189   21.4927 C.ar    1  UNL1        0.0446
     13 C         -12.3414  -18.1594   22.0579 C.2     1  UNL1        0.1919
     14 O         -13.3760  -17.5545   21.1560 O.2     1  UNL1       -0.2869
     15 H          -7.8222  -20.3791   23.6479 H       1  UNL1        0.2922
@<TRIPOS>BOND
     1     1     2    1
     2     2     3    2
     3     3     4    1
     4     4     5    2
     5     4     6    1
     6     6     7   ar
     7     7     8    1
     8     7     9   ar
     9     9    10   ar
    10    10    11   ar
    11    11    12   ar
    12    12    13    1
    13    13    14    2
    14    13     2    1
    15    12     6   ar
    16     8    15    1
@<TRIPOS>MOLECULE
*****
 15 16 0 0 0
SMALL
GASTEIGER

@<TRIPOS>ATOM
      1 C         -12.3547  -15.8798   22.8276 C.3     1  UNL1        0.0345
      2 C         -11.0820  -16.5630   22.4233 C.2     1  UNL1        0.0202
      3 C          -9.8207  -16.3180   23.1974 C.2     1  UNL1        0.0410
      4 C          -8.5480  -17.0012   22.7931 C.2     1  UNL1        0.1984
      5 O          -7.2867  -16.7562   23.5672 O.2     1  UNL1       -0.2865
      6 C          -8.5364  -17.9293   21.6148 C.ar    1  UNL1        0.0756
      7 C          -7.2637  -18.6124   21.2105 C.ar    1  UNL1        0.1368
      8 O          -6.0024  -18.3674   21.9846 O.3     1  UNL1       -0.5054
      9 C          -7.2522  -19.5404   20.0322 C.ar    1  UNL1        0.0367
     10 C          -8.5135  -19.7854   19.2581 C.ar    1  UNL1        0.0032
     11 C          -9.7862  -19.1023   19.6623 C.ar    1  UNL1        0.0035
     12 C          -9.7977  -18.1742   20.8407 C.ar    1  UNL1        0.0446
     13 C         -11.0705  -17.4911   21.2450 C.2     1  UNL1        0.1919
     14 O         -12.3317  -17.7360   20.4709 O.2     1  UNL1       -0.2869
     15 H          -6.0096  -17.7877   22.7207 H       1  UNL1        0.2922
@<TRIPOS>BOND
     1     1     2    1
     2     2     3    2
     3     3     4    1
     4     4     5    2
     5     4     6    1
     6     6     7   ar
     7     7     8    1
     8     7     9   ar
     9     9    10   ar
    10    10    11   ar
    11    11    12   ar
    12    12    13    1
    13    13    14    2
    14    13     2    1
    15    12     6   ar
    16     8    15    1
@<TRIPOS>MOLECULE
*****
 15 16 0 0 0
SMALL
GASTEIGER

@<TRIPOS>ATOM
      1 C         -16.4131   -4.5907   19.7939 C.3     1  UNL1        0.0345
      2 C         -14.9263   -4.5776   19.5961 C.2     1  UNL1        0.0202
      3 C         -14.1762   -3.2791   19.6333 C.2     1  UNL1        0.0410
      4 C         -12.6894   -3.2659   19.4355 C.2     1  UNL1        0.1984
      5 O         -11.9393   -1.9675   19.4728 O.2     1  UNL1       -0.2865
      6 C         -11.9525   -4.5512   19.2004 C.ar    1  UNL1        0.0756
      7 C         -10.4657   -4.5380   19.0026 C.ar    1  UNL1        0.1368
      8 O          -9.7157   -3.2396   19.0399 O.3     1  UNL1       -0.5054
      9 C          -9.7290   -5.8233   18.7675 C.ar    1  UNL1        0.0367
     10 C         -10.4791   -7.1217   18.7302 C.ar    1  UNL1        0.0032
     11 C         -11.9659   -7.1349   18.9281 C.ar    1  UNL1        0.0035
     12 C         -12.7026   -5.8497   19.1631 C.ar    1  UNL1        0.0446
     13 C         -14.1895   -5.8628   19.3610 C.2     1  UNL1        0.1919
     14 O         -14.9396   -7.1613   19.3237 O.2     1  UNL1       -0.2869
     15 H         -10.1759   -2.4367   19.1868 H       1  UNL1        0.2922
@<TRIPOS>BOND
     1     1     2    1
     2     2     3    2
     3     3     4    1
     4     4     5    2
     5     4     6    1
     6     6     7   ar
     7     7     8    1
     8     7     9   ar
     9     9    10   ar
    10    10    11   ar
    11    11    12   ar
    12    12    13    1
    13    13    14    2
    14    13     2    1
    15    12     6   ar
    16     8    15    1
@<TRIPOS>MOLECULE
*****
 15 16 0 0 0
SMALL
GASTEIGER

@<TRIPOS>ATOM
      1 C          -6.7236  -20.2378   20.1053 C.3     1  UNL1        0.0345
      2 C          -7.6648  -19.2881   20.7852 C.2     1  UNL1        0.0202
      3 C          -7.1815  -18.4401   21.9243 C.2     1  UNL1        0.0410
      4 C          -8.1226  -17.4904   22.6042 C.2     1  UNL1        0.1984
      5 O          -7.6393  -16.6424   23.7432 O.2     1  UNL1       -0.2865
      6 C          -9.5470  -17.3886   22.1451 C.ar    1  UNL1        0.0756
      7 C         -10.4881  -16.4388   22.8250 C.ar    1  UNL1        0.1368
      8 O         -10.0048  -15.5909   23.9641 O.3     1  UNL1       -0.5054
      9 C         -11.9124  -16.3371   22.3659 C.ar    1  UNL1        0.0367
     10 C         -12.3957  -17.1850   21.2268 C.ar    1  UNL1        0.0032
     11 C         -11.4546  -18.1347   20.5469 C.ar    1  UNL1        0.0035
     12 C         -10.0303  -18.2365   21.0060 C.ar    1  UNL1        0.0446
     13 C          -9.0891  -19.1863   20.3261 C.2     1  UNL1        0.1919
     14 O          -9.5724  -20.0342   19.1870 O.2     1  UNL1       -0.2869
     15 H          -9.1151  -15.6545   24.2508 H       1  UNL1        0.2922
@<TRIPOS>BOND
     1     1     2    1
     2     2     3    2
     3     3     4    1
     4     4     5    2
     5     4     6    1
     6     6     7   ar
     7     7     8    1
     8     7     9   ar
     9     9    10   ar
    10    10    11   ar
    11    11    12   ar
    12    12    13    1
    13    13    14    2
    14    13     2    1
    15    12     6   ar
    16     8    15    1
@<TRIPOS>MOLECULE
*****
 15 16 0 0 0
SMALL
GASTEIGER

@<TRIPOS>ATOM
      1 C          -7.0552  -15.8727   24.5190 C.3     1  UNL1        0.0345
      2 C          -8.0405  -16.4648   23.5553 C.2     1  UNL1        0.0202
      3 C          -9.4842  -16.0622   23.6165 C.2     1  UNL1        0.0410
      4 C         -10.4694  -16.6542   22.6529 C.2     1  UNL1        0.1984
      5 O         -11.9131  -16.2516   22.7141 O.2     1  UNL1       -0.2865
      6 C         -10.0111  -17.6489   21.6279 C.ar    1  UNL1        0.0756
      7 C         -10.9963  -18.2410   20.6642 C.ar    1  UNL1        0.1368
      8 O         -12.4400  -17.8384   20.7255 O.3     1  UNL1       -0.5054
      9 C         -10.5379  -19.2356   19.6393 C.ar    1  UNL1        0.0367
     10 C          -9.0943  -19.6382   19.5780 C.ar    1  UNL1        0.0032
     11 C          -8.1090  -19.0462   20.5417 C.ar    1  UNL1        0.0035
     12 C          -8.5674  -18.0515   21.5666 C.ar    1  UNL1        0.0446
     13 C          -7.5821  -17.4594   22.5304 C.2     1  UNL1        0.1919
     14 O          -6.1384  -17.8620   22.4691 O.2     1  UNL1       -0.2869
     15 H         -12.7263  -17.2171   21.3657 H       1  UNL1        0.2922
@<TRIPOS>BOND
     1     1     2    1
     2     2     3    2
     3     3     4    1
     4     4     5    2
     5     4     6    1
     6     6     7   ar
     7     7     8    1
     8     7     9   ar
     9     9    10   ar
    10    10    11   ar
    11    11    12   ar
    12    12    13    1
    13    13    14    2
    14    13     2    1
    15    12     6   ar
    16     8    15    1
@<TRIPOS>MOLECULE
*****
 15 16 0 0 0
SMALL
GASTEIGER

@<TRIPOS>ATOM
      1 C          -3.2653  -19.1696   22.3617 C.3     1  UNL1        0.0345
      2 C          -4.4461  -18.3043   22.6892 C.2     1  UNL1        0.0202
      3 C          -4.2451  -16.9991   23.4004 C.2     1  UNL1        0.0410
      4 C          -5.4258  -16.1338   23.7280 C.2     1  UNL1        0.1984
      5 O          -5.2249  -14.8285   24.4392 O.2     1  UNL1       -0.2865
      6 C          -6.8076  -16.5739   23.3443 C.ar    1  UNL1        0.0756
      7 C          -7.9883  -15.7087   23.6718 C.ar    1  UNL1        0.1368
      8 O          -7.7873  -14.4034   24.3830 O.3     1  UNL1       -0.5054
      9 C          -9.3700  -16.1488   23.2881 C.ar    1  UNL1        0.0367
     10 C          -9.5710  -17.4540   22.5769 C.ar    1  UNL1        0.0032
     11 C          -8.3903  -18.3193   22.2494 C.ar    1  UNL1        0.0035
     12 C          -7.0086  -17.8792   22.6331 C.ar    1  UNL1        0.0446
     13 C          -5.8278  -18.7444   22.3056 C.2     1  UNL1        0.1919
     14 O          -6.0288  -20.0497   21.5944 O.2     1  UNL1       -0.2869
     15 H          -6.9242  -14.1285   24.6227 H       1  UNL1        0.2922
@<TRIPOS>BOND
     1     1     2    1
     2     2     3    2
     3     3     4    1
     4     4     5    2
     5     4     6    1
     6     6     7   ar
     7     7     8    1
     8     7     9   ar
     9     9    10   ar
    10    10    11   ar
    11    11    12   ar
    12    12    13    1
    13    13    14    2
    14    13     2    1
    15    12     6   ar
    16     8    15    1
