@<TRIPOS>MOLECULE
*****
 27 30 0 0 0
SMALL
GASTEIGER

@<TRIPOS>ATOM
      1 C          -7.7101  -18.0348   22.7347 C.3     1  UNL1        0.2027
      2 C          -8.6655  -18.2672   21.6019 C.ar    1  UNL1        0.0176
      3 C          -8.7282  -19.3281   20.5435 C.ar    1  UNL1        0.0104
      4 C          -9.8239  -19.3021   19.5195 C.ar    1  UNL1        0.0597
      5 CL         -9.8867  -20.3631   18.4610 Cl      1  UNL1       -0.0822
      6 C         -10.8570  -18.2151   19.5540 C.ar    1  UNL1        0.0407
      7 C         -10.7943  -17.1541   20.6124 C.ar    1  UNL1        0.1368
      8 F         -11.8274  -16.0671   20.6469 F       1  UNL1       -0.2045
      9 C          -9.6985  -17.1802   21.6364 C.ar    1  UNL1        0.0062
     10 C          -9.3816  -16.2760   22.7905 C.3     1  UNL1        0.0484
     11 C          -8.1527  -16.8041   23.4693 C.3     1  UNL1        0.1066
     12 N          -7.4839  -16.2066   24.6717 N.3     1  UNL1       -0.2703
     13 C          -6.1347  -15.5515   24.6955 C.3     1  UNL1        0.0722
     14 C          -5.8637  -15.0993   26.0998 C.3     1  UNL1        0.0188
     15 C          -7.0454  -15.4749   26.9439 C.3     1  UNL1        0.0188
     16 C          -8.0467  -16.1592   26.0612 C.3     1  UNL1        0.0722
     17 O          -6.5209  -18.8839   23.0735 O.3     1  UNL1       -0.4734
     18 C          -2.5281  -18.0198   21.1867 C.ar    1  UNL1        0.1059
     19 C          -2.8491  -17.4736   22.5463 C.ar    1  UNL1        0.0215
     20 C          -4.1800  -17.7616   23.1752 C.ar    1  UNL1        0.0382
     21 C          -5.1900  -18.5959   22.4446 C.ar    1  UNL1        0.1390
     22 C          -4.8690  -19.1421   21.0849 C.ar    1  UNL1        0.0382
     23 C          -3.5381  -18.8541   20.4559 C.ar    1  UNL1        0.0215
     24 C           0.1338  -17.4437   19.9287 C.3     1  UNL1        0.1816
     25 S          -1.1971  -17.7318   20.5577 S.O2    1  UNL1        0.0105
     26 O          -1.3109  -16.2953   20.9746 O.2     1  UNL1       -0.1686
     27 O          -1.0833  -19.1682   20.1408 O.2     1  UNL1       -0.1686
@<TRIPOS>BOND
     1    24    25    1
     2    25    26    2
     3    25    27    2
     4    25    18    1
     5    18    19   ar
     6    19    20   ar
     7    20    21   ar
     8    21    17    1
     9     1    17    1
    10     1     2    1
    11     2     3   ar
    12     3     4   ar
    13     4     5    1
    14     4     6   ar
    15     6     7   ar
    16     7     8    1
    17     7     9   ar
    18     9    10    1
    19    10    11    1
    20    11    12    1
    21    12    13    1
    22    13    14    1
    23    14    15    1
    24    15    16    1
    25    21    22   ar
    26    22    23   ar
    27    23    18   ar
    28    11     1    1
    29    16    12    1
    30     9     2   ar
@<TRIPOS>MOLECULE
*****
 27 30 0 0 0
SMALL
GASTEIGER

@<TRIPOS>ATOM
      1 C          -8.3373  -19.2711   21.3293 C.3     1  UNL1        0.2027
      2 C          -8.9027  -18.1657   22.1710 C.ar    1  UNL1        0.0176
      3 C          -8.4647  -17.5753   23.4785 C.ar    1  UNL1        0.0104
      4 C          -9.2461  -16.4524   24.0935 C.ar    1  UNL1        0.0597
      5 CL         -8.8081  -15.8619   25.4011 Cl      1  UNL1       -0.0822
      6 C         -10.4655  -15.9198   23.4011 C.ar    1  UNL1        0.0407
      7 C         -10.9035  -16.5102   22.0936 C.ar    1  UNL1        0.1368
      8 F         -12.1229  -15.9777   21.4012 F       1  UNL1       -0.2045
      9 C         -10.1221  -17.6332   21.4786 C.ar    1  UNL1        0.0062
     10 C         -10.3103  -18.4095   20.2090 C.3     1  UNL1        0.0484
     11 C          -9.2072  -19.4218   20.1167 C.3     1  UNL1        0.1066
     12 N          -9.0090  -20.4110   19.0067 N.3     1  UNL1       -0.2703
     13 C          -9.7306  -20.4171   17.6917 C.3     1  UNL1        0.0722
     14 C          -9.2219  -21.5777   16.8891 C.3     1  UNL1        0.0188
     15 C          -8.1858  -22.2890   17.7080 C.3     1  UNL1        0.0188
     16 C          -8.0542  -21.5679   19.0168 C.3     1  UNL1        0.0722
     17 O          -7.1163  -20.0833   21.6449 O.3     1  UNL1       -0.4734
     18 C          -3.0242  -18.4239   20.7783 C.ar    1  UNL1        0.1059
     19 C          -3.5077  -18.5258   22.1945 C.ar    1  UNL1        0.0215
     20 C          -4.8717  -19.0789   22.4834 C.ar    1  UNL1        0.0382
     21 C          -5.7523  -19.5302   21.3561 C.ar    1  UNL1        0.1390
     22 C          -5.2687  -19.4283   19.9397 C.ar    1  UNL1        0.0382
     23 C          -3.9047  -18.8752   19.6508 C.ar    1  UNL1        0.0215
     24 C          -0.2961  -17.3177   20.2004 C.3     1  UNL1        0.1816
     25 S          -1.6602  -17.8708   20.4894 S.O2    1  UNL1        0.0105
     26 O          -2.2190  -16.4790   20.5151 O.2     1  UNL1       -0.1686
     27 O          -1.1013  -19.2626   20.4636 O.2     1  UNL1       -0.1686
@<TRIPOS>BOND
     1    24    25    1
     2    25    26    2
     3    25    27    2
     4    25    18    1
     5    18    19   ar
     6    19    20   ar
     7    20    21   ar
     8    21    17    1
     9     1    17    1
    10     1     2    1
    11     2     3   ar
    12     3     4   ar
    13     4     5    1
    14     4     6   ar
    15     6     7   ar
    16     7     8    1
    17     7     9   ar
    18     9    10    1
    19    10    11    1
    20    11    12    1
    21    12    13    1
    22    13    14    1
    23    14    15    1
    24    15    16    1
    25    21    22   ar
    26    22    23   ar
    27    23    18   ar
    28    11     1    1
    29    16    12    1
    30     9     2   ar
@<TRIPOS>MOLECULE
*****
 27 30 0 0 0
SMALL
GASTEIGER

@<TRIPOS>ATOM
      1 C          -6.2463  -17.4954   22.6938 C.3     1  UNL1        0.2027
      2 C          -6.4515  -16.7546   23.9819 C.ar    1  UNL1        0.0176
      3 C          -7.6900  -16.2629   24.6706 C.ar    1  UNL1        0.0104
      4 C          -7.5826  -15.5371   25.9789 C.ar    1  UNL1        0.0597
      5 CL         -8.8211  -15.0454   26.6677 Cl      1  UNL1       -0.0822
      6 C          -6.2367  -15.3032   26.5985 C.ar    1  UNL1        0.0407
      7 C          -4.9983  -15.7949   25.9098 C.ar    1  UNL1        0.1368
      8 F          -3.6524  -15.5609   26.5294 F       1  UNL1       -0.2045
      9 C          -5.1057  -16.5206   24.6015 C.ar    1  UNL1        0.0062
     10 C          -4.0687  -17.1168   23.6964 C.3     1  UNL1        0.0484
     11 C          -4.7737  -17.7193   22.5174 C.3     1  UNL1        0.1066
     12 N          -4.1207  -18.4222   21.3643 N.3     1  UNL1       -0.2703
     13 C          -2.8626  -17.9939   20.6687 C.3     1  UNL1        0.0722
     14 C          -2.5754  -18.9839   19.5789 C.3     1  UNL1        0.0188
     15 C          -3.6560  -20.0240   19.6010 C.3     1  UNL1        0.0188
     16 C          -4.6110  -19.6769   20.7045 C.3     1  UNL1        0.0722
     17 O          -7.3246  -17.9352   21.7483 O.3     1  UNL1       -0.4734
     18 C         -11.6026  -18.1012   23.1341 C.ar    1  UNL1        0.1059
     19 C         -11.1072  -16.9088   22.3708 C.ar    1  UNL1        0.0215
     20 C          -9.6812  -16.8534   21.9088 C.ar    1  UNL1        0.0382
     21 C          -8.7505  -17.9905   22.2102 C.ar    1  UNL1        0.1390
     22 C          -9.2459  -19.1830   22.9736 C.ar    1  UNL1        0.0382
     23 C         -10.6719  -19.2384   23.4355 C.ar    1  UNL1        0.0215
     24 C         -14.4546  -18.2120   24.0580 C.3     1  UNL1        0.1816
     25 S         -13.0286  -18.1566   23.5960 S.O2    1  UNL1        0.0105
     26 O         -12.5778  -18.6894   24.9239 O.2     1  UNL1       -0.1686
     27 O         -13.4794  -17.6239   22.2683 O.2     1  UNL1       -0.1686
@<TRIPOS>BOND
     1    24    25    1
     2    25    26    2
     3    25    27    2
     4    25    18    1
     5    18    19   ar
     6    19    20   ar
     7    20    21   ar
     8    21    17    1
     9     1    17    1
    10     1     2    1
    11     2     3   ar
    12     3     4   ar
    13     4     5    1
    14     4     6   ar
    15     6     7   ar
    16     7     8    1
    17     7     9   ar
    18     9    10    1
    19    10    11    1
    20    11    12    1
    21    12    13    1
    22    13    14    1
    23    14    15    1
    24    15    16    1
    25    21    22   ar
    26    22    23   ar
    27    23    18   ar
    28    11     1    1
    29    16    12    1
    30     9     2   ar
@<TRIPOS>MOLECULE
*****
 27 30 0 0 0
SMALL
GASTEIGER

@<TRIPOS>ATOM
      1 C          -6.9702  -18.3798   22.1404 C.3     1  UNL1        0.2027
      2 C          -6.8253  -17.3540   23.2252 C.ar    1  UNL1        0.0176
      3 C          -5.7077  -17.0531   24.1793 C.ar    1  UNL1        0.0104
      4 C          -5.8516  -15.9419   25.1765 C.ar    1  UNL1        0.0597
      5 CL         -4.7340  -15.6410   26.1306 Cl      1  UNL1       -0.0822
      6 C          -7.1132  -15.1316   25.2196 C.ar    1  UNL1        0.0407
      7 C          -8.2309  -15.4325   24.2656 C.ar    1  UNL1        0.1368
      8 F          -9.4924  -14.6222   24.3087 F       1  UNL1       -0.2045
      9 C          -8.0869  -16.5437   23.2683 C.ar    1  UNL1        0.0062
     10 C          -9.0114  -17.0687   22.2102 C.3     1  UNL1        0.0484
     11 C          -8.3212  -18.2035   21.5130 C.3     1  UNL1        0.1066
     12 N          -8.8834  -19.0188   20.3864 N.3     1  UNL1       -0.2703
     13 C         -10.3389  -19.2234   20.0869 C.3     1  UNL1        0.0722
     14 C         -10.4438  -20.1037   18.8769 C.3     1  UNL1        0.0188
     15 C          -9.0532  -20.4431   18.4286 C.3     1  UNL1        0.0188
     16 C          -8.0889  -19.7726   19.3615 C.3     1  UNL1        0.0722
     17 O          -5.9440  -19.4023   21.7512 O.3     1  UNL1       -0.4734
     18 C          -1.7961  -18.0992   20.5908 C.ar    1  UNL1        0.1059
     19 C          -2.8512  -18.2681   19.5381 C.ar    1  UNL1        0.0215
     20 C          -4.2339  -18.7025   19.9249 C.ar    1  UNL1        0.0382
     21 C          -4.5615  -18.9680   21.3644 C.ar    1  UNL1        0.1390
     22 C          -3.5063  -18.7990   22.4171 C.ar    1  UNL1        0.0382
     23 C          -2.1237  -18.3646   22.0304 C.ar    1  UNL1        0.0215
     24 C           0.9692  -17.2304   19.8173 C.3     1  UNL1        0.1816
     25 S          -0.4135  -17.6648   20.2041 S.O2    1  UNL1        0.0105
     26 O          -0.7515  -16.2529   20.5814 O.2     1  UNL1       -0.1686
     27 O          -0.0755  -19.0767   19.8268 O.2     1  UNL1       -0.1686
@<TRIPOS>BOND
     1    24    25    1
     2    25    26    2
     3    25    27    2
     4    25    18    1
     5    18    19   ar
     6    19    20   ar
     7    20    21   ar
     8    21    17    1
     9     1    17    1
    10     1     2    1
    11     2     3   ar
    12     3     4   ar
    13     4     5    1
    14     4     6   ar
    15     6     7   ar
    16     7     8    1
    17     7     9   ar
    18     9    10    1
    19    10    11    1
    20    11    12    1
    21    12    13    1
    22    13    14    1
    23    14    15    1
    24    15    16    1
    25    21    22   ar
    26    22    23   ar
    27    23    18   ar
    28    11     1    1
    29    16    12    1
    30     9     2   ar
@<TRIPOS>MOLECULE
*****
 27 30 0 0 0
SMALL
GASTEIGER

@<TRIPOS>ATOM
      1 C          -5.8281  -17.8919   23.0822 C.3     1  UNL1        0.2027
      2 C          -4.7400  -18.2224   22.1041 C.ar    1  UNL1        0.0176
      3 C          -4.6656  -19.2168   20.9836 C.ar    1  UNL1        0.0104
      4 C          -3.4183  -19.3237   20.1573 C.ar    1  UNL1        0.0597
      5 CL         -3.3438  -20.3182   19.0368 Cl      1  UNL1       -0.0822
      6 C          -2.2454  -18.4361   20.4515 C.ar    1  UNL1        0.0407
      7 C          -2.3198  -17.4417   21.5720 C.ar    1  UNL1        0.1368
      8 F          -1.1469  -16.5541   21.8662 F       1  UNL1       -0.2045
      9 C          -3.5671  -17.3348   22.3983 C.ar    1  UNL1        0.0062
     10 C          -3.9304  -16.4558   23.5582 C.3     1  UNL1        0.0484
     11 C          -5.3278  -16.8001   23.9809 C.3     1  UNL1        0.1066
     12 N          -6.0909  -16.1643   25.1049 N.3     1  UNL1       -0.2703
     13 C          -7.5616  -15.8692   25.1162 C.3     1  UNL1        0.0722
     14 C          -7.8969  -15.2344   26.4332 C.3     1  UNL1        0.0188
     15 C          -6.6335  -15.1372   27.2359 C.3     1  UNL1        0.0188
     16 C          -5.5174  -15.7119   26.4150 C.3     1  UNL1        0.0722
     17 O          -7.1794  -18.5396   23.1497 O.3     1  UNL1       -0.4734
     18 C         -10.6160  -16.8257   20.8040 C.ar    1  UNL1        0.1059
     19 C         -10.5010  -18.3096   20.9902 C.ar    1  UNL1        0.0215
     20 C          -9.3555  -18.8810   21.7721 C.ar    1  UNL1        0.0382
     21 C          -8.3249  -17.9684   22.3678 C.ar    1  UNL1        0.1390
     22 C          -8.4398  -16.4844   22.1816 C.ar    1  UNL1        0.0382
     23 C          -9.5853  -15.9130   21.3997 C.ar    1  UNL1        0.0215
     24 C         -12.9069  -15.6830   19.2402 C.3     1  UNL1        0.1816
     25 S         -11.7614  -16.2544   20.0221 S.O2    1  UNL1        0.0105
     26 O         -12.7177  -17.1140   20.7946 O.2     1  UNL1       -0.1686
     27 O         -10.8053  -15.3947   19.2495 O.2     1  UNL1       -0.1686
@<TRIPOS>BOND
     1    24    25    1
     2    25    26    2
     3    25    27    2
     4    25    18    1
     5    18    19   ar
     6    19    20   ar
     7    20    21   ar
     8    21    17    1
     9     1    17    1
    10     1     2    1
    11     2     3   ar
    12     3     4   ar
    13     4     5    1
    14     4     6   ar
    15     6     7   ar
    16     7     8    1
    17     7     9   ar
    18     9    10    1
    19    10    11    1
    20    11    12    1
    21    12    13    1
    22    13    14    1
    23    14    15    1
    24    15    16    1
    25    21    22   ar
    26    22    23   ar
    27    23    18   ar
    28    11     1    1
    29    16    12    1
    30     9     2   ar
