@<TRIPOS>MOLECULE
*****
 16 17 0 0 0
SMALL
GASTEIGER

@<TRIPOS>ATOM
      1 C          -5.7504  -19.2047   20.6945 C.ar    1  UNL1        0.1063
      2 C          -5.2471  -19.5022   22.0758 C.ar    1  UNL1        0.0199
      3 C          -3.7859  -19.3676   22.3869 C.ar    1  UNL1        0.0210
      4 C          -2.8280  -18.9353   21.3166 C.ar    1  UNL1        0.0893
      5 N          -1.3441  -18.7160   21.3266 N.ar    1  UNL1       -0.2245
      6 C          -0.9303  -18.2829   19.9514 C.ar    1  UNL1        0.1567
      7 N           0.4664  -17.9555   19.5130 N.pl3   1  UNL1       -0.3375
      8 S          -2.1584  -18.2345   19.0915 S.2     1  UNL1       -0.0519
      9 C          -3.3312  -18.6378   19.9353 C.ar    1  UNL1        0.0510
     10 C          -4.7924  -18.7724   19.6242 C.ar    1  UNL1        0.0264
     11 H           1.2108  -18.0173   20.1544 H       1  UNL1        0.1442
     12 H           0.6387  -17.6790   18.5840 H       1  UNL1        0.1442
     13 C          -8.6728  -19.4740   20.0723 C.3     1  UNL1        0.1816
     14 S          -7.2116  -19.3393   20.3834 S.O2    1  UNL1        0.0105
     15 O          -6.9763  -20.7332   19.8818 O.2     1  UNL1       -0.1686
     16 O          -7.4468  -17.9454   20.8850 O.2     1  UNL1       -0.1686
@<TRIPOS>BOND
     1    13    14    1
     2    14    15    2
     3    14    16    2
     4    14     1    1
     5     1     2   ar
     6     2     3   ar
     7     3     4   ar
     8     4     5   ar
     9     5     6   ar
    10     6     7    1
    11     6     8   ar
    12     8     9   ar
    13     9    10   ar
    14    10     1   ar
    15     9     4   ar
    16     7    11    1
    17     7    12    1
@<TRIPOS>MOLECULE
*****
 16 17 0 0 0
SMALL
GASTEIGER

@<TRIPOS>ATOM
      1 C         -11.2221  -18.5010   22.1175 C.ar    1  UNL1        0.1063
      2 C         -11.4560  -18.9762   20.7141 C.ar    1  UNL1        0.0199
      3 C         -10.2900  -19.2566   19.8131 C.ar    1  UNL1        0.0210
      4 C          -8.8901  -19.0619   20.3155 C.ar    1  UNL1        0.0893
      5 N          -7.5535  -19.2559   19.6630 N.ar    1  UNL1       -0.2245
      6 C          -6.4935  -18.9005   20.6631 C.ar    1  UNL1        0.1567
      7 N          -5.0120  -18.9501   20.4329 N.pl3   1  UNL1       -0.3375
      8 S          -7.1750  -18.4870   21.9337 S.2     1  UNL1       -0.0519
      9 C          -8.6562  -18.5868   21.7188 C.ar    1  UNL1        0.0510
     10 C          -9.8222  -18.3063   22.6198 C.ar    1  UNL1        0.0264
     11 H          -4.6588  -19.2364   19.5597 H       1  UNL1        0.1442
     12 H          -4.3929  -18.6962   21.1551 H       1  UNL1        0.1442
     13 C         -13.5541  -17.9400   23.9195 C.3     1  UNL1        0.1816
     14 S         -12.3881  -18.2205   23.0185 S.O2    1  UNL1        0.0105
     15 O         -13.2001  -17.7891   21.8333 O.2     1  UNL1       -0.1686
     16 O         -11.5761  -18.6519   24.2036 O.2     1  UNL1       -0.1686
@<TRIPOS>BOND
     1    13    14    1
     2    14    15    2
     3    14    16    2
     4    14     1    1
     5     1     2   ar
     6     2     3   ar
     7     3     4   ar
     8     4     5   ar
     9     5     6   ar
    10     6     7    1
    11     6     8   ar
    12     8     9   ar
    13     9    10   ar
    14    10     1   ar
    15     9     4   ar
    16     7    11    1
    17     7    12    1
@<TRIPOS>MOLECULE
*****
 16 17 0 0 0
SMALL
GASTEIGER

@<TRIPOS>ATOM
      1 C          -8.7136  -19.1427   21.1993 C.ar    1  UNL1        0.1063
      2 C          -9.5544  -18.8349   19.9959 C.ar    1  UNL1        0.0199
      3 C         -10.9945  -18.4512   20.1654 C.ar    1  UNL1        0.0210
      4 C         -11.5939  -18.3752   21.5383 C.ar    1  UNL1        0.0893
      5 N         -12.9735  -18.0278   22.0134 N.ar    1  UNL1       -0.2245
      6 C         -12.9854  -18.1207   23.5105 C.ar    1  UNL1        0.1567
      7 N         -14.1630  -17.8553   24.4010 N.pl3   1  UNL1       -0.3375
      8 S         -11.6131  -18.5257   23.9606 S.2     1  UNL1       -0.0519
      9 C         -10.7531  -18.6830   22.7417 C.ar    1  UNL1        0.0510
     10 C          -9.3129  -19.0667   22.5722 C.ar    1  UNL1        0.0264
     11 H         -15.0273  -17.5933   24.0092 H       1  UNL1        0.1442
     12 H         -14.0715  -17.9431   25.3773 H       1  UNL1        0.1442
     13 C          -5.8333  -19.9101   20.8603 C.3     1  UNL1        0.1816
     14 S          -7.2734  -19.5264   21.0298 S.O2    1  UNL1        0.0105
     15 O          -7.2733  -18.9199   19.6579 O.2     1  UNL1       -0.1686
     16 O          -7.2735  -20.1329   22.4017 O.2     1  UNL1       -0.1686
@<TRIPOS>BOND
     1    13    14    1
     2    14    15    2
     3    14    16    2
     4    14     1    1
     5     1     2   ar
     6     2     3   ar
     7     3     4   ar
     8     4     5   ar
     9     5     6   ar
    10     6     7    1
    11     6     8   ar
    12     8     9   ar
    13     9    10   ar
    14    10     1   ar
    15     9     4   ar
    16     7    11    1
    17     7    12    1
@<TRIPOS>MOLECULE
*****
 16 17 0 0 0
SMALL
GASTEIGER

@<TRIPOS>ATOM
      1 C          -7.2413  -19.6540   20.6027 C.ar    1  UNL1        0.1063
      2 C          -8.1284  -19.7108   19.3945 C.ar    1  UNL1        0.0199
      3 C          -9.5973  -19.4381   19.5291 C.ar    1  UNL1        0.0210
      4 C         -10.1790  -19.1086   20.8718 C.ar    1  UNL1        0.0893
      5 N         -11.5791  -18.7955   21.3097 N.ar    1  UNL1       -0.2245
      6 C         -11.5572  -18.5451   22.7885 C.ar    1  UNL1        0.1567
      7 N         -12.7412  -18.1974   23.6415 N.pl3   1  UNL1       -0.3375
      8 S         -10.1436  -18.7035   23.2646 S.2     1  UNL1       -0.0519
      9 C          -9.2918  -19.0518   22.0800 C.ar    1  UNL1        0.0510
     10 C          -7.8230  -19.3245   21.9454 C.ar    1  UNL1        0.0264
     11 H         -13.6339  -18.1156   23.2346 H       1  UNL1        0.1442
     12 H         -12.6254  -18.0510   24.6081 H       1  UNL1        0.1442
     13 C          -4.3036  -20.1994   20.3335 C.3     1  UNL1        0.1816
     14 S          -5.7724  -19.9267   20.4681 S.O2    1  UNL1        0.0105
     15 O          -6.0688  -21.3594   20.1372 O.2     1  UNL1       -0.1686
     16 O          -5.4761  -18.4940   20.7991 O.2     1  UNL1       -0.1686
@<TRIPOS>BOND
     1    13    14    1
     2    14    15    2
     3    14    16    2
     4    14     1    1
     5     1     2   ar
     6     2     3   ar
     7     3     4   ar
     8     4     5   ar
     9     5     6   ar
    10     6     7    1
    11     6     8   ar
    12     8     9   ar
    13     9    10   ar
    14    10     1   ar
    15     9     4   ar
    16     7    11    1
    17     7    12    1
@<TRIPOS>MOLECULE
*****
 16 17 0 0 0
SMALL
GASTEIGER

@<TRIPOS>ATOM
      1 C          -8.5936  -18.2657   21.6854 C.ar    1  UNL1        0.1063
      2 C          -8.7130  -19.0877   20.4364 C.ar    1  UNL1        0.0199
      3 C          -7.5081  -19.7877   19.8812 C.ar    1  UNL1        0.0210
      4 C          -6.1838  -19.6656   20.5750 C.ar    1  UNL1        0.0893
      5 N          -4.8320  -20.2369   20.2652 N.ar    1  UNL1       -0.2245
      6 C          -3.8770  -19.7679   21.3226 C.ar    1  UNL1        0.1567
      7 N          -2.4168  -20.1016   21.4026 N.pl3   1  UNL1       -0.3375
      8 S          -4.6387  -18.9068   22.2860 S.2     1  UNL1       -0.0519
      9 C          -6.0645  -18.8435   21.8239 C.ar    1  UNL1        0.0510
     10 C          -7.2694  -18.1436   22.3791 C.ar    1  UNL1        0.0264
     11 H          -2.0054  -20.6783   20.7189 H       1  UNL1        0.1442
     12 H          -1.8697  -19.7438   22.1388 H       1  UNL1        0.1442
     13 C         -11.0035  -16.8657   22.7958 C.3     1  UNL1        0.1816
     14 S          -9.7985  -17.5657   22.2406 S.O2    1  UNL1        0.0105
     15 O         -10.0422  -18.7199   23.1670 O.2     1  UNL1       -0.1686
     16 O          -9.5549  -16.4114   21.3141 O.2     1  UNL1       -0.1686
@<TRIPOS>BOND
     1    13    14    1
     2    14    15    2
     3    14    16    2
     4    14     1    1
     5     1     2   ar
     6     2     3   ar
     7     3     4   ar
     8     4     5   ar
     9     5     6   ar
    10     6     7    1
    11     6     8   ar
    12     8     9   ar
    13     9    10   ar
    14    10     1   ar
    15     9     4   ar
    16     7    11    1
    17     7    12    1
@<TRIPOS>MOLECULE
*****
 16 17 0 0 0
SMALL
GASTEIGER

@<TRIPOS>ATOM
      1 C          -5.5275  -19.3073   21.2525 C.ar    1  UNL1        0.1063
      2 C          -5.1520  -20.3120   20.2039 C.ar    1  UNL1        0.0199
      3 C          -3.7919  -20.2649   19.5730 C.ar    1  UNL1        0.0210
      4 C          -2.8073  -19.2132   19.9907 C.ar    1  UNL1        0.0893
      5 N          -1.4039  -18.9203   19.5497 N.ar    1  UNL1       -0.2245
      6 C          -0.9120  -17.7346   20.3257 C.ar    1  UNL1        0.1567
      7 N           0.4417  -17.1002   20.2026 N.pl3   1  UNL1       -0.3375
      8 S          -2.0115  -17.2947   21.2464 S.2     1  UNL1       -0.0519
      9 C          -3.1829  -18.2086   21.0393 C.ar    1  UNL1        0.0510
     10 C          -4.5429  -18.2556   21.6702 C.ar    1  UNL1        0.0264
     11 H           1.0994  -17.4631   19.5662 H       1  UNL1        0.1442
     12 H           0.6725  -16.3210   20.7582 H       1  UNL1        0.1442
     13 C          -8.2476  -19.4014   22.5143 C.3     1  UNL1        0.1816
     14 S          -6.8875  -19.3544   21.8834 S.O2    1  UNL1        0.0105
     15 O          -7.1836  -17.9851   21.3472 O.2     1  UNL1       -0.1686
     16 O          -6.5915  -20.7236   22.4196 O.2     1  UNL1       -0.1686
@<TRIPOS>BOND
     1    13    14    1
     2    14    15    2
     3    14    16    2
     4    14     1    1
     5     1     2   ar
     6     2     3   ar
     7     3     4   ar
     8     4     5   ar
     9     5     6   ar
    10     6     7    1
    11     6     8   ar
    12     8     9   ar
    13     9    10   ar
    14    10     1   ar
    15     9     4   ar
    16     7    11    1
    17     7    12    1
@<TRIPOS>MOLECULE
*****
 16 17 0 0 0
SMALL
GASTEIGER

@<TRIPOS>ATOM
      1 C         -10.0806  -17.7332   22.5602 C.ar    1  UNL1        0.1063
      2 C         -10.5059  -18.6714   23.6506 C.ar    1  UNL1        0.0199
      3 C         -10.0403  -18.4453   25.0584 C.ar    1  UNL1        0.0210
      4 C          -9.1494  -17.2811   25.3759 C.ar    1  UNL1        0.0893
      5 N          -8.5360  -16.8075   26.6602 N.ar    1  UNL1       -0.2245
      6 C          -7.7315  -15.5767   26.3636 C.ar    1  UNL1        0.1567
      7 N          -6.9483  -14.7740   27.3598 N.pl3   1  UNL1       -0.3375
      8 S          -7.8477  -15.2896   24.8959 S.2     1  UNL1       -0.0519
      9 C          -8.7241  -16.3429   24.2855 C.ar    1  UNL1        0.0510
     10 C          -9.1897  -16.5690   22.8777 C.ar    1  UNL1        0.0264
     11 H          -6.9330  -15.0438   28.3065 H       1  UNL1        0.1442
     12 H          -6.4495  -13.9773   27.0669 H       1  UNL1        0.1442
     13 C         -11.0118  -18.1854   19.7444 C.3     1  UNL1        0.1816
     14 S         -10.5462  -17.9593   21.1523 S.O2    1  UNL1        0.0105
     15 O         -10.1145  -16.5701   20.7865 O.2     1  UNL1       -0.1686
     16 O         -10.9778  -19.3485   21.5181 O.2     1  UNL1       -0.1686
@<TRIPOS>BOND
     1    13    14    1
     2    14    15    2
     3    14    16    2
     4    14     1    1
     5     1     2   ar
     6     2     3   ar
     7     3     4   ar
     8     4     5   ar
     9     5     6   ar
    10     6     7    1
    11     6     8   ar
    12     8     9   ar
    13     9    10   ar
    14    10     1   ar
    15     9     4   ar
    16     7    11    1
    17     7    12    1
@<TRIPOS>MOLECULE
*****
 16 17 0 0 0
SMALL
GASTEIGER

@<TRIPOS>ATOM
      1 C          -8.7980  -16.6350   25.3102 C.ar    1  UNL1        0.1063
      2 C          -9.5182  -17.9043   25.6567 C.ar    1  UNL1        0.0199
      3 C         -10.4320  -18.5456   24.6548 C.ar    1  UNL1        0.0210
      4 C         -10.6256  -17.9175   23.3064 C.ar    1  UNL1        0.0893
      5 N         -11.4562  -18.3169   22.1230 N.ar    1  UNL1       -0.2245
      6 C         -11.2493  -17.2945   21.0451 C.ar    1  UNL1        0.1567
      7 N         -11.8886  -17.3021   19.6882 N.pl3   1  UNL1       -0.3375
      8 S         -10.2908  -16.2631   21.5624 S.2     1  UNL1       -0.0519
      9 C          -9.9054  -16.6482   22.9600 C.ar    1  UNL1        0.0510
     10 C          -8.9916  -16.0069   23.9619 C.ar    1  UNL1        0.0264
     11 H         -12.5078  -18.0261   19.4398 H       1  UNL1        0.1442
     12 H         -11.6891  -16.5831   19.0459 H       1  UNL1        0.1442
     13 C          -6.9705  -15.3524   27.3140 C.3     1  UNL1        0.1816
     14 S          -7.8843  -15.9937   26.3121 S.O2    1  UNL1        0.0105
     15 O          -8.5195  -16.7988   27.4068 O.2     1  UNL1       -0.1686
     16 O          -7.2491  -15.1885   25.2175 O.2     1  UNL1       -0.1686
@<TRIPOS>BOND
     1    13    14    1
     2    14    15    2
     3    14    16    2
     4    14     1    1
     5     1     2   ar
     6     2     3   ar
     7     3     4   ar
     8     4     5   ar
     9     5     6   ar
    10     6     7    1
    11     6     8   ar
    12     8     9   ar
    13     9    10   ar
    14    10     1   ar
    15     9     4   ar
    16     7    11    1
    17     7    12    1
@<TRIPOS>MOLECULE
*****
 16 17 0 0 0
SMALL
GASTEIGER

@<TRIPOS>ATOM
      1 C          -6.7091  -18.6743   21.6834 C.ar    1  UNL1        0.1063
      2 C          -6.9238  -19.4535   20.4198 C.ar    1  UNL1        0.0199
      3 C          -8.2933  -19.5367   19.8135 C.ar    1  UNL1        0.0210
      4 C          -9.4480  -18.8407   20.4708 C.ar    1  UNL1        0.0893
      5 N         -10.9004  -18.7450   20.1084 N.ar    1  UNL1       -0.2245
      6 C         -11.5833  -17.9066   21.1480 C.ar    1  UNL1        0.1567
      7 N         -13.0408  -17.5529   21.1774 N.pl3   1  UNL1       -0.3375
      8 S         -10.5530  -17.4842   22.1530 S.2     1  UNL1       -0.0519
      9 C          -9.2333  -18.0615   21.7344 C.ar    1  UNL1        0.0510
     10 C          -7.8638  -17.9783   22.3407 C.ar    1  UNL1        0.0264
     11 H         -13.6411  -17.8797   20.4688 H       1  UNL1        0.1442
     12 H         -13.3970  -16.9939   21.9053 H       1  UNL1        0.1442
     13 C          -3.9701  -18.5079   22.8960 C.3     1  UNL1        0.1816
     14 S          -5.3396  -18.5911   22.2897 S.O2    1  UNL1        0.0105
     15 O          -5.6762  -17.2476   22.8656 O.2     1  UNL1       -0.1686
     16 O          -5.0030  -19.9346   21.7138 O.2     1  UNL1       -0.1686
@<TRIPOS>BOND
     1    13    14    1
     2    14    15    2
     3    14    16    2
     4    14     1    1
     5     1     2   ar
     6     2     3   ar
     7     3     4   ar
     8     4     5   ar
     9     5     6   ar
    10     6     7    1
    11     6     8   ar
    12     8     9   ar
    13     9    10   ar
    14    10     1   ar
    15     9     4   ar
    16     7    11    1
    17     7    12    1
