@<TRIPOS>MOLECULE
*****
 24 27 0 0 0
SMALL
GASTEIGER

@<TRIPOS>ATOM
      1 C          -8.9429  -19.3119   22.7353 C.3     1  UNL1        0.0409
      2 C          -9.8207  -18.1312   22.4434 C.3     1  UNL1        0.0707
      3 N         -11.0363  -17.8745   23.2839 N.3     1  UNL1       -0.2974
      4 C         -11.3740  -18.7985   24.4162 C.3     1  UNL1        0.0689
      5 C         -10.4961  -19.9792   24.7081 C.3     1  UNL1        0.0212
      6 C          -9.2805  -20.2359   23.8676 C.3     1  UNL1        0.0234
      7 C          -8.0649  -20.4926   23.0271 C.3     1  UNL1        0.0078
      8 H         -11.8372  -17.8780   22.6522 H       1  UNL1        0.1232
      9 C          -9.5925  -19.0208   23.0454 C.ar    1  UNL1       -0.0218
     10 C          -9.1824  -17.6617   23.5300 C.ar    1  UNL1       -0.0034
     11 C          -9.4943  -16.4466   22.7078 C.ar    1  UNL1        0.0119
     12 C         -10.2163  -16.5904   21.4008 C.ar    1  UNL1        0.0682
     13 CL        -10.5282  -15.3752   20.5786 Cl      1  UNL1       -0.0814
     14 C         -10.6264  -17.9494   20.9162 C.ar    1  UNL1        0.0679
     15 CL        -11.3483  -18.0933   19.6093 Cl      1  UNL1       -0.0814
     16 C         -10.3144  -19.1646   21.7384 C.ar    1  UNL1        0.0080
     17 C          -8.0461  -18.9267   21.5963 C.3     1  UNL1        0.1286
     18 C          -3.1760  -17.6639   23.1989 C.3     1  UNL1        0.0540
     19 C          -4.3186  -18.3541   22.5149 C.ar    1  UNL1        0.0801
     20 C          -4.2133  -19.5391   21.6013 C.ar    1  UNL1        0.0308
     21 C          -5.5967  -19.8979   21.1460 C.ar    1  UNL1        0.0571
     22 C          -5.9566  -21.0225   20.2210 C.3     1  UNL1        0.0517
     23 N          -6.5572  -18.9345   21.7782 N.ar    1  UNL1       -0.2552
     24 N          -5.7673  -17.9804   22.6241 N.ar    1  UNL1       -0.1740
@<TRIPOS>BOND
     1    18    19    1
     2    19    20   ar
     3    20    21   ar
     4    21    22    1
     5    21    23   ar
     6    23    17    1
     7    17     1    1
     8     1     2    1
     9     2     3    1
    10     3     4    1
    11     4     5    1
    12     5     6    1
    13     6     9    1
    14     9    10   ar
    15    10    11   ar
    16    11    12   ar
    17    12    13    1
    18    12    14   ar
    19    14    15    1
    20    14    16   ar
    21     6     7    1
    22    23    24   ar
    23    24    19   ar
    24     6     1    1
    25    16     9   ar
    26     7     1    1
    27     3     8    1
@<TRIPOS>MOLECULE
*****
 24 27 0 0 0
SMALL
GASTEIGER

@<TRIPOS>ATOM
      1 C          -9.7653  -17.9635   23.1305 C.3     1  UNL1        0.0409
      2 C         -10.8087  -17.4469   22.1848 C.3     1  UNL1        0.0707
      3 N         -12.2635  -17.6360   22.4971 N.3     1  UNL1       -0.2974
      4 C         -12.6749  -18.3417   23.7552 C.3     1  UNL1        0.0689
      5 C         -11.6315  -18.8583   24.7009 C.3     1  UNL1        0.0212
      6 C         -10.1767  -18.6691   24.3886 C.3     1  UNL1        0.0234
      7 C          -8.7217  -18.4800   24.0762 C.3     1  UNL1        0.0078
      8 H         -12.6657  -18.1606   21.7203 H       1  UNL1        0.1232
      9 C         -10.5416  -17.9635   23.1162 C.ar    1  UNL1       -0.0218
     10 C         -10.8679  -16.4995   23.1375 C.ar    1  UNL1       -0.0034
     11 C         -11.2328  -15.7939   21.8652 C.ar    1  UNL1        0.0119
     12 C         -11.2714  -16.5521   20.5715 C.ar    1  UNL1        0.0682
     13 CL        -11.6364  -15.8464   19.2992 Cl      1  UNL1       -0.0814
     14 C         -10.9451  -18.0160   20.5502 C.ar    1  UNL1        0.0679
     15 CL        -10.9837  -18.7743   19.2565 Cl      1  UNL1       -0.0814
     16 C         -10.5802  -18.7217   21.8226 C.ar    1  UNL1        0.0080
     17 C          -8.6878  -17.4469   22.2239 C.3     1  UNL1        0.1286
     18 C          -3.5184  -17.7873   23.2448 C.3     1  UNL1        0.0540
     19 C          -4.9437  -17.3200   23.2395 C.ar    1  UNL1        0.0801
     20 C          -5.4858  -16.1350   23.9823 C.ar    1  UNL1        0.0308
     21 C          -6.9544  -16.0382   23.6923 C.ar    1  UNL1        0.0571
     22 C          -7.8926  -14.9988   24.2300 C.3     1  UNL1        0.0517
     23 N          -7.3198  -17.1635   22.7702 N.ar    1  UNL1       -0.2552
     24 N          -6.0772  -17.9557   22.4903 N.ar    1  UNL1       -0.1740
@<TRIPOS>BOND
     1    18    19    1
     2    19    20   ar
     3    20    21   ar
     4    21    22    1
     5    21    23   ar
     6    23    17    1
     7    17     1    1
     8     1     2    1
     9     2     3    1
    10     3     4    1
    11     4     5    1
    12     5     6    1
    13     6     9    1
    14     9    10   ar
    15    10    11   ar
    16    11    12   ar
    17    12    13    1
    18    12    14   ar
    19    14    15    1
    20    14    16   ar
    21     6     7    1
    22    23    24   ar
    23    24    19   ar
    24     6     1    1
    25    16     9   ar
    26     7     1    1
    27     3     8    1
@<TRIPOS>MOLECULE
*****
 24 27 0 0 0
SMALL
GASTEIGER

@<TRIPOS>ATOM
      1 C          -9.8845  -18.0175   24.2207 C.3     1  UNL1        0.0409
      2 C         -10.3379  -17.7522   22.8157 C.3     1  UNL1        0.0707
      3 N         -10.8776  -18.8730   21.9776 N.3     1  UNL1       -0.2974
      4 C         -10.9640  -20.2591   22.5445 C.3     1  UNL1        0.0689
      5 C         -10.5107  -20.5243   23.9495 C.3     1  UNL1        0.0212
      6 C          -9.9709  -19.4035   24.7876 C.3     1  UNL1        0.0234
      7 C          -9.4312  -18.2827   25.6257 C.3     1  UNL1        0.0078
      8 H         -10.2875  -18.9306   21.1476 H       1  UNL1        0.1232
      9 C         -10.1828  -18.4502   23.6491 C.ar    1  UNL1       -0.0218
     10 C          -9.1933  -18.3950   22.5230 C.ar    1  UNL1       -0.0034
     11 C          -9.4052  -17.4417   21.3845 C.ar    1  UNL1        0.0119
     12 C         -10.6065  -16.5435   21.3720 C.ar    1  UNL1        0.0682
     13 CL        -10.8183  -15.5901   20.2334 Cl      1  UNL1       -0.0814
     14 C         -11.5959  -16.5986   22.4980 C.ar    1  UNL1        0.0679
     15 CL        -12.7972  -15.7004   22.4856 Cl      1  UNL1       -0.0814
     16 C         -11.3841  -17.5520   23.6366 C.ar    1  UNL1        0.0080
     17 C          -9.5230  -16.5701   24.3772 C.3     1  UNL1        0.1286
     18 C          -4.3607  -15.7241   23.6594 C.3     1  UNL1        0.0540
     19 C          -5.7227  -15.7862   24.2847 C.ar    1  UNL1        0.0801
     20 C          -6.0752  -15.3480   25.6752 C.ar    1  UNL1        0.0308
     21 C          -7.5418  -15.5883   25.8792 C.ar    1  UNL1        0.0571
     22 C          -8.3181  -15.2936   27.1283 C.3     1  UNL1        0.0517
     23 N          -8.0956  -16.1751   24.6146 N.ar    1  UNL1       -0.2552
     24 N          -6.9713  -16.2974   23.6292 N.ar    1  UNL1       -0.1740
@<TRIPOS>BOND
     1    18    19    1
     2    19    20   ar
     3    20    21   ar
     4    21    22    1
     5    21    23   ar
     6    23    17    1
     7    17     1    1
     8     1     2    1
     9     2     3    1
    10     3     4    1
    11     4     5    1
    12     5     6    1
    13     6     9    1
    14     9    10   ar
    15    10    11   ar
    16    11    12   ar
    17    12    13    1
    18    12    14   ar
    19    14    15    1
    20    14    16   ar
    21     6     7    1
    22    23    24   ar
    23    24    19   ar
    24     6     1    1
    25    16     9   ar
    26     7     1    1
    27     3     8    1
@<TRIPOS>MOLECULE
*****
 24 27 0 0 0
SMALL
GASTEIGER

@<TRIPOS>ATOM
      1 C         -10.8353  -18.1113   23.6809 C.3     1  UNL1        0.0409
      2 C         -11.4748  -17.4967   22.4713 C.3     1  UNL1        0.0707
      3 N         -12.9683  -17.4951   22.3318 N.3     1  UNL1       -0.2974
      4 C         -13.8222  -18.1080   23.4019 C.3     1  UNL1        0.0689
      5 C         -13.1826  -18.7226   24.6115 C.3     1  UNL1        0.0212
      6 C         -11.6892  -18.7243   24.7510 C.3     1  UNL1        0.0234
      7 C         -10.1956  -18.7259   24.8905 C.3     1  UNL1        0.0078
      8 H         -13.1836  -17.9878   21.4650 H       1  UNL1        0.1232
      9 C         -11.5655  -18.0155   23.4348 C.ar    1  UNL1       -0.0218
     10 C         -11.7547  -16.5292   23.3626 C.ar    1  UNL1       -0.0034
     11 C         -11.6310  -15.8205   22.0464 C.ar    1  UNL1        0.0119
     12 C         -11.3181  -16.5980   20.8024 C.ar    1  UNL1        0.0682
     13 CL        -11.1944  -15.8892   19.4862 Cl      1  UNL1       -0.0814
     14 C         -11.1288  -18.0842   20.8746 C.ar    1  UNL1        0.0679
     15 CL        -10.8158  -18.8617   19.6306 Cl      1  UNL1       -0.0814
     16 C         -11.2525  -18.7930   22.1908 C.ar    1  UNL1        0.0080
     17 C          -9.4800  -17.7583   23.1436 C.3     1  UNL1        0.1286
     18 C          -6.8020  -15.3236   26.9882 C.3     1  UNL1        0.0540
     19 C          -7.3819  -15.6612   25.6467 C.ar    1  UNL1        0.0801
     20 C          -7.1750  -14.8894   24.3773 C.ar    1  UNL1        0.0308
     21 C          -7.9358  -15.5810   23.2850 C.ar    1  UNL1        0.0571
     22 C          -8.0070  -15.1493   21.8504 C.3     1  UNL1        0.0517
     23 N          -8.6129  -16.7803   23.8795 N.ar    1  UNL1       -0.2552
     24 N          -8.2706  -16.8298   25.3391 N.ar    1  UNL1       -0.1740
@<TRIPOS>BOND
     1    18    19    1
     2    19    20   ar
     3    20    21   ar
     4    21    22    1
     5    21    23   ar
     6    23    17    1
     7    17     1    1
     8     1     2    1
     9     2     3    1
    10     3     4    1
    11     4     5    1
    12     5     6    1
    13     6     9    1
    14     9    10   ar
    15    10    11   ar
    16    11    12   ar
    17    12    13    1
    18    12    14   ar
    19    14    15    1
    20    14    16   ar
    21     6     7    1
    22    23    24   ar
    23    24    19   ar
    24     6     1    1
    25    16     9   ar
    26     7     1    1
    27     3     8    1
@<TRIPOS>MOLECULE
*****
 24 27 0 0 0
SMALL
GASTEIGER

@<TRIPOS>ATOM
      1 C         -10.2589  -17.0978   23.4398 C.3     1  UNL1        0.0409
      2 C         -10.2542  -18.5962   23.3708 C.3     1  UNL1        0.0707
      3 N         -10.9605  -19.2975   22.2486 N.3     1  UNL1       -0.2974
      4 C         -11.6715  -18.5004   21.1954 C.3     1  UNL1        0.0689
      5 C         -11.6762  -17.0020   21.2644 C.3     1  UNL1        0.0212
      6 C         -10.9699  -16.3007   22.3866 C.3     1  UNL1        0.0234
      7 C         -10.2636  -15.5993   23.5088 C.3     1  UNL1        0.0078
      8 H         -11.6567  -19.9088   22.6752 H       1  UNL1        0.1232
      9 C         -10.5567  -17.6260   22.9548 C.ar    1  UNL1       -0.0218
     10 C         -11.3903  -18.2794   24.0170 C.ar    1  UNL1       -0.0034
     11 C         -10.9772  -19.6046   24.5852 C.ar    1  UNL1        0.0119
     12 C          -9.7304  -20.2766   24.0912 C.ar    1  UNL1        0.0682
     13 CL         -9.3173  -21.6020   24.6594 Cl      1  UNL1       -0.0814
     14 C          -8.8968  -19.6233   23.0290 C.ar    1  UNL1        0.0679
     15 CL         -7.6501  -20.2953   22.5350 Cl      1  UNL1       -0.0814
     16 C          -9.3100  -18.2980   22.4607 C.ar    1  UNL1        0.0080
     17 C          -9.4407  -17.1531   24.6957 C.3     1  UNL1        0.1286
     18 C          -4.6884  -15.2529   23.3977 C.3     1  UNL1        0.0540
     19 C          -5.9368  -15.5693   24.1664 C.ar    1  UNL1        0.0801
     20 C          -6.2448  -15.1301   25.5672 C.ar    1  UNL1        0.0308
     21 C          -7.5949  -15.6699   25.9360 C.ar    1  UNL1        0.0571
     22 C          -8.2955  -15.4717   27.2474 C.3     1  UNL1        0.0517
     23 N          -8.1213  -16.4428   24.7631 N.ar    1  UNL1       -0.2552
     24 N          -7.0965  -16.3806   23.6695 N.ar    1  UNL1       -0.1740
@<TRIPOS>BOND
     1    18    19    1
     2    19    20   ar
     3    20    21   ar
     4    21    22    1
     5    21    23   ar
     6    23    17    1
     7    17     1    1
     8     1     2    1
     9     2     3    1
    10     3     4    1
    11     4     5    1
    12     5     6    1
    13     6     9    1
    14     9    10   ar
    15    10    11   ar
    16    11    12   ar
    17    12    13    1
    18    12    14   ar
    19    14    15    1
    20    14    16   ar
    21     6     7    1
    22    23    24   ar
    23    24    19   ar
    24     6     1    1
    25    16     9   ar
    26     7     1    1
    27     3     8    1
@<TRIPOS>MOLECULE
*****
 24 27 0 0 0
SMALL
GASTEIGER

@<TRIPOS>ATOM
      1 C          -9.4457  -19.4223   22.4998 C.3     1  UNL1        0.0409
      2 C         -10.4891  -18.4663   22.0025 C.3     1  UNL1        0.0707
      3 N         -11.6490  -18.0992   22.8799 N.3     1  UNL1       -0.2974
      4 C         -11.7654  -18.6880   24.2545 C.3     1  UNL1        0.0689
      5 C         -10.7220  -19.6440   24.7518 C.3     1  UNL1        0.0212
      6 C          -9.5621  -20.0111   23.8745 C.3     1  UNL1        0.0234
      7 C          -8.4022  -20.3783   22.9971 C.3     1  UNL1        0.0078
      8 H         -12.4952  -18.3617   22.3744 H       1  UNL1        0.1232
      9 C         -10.0973  -19.1192   22.7937 C.ar    1  UNL1       -0.0218
     10 C         -11.0254  -19.6744   21.7542 C.ar    1  UNL1       -0.0034
     11 C         -11.5606  -18.7826   20.6734 C.ar    1  UNL1        0.0119
     12 C         -11.1678  -17.3355   20.6321 C.ar    1  UNL1        0.0682
     13 CL        -11.7031  -16.4436   19.5513 Cl      1  UNL1       -0.0814
     14 C         -10.2398  -16.7803   21.6716 C.ar    1  UNL1        0.0679
     15 CL         -9.8471  -15.3332   21.6303 Cl      1  UNL1       -0.0814
     16 C          -9.7046  -17.6722   22.7524 C.ar    1  UNL1        0.0080
     17 C          -8.7088  -19.2944   21.1996 C.3     1  UNL1        0.1286
     18 C          -3.7801  -20.8060   20.0578 C.3     1  UNL1        0.0540
     19 C          -4.9457  -20.0710   20.6502 C.ar    1  UNL1        0.0801
     20 C          -4.8676  -18.9332   21.6244 C.ar    1  UNL1        0.0308
     21 C          -6.2677  -18.5037   21.9489 C.ar    1  UNL1        0.0571
     22 C          -6.6561  -17.3962   22.8829 C.3     1  UNL1        0.0517
     23 N          -7.2112  -19.3762   21.1751 N.ar    1  UNL1       -0.2552
     24 N          -6.3941  -20.3448   20.3725 N.ar    1  UNL1       -0.1740
@<TRIPOS>BOND
     1    18    19    1
     2    19    20   ar
     3    20    21   ar
     4    21    22    1
     5    21    23   ar
     6    23    17    1
     7    17     1    1
     8     1     2    1
     9     2     3    1
    10     3     4    1
    11     4     5    1
    12     5     6    1
    13     6     9    1
    14     9    10   ar
    15    10    11   ar
    16    11    12   ar
    17    12    13    1
    18    12    14   ar
    19    14    15    1
    20    14    16   ar
    21     6     7    1
    22    23    24   ar
    23    24    19   ar
    24     6     1    1
    25    16     9   ar
    26     7     1    1
    27     3     8    1
@<TRIPOS>MOLECULE
*****
 24 27 0 0 0
SMALL
GASTEIGER

@<TRIPOS>ATOM
      1 C          -9.1852  -19.0917   21.1276 C.3     1  UNL1        0.0409
      2 C          -9.8544  -18.6509   22.3956 C.3     1  UNL1        0.0707
      3 N         -11.0727  -17.7778   22.3363 N.3     1  UNL1       -0.2974
      4 C         -11.6217  -17.3455   21.0090 C.3     1  UNL1        0.0689
      5 C         -10.9525  -17.7863   19.7410 C.3     1  UNL1        0.0212
      6 C          -9.7342  -18.6594   19.8003 C.3     1  UNL1        0.0234
      7 C          -8.5159  -19.5325   19.8596 C.3     1  UNL1        0.0078
      8 H         -10.8510  -16.9276   22.8543 H       1  UNL1        0.1232
      9 C          -9.8037  -18.6545   21.2987 C.ar    1  UNL1       -0.0218
     10 C         -10.4577  -19.7937   22.0230 C.ar    1  UNL1       -0.0034
     11 C         -10.5271  -19.7888   23.5213 C.ar    1  UNL1        0.0119
     12 C          -9.9425  -18.6447   24.2955 C.ar    1  UNL1        0.0682
     13 CL        -10.0120  -18.6398   25.7939 Cl      1  UNL1       -0.0814
     14 C          -9.2885  -17.5055   23.5713 C.ar    1  UNL1        0.0679
     15 CL         -8.7039  -16.3615   24.3455 Cl      1  UNL1       -0.0814
     16 C          -9.2190  -17.5104   22.0729 C.ar    1  UNL1        0.0080
     17 C          -8.1649  -19.8454   21.9281 C.3     1  UNL1        0.1286
     18 C          -3.5207  -17.3963   22.4885 C.3     1  UNL1        0.0540
     19 C          -4.5758  -18.3738   22.0629 C.ar    1  UNL1        0.0801
     20 C          -4.3689  -19.5610   21.1697 C.ar    1  UNL1        0.0308
     21 C          -5.6882  -20.2568   21.0104 C.ar    1  UNL1        0.0571
     22 C          -5.9409  -21.4927   20.1990 C.3     1  UNL1        0.0517
     23 N          -6.7105  -19.4996   21.8053 N.ar    1  UNL1       -0.2552
     24 N          -6.0229  -18.3358   22.4557 N.ar    1  UNL1       -0.1740
@<TRIPOS>BOND
     1    18    19    1
     2    19    20   ar
     3    20    21   ar
     4    21    22    1
     5    21    23   ar
     6    23    17    1
     7    17     1    1
     8     1     2    1
     9     2     3    1
    10     3     4    1
    11     4     5    1
    12     5     6    1
    13     6     9    1
    14     9    10   ar
    15    10    11   ar
    16    11    12   ar
    17    12    13    1
    18    12    14   ar
    19    14    15    1
    20    14    16   ar
    21     6     7    1
    22    23    24   ar
    23    24    19   ar
    24     6     1    1
    25    16     9   ar
    26     7     1    1
    27     3     8    1
@<TRIPOS>MOLECULE
*****
 24 27 0 0 0
SMALL
GASTEIGER

@<TRIPOS>ATOM
      1 C          -9.1505  -19.1131   21.3355 C.3     1  UNL1        0.0409
      2 C          -9.8597  -18.6509   22.5738 C.3     1  UNL1        0.0707
      3 N         -11.1725  -17.9338   22.4627 N.3     1  UNL1       -0.2974
      4 C         -11.7761  -17.6790   21.1134 C.3     1  UNL1        0.0689
      5 C         -11.0669  -18.1412   19.8751 C.3     1  UNL1        0.0212
      6 C          -9.7541  -18.8583   19.9862 C.3     1  UNL1        0.0234
      7 C          -8.4413  -19.5754   20.0972 C.3     1  UNL1        0.0078
      8 H         -11.0495  -17.0239   22.9069 H       1  UNL1        0.1232
      9 C          -9.8151  -18.7385   21.4801 C.ar    1  UNL1       -0.0218
     10 C         -10.3696  -19.8651   22.3008 C.ar    1  UNL1       -0.0034
     11 C         -10.4306  -19.7454   23.7948 C.ar    1  UNL1        0.0119
     12 C          -9.9371  -18.4991   24.4681 C.ar    1  UNL1        0.0682
     13 CL         -9.9982  -18.3794   25.9621 Cl      1  UNL1       -0.0814
     14 C          -9.3827  -17.3725   23.6474 C.ar    1  UNL1        0.0679
     15 CL         -8.8893  -16.1263   24.3208 Cl      1  UNL1       -0.0814
     16 C          -9.3217  -17.4923   22.1534 C.ar    1  UNL1        0.0080
     17 C          -8.0441  -19.6743   22.1787 C.3     1  UNL1        0.1286
     18 C          -3.5604  -20.7362   19.6001 C.3     1  UNL1        0.0540
     19 C          -4.5644  -20.0945   20.5111 C.ar    1  UNL1        0.0801
     20 C          -4.3198  -18.9094   21.3974 C.ar    1  UNL1        0.0308
     21 C          -5.5936  -18.6076   22.1300 C.ar    1  UNL1        0.0571
     22 C          -5.7994  -17.5015   23.1219 C.3     1  UNL1        0.0517
     23 N          -6.6254  -19.6064   21.6964 N.ar    1  UNL1       -0.2552
     24 N          -5.9893  -20.5253   20.6959 N.ar    1  UNL1       -0.1740
@<TRIPOS>BOND
     1    18    19    1
     2    19    20   ar
     3    20    21   ar
     4    21    22    1
     5    21    23   ar
     6    23    17    1
     7    17     1    1
     8     1     2    1
     9     2     3    1
    10     3     4    1
    11     4     5    1
    12     5     6    1
    13     6     9    1
    14     9    10   ar
    15    10    11   ar
    16    11    12   ar
    17    12    13    1
    18    12    14   ar
    19    14    15    1
    20    14    16   ar
    21     6     7    1
    22    23    24   ar
    23    24    19   ar
    24     6     1    1
    25    16     9   ar
    26     7     1    1
    27     3     8    1
@<TRIPOS>MOLECULE
*****
 24 27 0 0 0
SMALL
GASTEIGER

@<TRIPOS>ATOM
      1 C          -9.3160  -17.9132   23.4368 C.3     1  UNL1        0.0409
      2 C          -9.5345  -18.7747   22.2285 C.3     1  UNL1        0.0707
      3 N         -10.4264  -19.9775   22.3163 N.3     1  UNL1       -0.2974
      4 C         -11.0998  -20.3188   23.6125 C.3     1  UNL1        0.0689
      5 C         -10.8813  -19.4573   24.8208 C.3     1  UNL1        0.0212
      6 C          -9.9894  -18.2545   24.7329 C.3     1  UNL1        0.0234
      7 C          -9.0975  -17.0516   24.6451 C.3     1  UNL1        0.0078
      8 H          -9.8587  -20.7846   22.0580 H       1  UNL1        0.1232
      9 C          -9.7268  -18.5549   23.2870 C.ar    1  UNL1       -0.0218
     10 C          -8.6524  -19.5302   22.9067 C.ar    1  UNL1       -0.0034
     11 C          -8.3898  -19.8306   21.4607 C.ar    1  UNL1        0.0119
     12 C          -9.2015  -19.1556   20.3951 C.ar    1  UNL1        0.0682
     13 CL         -8.9389  -19.4561   18.9491 Cl      1  UNL1       -0.0814
     14 C         -10.2758  -18.1804   20.7753 C.ar    1  UNL1        0.0679
     15 CL        -11.0875  -17.5055   19.7097 Cl      1  UNL1       -0.0814
     16 C         -10.5385  -17.8800   22.2213 C.ar    1  UNL1        0.0080
     17 C          -8.4123  -17.0217   22.6377 C.3     1  UNL1        0.1286
     18 C          -3.2145  -17.7693   23.1901 C.3     1  UNL1        0.0540
     19 C          -4.5918  -17.1859   23.3028 C.ar    1  UNL1        0.0801
     20 C          -4.9649  -15.9462   24.0605 C.ar    1  UNL1        0.0308
     21 C          -6.4415  -15.7338   23.9036 C.ar    1  UNL1        0.0571
     22 C          -7.2386  -14.6103   24.4971 C.3     1  UNL1        0.0517
     23 N          -6.9809  -16.8423   23.0489 N.ar    1  UNL1       -0.2552
     24 N          -5.8378  -17.7396   22.6776 N.ar    1  UNL1       -0.1740
@<TRIPOS>BOND
     1    18    19    1
     2    19    20   ar
     3    20    21   ar
     4    21    22    1
     5    21    23   ar
     6    23    17    1
     7    17     1    1
     8     1     2    1
     9     2     3    1
    10     3     4    1
    11     4     5    1
    12     5     6    1
    13     6     9    1
    14     9    10   ar
    15    10    11   ar
    16    11    12   ar
    17    12    13    1
    18    12    14   ar
    19    14    15    1
    20    14    16   ar
    21     6     7    1
    22    23    24   ar
    23    24    19   ar
    24     6     1    1
    25    16     9   ar
    26     7     1    1
    27     3     8    1
