@<TRIPOS>MOLECULE
*****
 39 44 0 0 0
SMALL
GASTEIGER

@<TRIPOS>ATOM
      1 C           7.1155   -3.4832   25.0077 C.2     1  UNL1        0.2420
      2 O           7.1009   -2.6186   26.2334 O.2     1  UNL1       -0.2734
      3 N           6.1713   -3.1983   23.8776 N.am    1  UNL1       -0.2784
      4 C           6.1859   -4.0628   22.6519 C.3     1  UNL1        0.0942
      5 C           5.2417   -3.7779   21.5218 C.3     1  UNL1        0.0343
      6 C           4.2828   -2.6284   21.6173 C.3     1  UNL1        0.0923
      7 C           4.2681   -1.7638   22.8430 C.3     1  UNL1        0.0343
      8 C           5.2124   -2.0488   23.9731 C.3     1  UNL1        0.0942
      9 C           4.1825   -3.4016   20.3359 C.2     1  UNL1        0.2291
     10 O           5.0089   -4.5956   19.9597 O.2     1  UNL1       -0.2745
     11 N           3.1107   -2.7713   19.4968 N.am    1  UNL1       -0.2839
     12 C           2.5487   -1.6085   20.2596 C.ar    1  UNL1        0.0467
     13 C           1.4708   -0.6187   19.9301 C.ar    1  UNL1        0.0144
     14 C           1.1174    0.4595   20.9113 C.ar    1  UNL1        0.0012
     15 C           1.8417    0.5479   22.2218 C.ar    1  UNL1       -0.0002
     16 C           2.9195   -0.4420   22.5513 C.ar    1  UNL1       -0.0026
     17 C           3.2730   -1.5202   21.5702 C.ar    1  UNL1       -0.0010
     18 H           2.8262   -3.0686   18.6024 H       1  UNL1        0.1549
     19 C           0.0396    1.4494   20.5819 C.2     1  UNL1        0.0001
     20 C           0.3576    2.6547   19.7477 C.2     1  UNL1        0.0027
     21 C           1.7825    2.7749   19.2945 C.ar    1  UNL1       -0.0004
     22 C           2.6131    1.6274   19.7876 C.ar    1  UNL1       -0.0002
     23 C           4.0716    1.5555   19.4449 C.ar    1  UNL1       -0.0000
     24 C           4.6995    2.6312   18.6091 C.ar    1  UNL1       -0.0002
     25 C           3.8690    3.7787   18.1159 C.ar    1  UNL1       -0.0007
     26 C           2.4104    3.8506   18.4586 C.ar    1  UNL1        0.0212
     27 C           1.7686    5.0717   17.8696 C.3     1  UNL1        0.2320
     28 O           0.3404    5.5188   17.9709 O.3     1  UNL1       -0.4706
     29 C          -0.7988    4.8551   18.6863 C.ar    1  UNL1        0.1412
     30 C          -2.0699    5.6376   18.5372 C.ar    1  UNL1        0.0665
     31 C          -3.3332    5.1454   19.1789 C.ar    1  UNL1        0.1432
     32 F          -4.6043    5.9278   19.0298 F       1  UNL1       -0.2041
     33 C          -3.3256    3.8708   19.9696 C.ar    1  UNL1        0.0298
     34 C          -2.0545    3.0883   20.1187 C.ar    1  UNL1        0.0053
     35 C          -0.7912    3.5804   19.4771 C.ar    1  UNL1        0.0341
     36 C           8.0744   -4.6327   24.9122 C.3     1  UNL1        0.1587
     37 C           6.7829   -6.1639   26.5667 C.3     1  UNL1        0.0900
     38 N           7.6502   -6.0020   25.3535 N.3     1  UNL1       -0.2626
     39 C           8.0931   -7.2096   24.5818 C.3     1  UNL1        0.0900
@<TRIPOS>BOND
     1    37    38    1
     2    38    39    1
     3    38    36    1
     4    36     1    1
     5     1     2    2
     6     1     3   am
     7     3     4    1
     8     4     5    1
     9     5     6    1
    10     6     7    1
    11     7     8    1
    12     6     9    1
    13     9    10    2
    14     9    11   am
    15    11    12    1
    16    12    13   ar
    17    13    14   ar
    18    14    19    1
    19    19    20    2
    20    20    21    1
    21    21    22   ar
    22    22    23   ar
    23    23    24   ar
    24    24    25   ar
    25    25    26   ar
    26    26    27    1
    27    27    28    1
    28    28    29    1
    29    29    30   ar
    30    30    31   ar
    31    31    32    1
    32    31    33   ar
    33    33    34   ar
    34    34    35   ar
    35    14    15   ar
    36    15    16   ar
    37    16    17   ar
    38     8     3    1
    39    17    12   ar
    40    17     6    1
    41    35    20    1
    42    26    21   ar
    43    35    29   ar
    44    11    18    1
@<TRIPOS>MOLECULE
*****
 39 44 0 0 0
SMALL
GASTEIGER

@<TRIPOS>ATOM
      1 C           0.8415    4.9453   32.2245 C.2     1  UNL1        0.2420
      2 O           0.9663    6.4305   32.0545 O.2     1  UNL1       -0.2734
      3 N           0.6360    4.0679   31.0254 N.am    1  UNL1       -0.2784
      4 C           0.5112    2.5827   31.1954 C.3     1  UNL1        0.0942
      5 C           0.3056    1.7053   29.9964 C.3     1  UNL1        0.0343
      6 C           0.2249    2.3128   28.6273 C.3     1  UNL1        0.0923
      7 C           0.3497    3.7980   28.4573 C.3     1  UNL1        0.0343
      8 C           0.5552    4.6754   29.6564 C.3     1  UNL1        0.0942
      9 C           0.0835    0.8196   28.6413 C.2     1  UNL1        0.2291
     10 O           0.1228   -0.0583   29.8570 O.2     1  UNL1       -0.2745
     11 N          -0.1041    0.3584   27.2264 N.am    1  UNL1       -0.2839
     12 C          -0.0787    1.5666   26.3378 C.ar    1  UNL1        0.0467
     13 C          -0.2144    1.7229   24.8522 C.ar    1  UNL1        0.0144
     14 C          -0.1468    3.0872   24.2324 C.ar    1  UNL1        0.0012
     15 C           0.0565    4.2951   25.0981 C.ar    1  UNL1       -0.0002
     16 C           0.1923    4.1388   26.5838 C.ar    1  UNL1       -0.0026
     17 C           0.1247    2.7746   27.2037 C.ar    1  UNL1       -0.0010
     18 H          -0.2231   -0.5736   26.9325 H       1  UNL1        0.1549
     19 C          -0.2825    3.2436   22.7467 C.2     1  UNL1        0.0001
     20 C          -1.6297    3.5021   22.1397 C.2     1  UNL1        0.0027
     21 C          -2.7737    3.5860   23.1062 C.ar    1  UNL1       -0.0004
     22 C          -2.3127    3.3872   24.5197 C.ar    1  UNL1       -0.0002
     23 C          -3.3033    3.4334   25.6451 C.ar    1  UNL1       -0.0000
     24 C          -4.7548    3.6784   25.3570 C.ar    1  UNL1       -0.0002
     25 C          -5.2158    3.8772   23.9436 C.ar    1  UNL1       -0.0007
     26 C          -4.2253    3.8310   22.8182 C.ar    1  UNL1        0.0212
     27 C          -4.8912    4.0527   21.4925 C.3     1  UNL1        0.2320
     28 O          -4.2702    4.0840   20.1274 O.3     1  UNL1       -0.4706
     29 C          -2.8297    3.9015   19.7510 C.ar    1  UNL1        0.1412
     30 C          -2.6333    4.0077   18.2677 C.ar    1  UNL1        0.0665
     31 C          -1.2616    3.8548   17.6799 C.ar    1  UNL1        0.1432
     32 F          -1.0652    3.9610   16.1966 F       1  UNL1       -0.2041
     33 C          -0.0866    3.5959   18.5754 C.ar    1  UNL1        0.0298
     34 C          -0.2830    3.4897   20.0587 C.ar    1  UNL1        0.0053
     35 C          -1.6545    3.6425   20.6465 C.ar    1  UNL1        0.0341
     36 C           0.9223    4.3377   33.5935 C.3     1  UNL1        0.1587
     37 C           2.4292    2.3850   34.4097 C.3     1  UNL1        0.0900
     38 N           2.2377    3.8440   34.1186 N.3     1  UNL1       -0.2626
     39 C           3.3619    4.8093   34.3526 C.3     1  UNL1        0.0900
@<TRIPOS>BOND
     1    37    38    1
     2    38    39    1
     3    38    36    1
     4    36     1    1
     5     1     2    2
     6     1     3   am
     7     3     4    1
     8     4     5    1
     9     5     6    1
    10     6     7    1
    11     7     8    1
    12     6     9    1
    13     9    10    2
    14     9    11   am
    15    11    12    1
    16    12    13   ar
    17    13    14   ar
    18    14    19    1
    19    19    20    2
    20    20    21    1
    21    21    22   ar
    22    22    23   ar
    23    23    24   ar
    24    24    25   ar
    25    25    26   ar
    26    26    27    1
    27    27    28    1
    28    28    29    1
    29    29    30   ar
    30    30    31   ar
    31    31    32    1
    32    31    33   ar
    33    33    34   ar
    34    34    35   ar
    35    14    15   ar
    36    15    16   ar
    37    16    17   ar
    38     8     3    1
    39    17    12   ar
    40    17     6    1
    41    35    20    1
    42    26    21   ar
    43    35    29   ar
    44    11    18    1
@<TRIPOS>MOLECULE
*****
 39 44 0 0 0
SMALL
GASTEIGER

@<TRIPOS>ATOM
      1 C           0.5759    1.3162   19.4218 C.2     1  UNL1        0.2420
      2 O          -0.4623    1.2263   20.5008 O.2     1  UNL1       -0.2734
      3 N           1.8470    0.5282   19.5365 N.am    1  UNL1       -0.2784
      4 C           2.8852    0.6181   18.4575 C.3     1  UNL1        0.0942
      5 C           4.1563   -0.1699   18.5722 C.3     1  UNL1        0.0343
      6 C           4.3893   -1.0480   19.7659 C.3     1  UNL1        0.0923
      7 C           3.3512   -1.1380   20.8449 C.3     1  UNL1        0.0343
      8 C           2.0800   -0.3499   20.7301 C.3     1  UNL1        0.0942
      9 C           5.5125   -1.0591   18.7718 C.2     1  UNL1        0.2291
     10 O           5.5618   -0.2840   17.4885 O.2     1  UNL1       -0.2745
     11 N           6.5778   -1.9813   19.2863 N.am    1  UNL1       -0.2839
     12 C           6.1130   -2.5402   20.5984 C.ar    1  UNL1        0.0467
     13 C           6.7466   -3.4998   21.5616 C.ar    1  UNL1        0.0144
     14 C           6.0275   -3.8825   22.8211 C.ar    1  UNL1        0.0012
     15 C           4.6750   -3.3058   23.1175 C.ar    1  UNL1       -0.0002
     16 C           4.0414   -2.3461   22.1544 C.ar    1  UNL1       -0.0026
     17 C           4.7603   -1.9633   20.8948 C.ar    1  UNL1       -0.0010
     18 H           7.4321   -2.1842   18.8411 H       1  UNL1        0.1549
     19 C           6.6611   -4.8422   23.7844 C.2     1  UNL1        0.0001
     20 C           7.4918   -4.3250   24.9212 C.2     1  UNL1        0.0027
     21 C           7.6253   -2.8333   25.0037 C.ar    1  UNL1       -0.0004
     22 C           6.8756   -2.1539   23.8964 C.ar    1  UNL1       -0.0002
     23 C           6.8798   -0.6573   23.7959 C.ar    1  UNL1       -0.0000
     24 C           7.6336    0.1599   24.8028 C.ar    1  UNL1       -0.0002
     25 C           8.3833   -0.5195   25.9102 C.ar    1  UNL1       -0.0007
     26 C           8.3791   -2.0160   26.0107 C.ar    1  UNL1        0.0212
     27 C           9.1857   -2.4888   27.1837 C.3     1  UNL1        0.2320
     28 O           9.4376   -3.8955   27.6396 O.3     1  UNL1       -0.4706
     29 C           8.9452   -5.1769   27.0349 C.ar    1  UNL1        0.1412
     30 C           9.4307   -6.3686   27.8056 C.ar    1  UNL1        0.0665
     31 C           9.0503   -7.7516   27.3665 C.ar    1  UNL1        0.1432
     32 F           9.5359   -8.9433   28.1371 F       1  UNL1       -0.2041
     33 C           8.1844   -7.9428   26.1567 C.ar    1  UNL1        0.0298
     34 C           7.6988   -6.7510   25.3861 C.ar    1  UNL1        0.0053
     35 C           8.0792   -5.3681   25.8251 C.ar    1  UNL1        0.0341
     36 C           0.3429    2.1943   18.2282 C.3     1  UNL1        0.1587
     37 C           0.5557    4.5034   19.3998 C.3     1  UNL1        0.0900
     38 N          -0.1325    3.6045   18.4158 N.3     1  UNL1       -0.2626
     39 C          -1.2963    4.1158   17.6194 C.3     1  UNL1        0.0900
@<TRIPOS>BOND
     1    37    38    1
     2    38    39    1
     3    38    36    1
     4    36     1    1
     5     1     2    2
     6     1     3   am
     7     3     4    1
     8     4     5    1
     9     5     6    1
    10     6     7    1
    11     7     8    1
    12     6     9    1
    13     9    10    2
    14     9    11   am
    15    11    12    1
    16    12    13   ar
    17    13    14   ar
    18    14    19    1
    19    19    20    2
    20    20    21    1
    21    21    22   ar
    22    22    23   ar
    23    23    24   ar
    24    24    25   ar
    25    25    26   ar
    26    26    27    1
    27    27    28    1
    28    28    29    1
    29    29    30   ar
    30    30    31   ar
    31    31    32    1
    32    31    33   ar
    33    33    34   ar
    34    34    35   ar
    35    14    15   ar
    36    15    16   ar
    37    16    17   ar
    38     8     3    1
    39    17    12   ar
    40    17     6    1
    41    35    20    1
    42    26    21   ar
    43    35    29   ar
    44    11    18    1
@<TRIPOS>MOLECULE
*****
 39 44 0 0 0
SMALL
GASTEIGER

@<TRIPOS>ATOM
      1 C           4.1261   -0.7868   32.2327 C.2     1  UNL1        0.2420
      2 O           3.5360   -2.1602   32.1075 O.2     1  UNL1       -0.2734
      3 N           3.5136    0.3633   31.4898 N.am    1  UNL1       -0.2784
      4 C           4.1037    1.7367   31.6151 C.3     1  UNL1        0.0942
      5 C           3.4912    2.8868   30.8722 C.3     1  UNL1        0.0343
      6 C           2.2885    2.6636   30.0039 C.3     1  UNL1        0.0923
      7 C           1.6983    1.2903   29.8786 C.3     1  UNL1        0.0343
      8 C           2.3109    0.1401   30.6216 C.3     1  UNL1        0.0942
      9 C           2.7659    4.0854   30.0313 C.2     1  UNL1        0.2291
     10 O           3.9396    4.6066   30.8064 O.2     1  UNL1       -0.2745
     11 N           1.8634    4.8944   29.1474 N.am    1  UNL1       -0.2839
     12 C           0.8284    3.9727   28.5739 C.ar    1  UNL1        0.0467
     13 C          -0.3194    4.2107   27.6379 C.ar    1  UNL1        0.0144
     14 C          -1.2045    3.0699   27.2314 C.ar    1  UNL1        0.0012
     15 C          -0.9418    1.6912   27.7607 C.ar    1  UNL1       -0.0002
     16 C           0.2060    1.4532   28.6966 C.ar    1  UNL1       -0.0026
     17 C           1.0911    2.5939   29.1032 C.ar    1  UNL1       -0.0010
     18 H           1.9375    5.8607   28.9742 H       1  UNL1        0.1549
     19 C          -2.3523    3.3078   26.2955 C.2     1  UNL1        0.0001
     20 C          -2.1438    3.2117   24.8131 C.2     1  UNL1        0.0027
     21 C          -0.7506    2.8726   24.3726 C.ar    1  UNL1       -0.0004
     22 C           0.1674    2.6959   25.5456 C.ar    1  UNL1       -0.0002
     23 C           1.6104    2.3521   25.3235 C.ar    1  UNL1       -0.0000
     24 C           2.1355    2.1849   23.9284 C.ar    1  UNL1       -0.0002
     25 C           1.2175    2.3616   22.7554 C.ar    1  UNL1       -0.0007
     26 C          -0.2255    2.7054   22.9775 C.ar    1  UNL1        0.0212
     27 C          -0.9640    2.8362   21.6784 C.3     1  UNL1        0.2320
     28 O          -2.4098    3.1664   21.4535 O.3     1  UNL1       -0.4706
     29 C          -3.4743    3.4474   22.4723 C.ar    1  UNL1        0.1412
     30 C          -4.7944    3.7346   21.8205 C.ar    1  UNL1        0.0665
     31 C          -5.9962    4.0419   22.6639 C.ar    1  UNL1        0.1432
     32 F          -7.3163    4.3291   22.0122 F       1  UNL1       -0.2041
     33 C          -5.8778    4.0621   24.1591 C.ar    1  UNL1        0.0298
     34 C          -4.5577    3.7749   24.8108 C.ar    1  UNL1        0.0053
     35 C          -3.3560    3.4676   23.9675 C.ar    1  UNL1        0.0341
     36 C           5.3288   -0.5637   33.1010 C.3     1  UNL1        0.1587
     37 C           7.5818    0.2813   32.1212 C.3     1  UNL1        0.0900
     38 N           6.7017   -0.8482   32.5681 N.3     1  UNL1       -0.2626
     39 C           7.1946   -2.2623   32.4821 C.3     1  UNL1        0.0900
@<TRIPOS>BOND
     1    37    38    1
     2    38    39    1
     3    38    36    1
     4    36     1    1
     5     1     2    2
     6     1     3   am
     7     3     4    1
     8     4     5    1
     9     5     6    1
    10     6     7    1
    11     7     8    1
    12     6     9    1
    13     9    10    2
    14     9    11   am
    15    11    12    1
    16    12    13   ar
    17    13    14   ar
    18    14    19    1
    19    19    20    2
    20    20    21    1
    21    21    22   ar
    22    22    23   ar
    23    23    24   ar
    24    24    25   ar
    25    25    26   ar
    26    26    27    1
    27    27    28    1
    28    28    29    1
    29    29    30   ar
    30    30    31   ar
    31    31    32    1
    32    31    33   ar
    33    33    34   ar
    34    34    35   ar
    35    14    15   ar
    36    15    16   ar
    37    16    17   ar
    38     8     3    1
    39    17    12   ar
    40    17     6    1
    41    35    20    1
    42    26    21   ar
    43    35    29   ar
    44    11    18    1
@<TRIPOS>MOLECULE
*****
 39 44 0 0 0
SMALL
GASTEIGER

@<TRIPOS>ATOM
      1 C           5.1254    3.7242   32.2883 C.2     1  UNL1        0.2420
      2 O           5.2629    5.2128   32.1647 O.2     1  UNL1       -0.2734
      3 N           4.0492    3.0049   31.5305 N.am    1  UNL1       -0.2784
      4 C           3.9117    1.5163   31.6541 C.3     1  UNL1        0.0942
      5 C           2.8355    0.7970   30.8963 C.3     1  UNL1        0.0343
      6 C           1.8967    1.5662   30.0148 C.3     1  UNL1        0.0923
      7 C           2.0341    3.0548   29.8911 C.3     1  UNL1        0.0343
      8 C           3.1104    3.7741   30.6490 C.3     1  UNL1        0.0942
      9 C           1.6384    0.0888   30.0388 C.2     1  UNL1        0.2291
     10 O           2.4110   -0.9287   30.8250 O.2     1  UNL1       -0.2745
     11 N           0.4719   -0.1925   29.1388 N.am    1  UNL1       -0.2839
     12 C           0.0093    1.1110   28.5585 C.ar    1  UNL1        0.0467
     13 C          -1.1001    1.4486   27.6070 C.ar    1  UNL1        0.0144
     14 C          -1.3288    2.8733   27.1970 C.ar    1  UNL1        0.0012
     15 C          -0.4483    3.9602   27.7383 C.ar    1  UNL1       -0.0002
     16 C           0.6611    3.6226   28.6898 C.ar    1  UNL1       -0.0026
     17 C           0.8899    2.1980   29.0999 C.ar    1  UNL1       -0.0010
     18 H           0.0789   -1.0773   28.9602 H       1  UNL1        0.1549
     19 C          -2.4382    3.2110   26.2455 C.2     1  UNL1        0.0001
     20 C          -2.1883    3.1964   24.7665 C.2     1  UNL1        0.0027
     21 C          -0.7958    2.8312   24.3453 C.ar    1  UNL1       -0.0004
     22 C           0.0790    2.5490   25.5307 C.ar    1  UNL1       -0.0002
     23 C           1.5146    2.1641   25.3286 C.ar    1  UNL1       -0.0000
     24 C           2.0754    2.0612   23.9412 C.ar    1  UNL1       -0.0002
     25 C           1.2006    2.3433   22.7558 C.ar    1  UNL1       -0.0007
     26 C          -0.2350    2.7283   22.9579 C.ar    1  UNL1        0.0212
     27 C          -0.9283    2.9653   21.6490 C.3     1  UNL1        0.2320
     28 O          -2.3535    3.3637   21.4042 O.3     1  UNL1       -0.4706
     29 C          -3.4376    3.6235   22.4080 C.ar    1  UNL1        0.1412
     30 C          -4.7258    3.9999   21.7382 C.ar    1  UNL1        0.0665
     31 C          -5.9406    4.3018   22.5647 C.ar    1  UNL1        0.1432
     32 F          -7.2289    4.6782   21.8949 F       1  UNL1       -0.2041
     33 C          -5.8671    4.2274   24.0610 C.ar    1  UNL1        0.0298
     34 C          -4.5788    3.8510   24.7308 C.ar    1  UNL1        0.0053
     35 C          -3.3641    3.5491   23.9043 C.ar    1  UNL1        0.0341
     36 C           6.0642    2.9550   33.1698 C.3     1  UNL1        0.1587
     37 C           6.6403    1.9206   35.4824 C.3     1  UNL1        0.0900
     38 N           5.7054    2.6971   34.6032 N.3     1  UNL1       -0.2626
     39 C           4.4116    3.2159   35.1575 C.3     1  UNL1        0.0900
@<TRIPOS>BOND
     1    37    38    1
     2    38    39    1
     3    38    36    1
     4    36     1    1
     5     1     2    2
     6     1     3   am
     7     3     4    1
     8     4     5    1
     9     5     6    1
    10     6     7    1
    11     7     8    1
    12     6     9    1
    13     9    10    2
    14     9    11   am
    15    11    12    1
    16    12    13   ar
    17    13    14   ar
    18    14    19    1
    19    19    20    2
    20    20    21    1
    21    21    22   ar
    22    22    23   ar
    23    23    24   ar
    24    24    25   ar
    25    25    26   ar
    26    26    27    1
    27    27    28    1
    28    28    29    1
    29    29    30   ar
    30    30    31   ar
    31    31    32    1
    32    31    33   ar
    33    33    34   ar
    34    34    35   ar
    35    14    15   ar
    36    15    16   ar
    37    16    17   ar
    38     8     3    1
    39    17    12   ar
    40    17     6    1
    41    35    20    1
    42    26    21   ar
    43    35    29   ar
    44    11    18    1
@<TRIPOS>MOLECULE
*****
 39 44 0 0 0
SMALL
GASTEIGER

@<TRIPOS>ATOM
      1 C           6.0442   -3.7772   20.1752 C.2     1  UNL1        0.2420
      2 O           5.0642   -4.8934   19.9657 O.2     1  UNL1       -0.2734
      3 N           5.6199   -2.3554   19.9553 N.am    1  UNL1       -0.2784
      4 C           6.5999   -1.2393   20.1648 C.3     1  UNL1        0.0942
      5 C           6.1756    0.1825   19.9449 C.3     1  UNL1        0.0343
      6 C           4.7713    0.4883   19.5155 C.3     1  UNL1        0.0923
      7 C           3.7912   -0.6278   19.3060 C.3     1  UNL1        0.0343
      8 C           4.2155   -2.0497   19.5259 C.3     1  UNL1        0.0942
      9 C           5.6355    1.7025   19.6847 C.2     1  UNL1        0.2291
     10 O           7.0759    1.7081   20.1035 O.2     1  UNL1       -0.2745
     11 N           4.8066    2.9102   19.3616 N.am    1  UNL1       -0.2839
     12 C           3.4300    2.4423   18.9927 C.ar    1  UNL1        0.0467
     13 C           2.1936    3.1859   18.5824 C.ar    1  UNL1        0.0144
     14 C           0.9353    2.4326   18.2674 C.ar    1  UNL1        0.0012
     15 C           0.9134    0.9358   18.3625 C.ar    1  UNL1       -0.0002
     16 C           2.1498    0.1922   18.7728 C.ar    1  UNL1       -0.0026
     17 C           3.4081    0.9455   19.0878 C.ar    1  UNL1       -0.0010
     18 H           5.1123    3.8457   19.3871 H       1  UNL1        0.1549
     19 C          -0.3012    3.1762   17.8571 C.2     1  UNL1        0.0001
     20 C          -1.2761    3.6422   18.8975 C.2     1  UNL1        0.0027
     21 C          -0.9198    3.3132   20.3170 C.ar    1  UNL1       -0.0004
     22 C           0.3773    2.5641   20.3969 C.ar    1  UNL1       -0.0002
     23 C           0.9163    2.1382   21.7303 C.ar    1  UNL1       -0.0000
     24 C           0.1584    2.4613   22.9837 C.ar    1  UNL1       -0.0002
     25 C          -1.1387    3.2104   22.9038 C.ar    1  UNL1       -0.0007
     26 C          -1.6778    3.6363   21.5704 C.ar    1  UNL1        0.0212
     27 C          -2.9793    4.3682   21.7139 C.3     1  UNL1        0.2320
     28 O          -3.8442    4.9577   20.6395 O.3     1  UNL1       -0.4706
     29 C          -3.6212    4.9609   19.1561 C.ar    1  UNL1        0.1412
     30 C          -4.7351    5.6616   18.4361 C.ar    1  UNL1        0.0665
     31 C          -4.7060    5.7768   16.9407 C.ar    1  UNL1        0.1432
     32 F          -5.8198    6.4774   16.2207 F       1  UNL1       -0.2041
     33 C          -3.5631    5.1913   16.1655 C.ar    1  UNL1        0.0298
     34 C          -2.4493    4.4907   16.8856 C.ar    1  UNL1        0.0053
     35 C          -2.4783    4.3754   18.3808 C.ar    1  UNL1        0.0341
     36 C           7.4485   -4.0830   20.6046 C.3     1  UNL1        0.1587
     37 C           6.8818   -4.2692   23.1333 C.3     1  UNL1        0.0900
     38 N           7.7055   -4.6894   21.9522 N.3     1  UNL1       -0.2626
     39 C           8.7863   -5.7162   22.1189 C.3     1  UNL1        0.0900
@<TRIPOS>BOND
     1    37    38    1
     2    38    39    1
     3    38    36    1
     4    36     1    1
     5     1     2    2
     6     1     3   am
     7     3     4    1
     8     4     5    1
     9     5     6    1
    10     6     7    1
    11     7     8    1
    12     6     9    1
    13     9    10    2
    14     9    11   am
    15    11    12    1
    16    12    13   ar
    17    13    14   ar
    18    14    19    1
    19    19    20    2
    20    20    21    1
    21    21    22   ar
    22    22    23   ar
    23    23    24   ar
    24    24    25   ar
    25    25    26   ar
    26    26    27    1
    27    27    28    1
    28    28    29    1
    29    29    30   ar
    30    30    31   ar
    31    31    32    1
    32    31    33   ar
    33    33    34   ar
    34    34    35   ar
    35    14    15   ar
    36    15    16   ar
    37    16    17   ar
    38     8     3    1
    39    17    12   ar
    40    17     6    1
    41    35    20    1
    42    26    21   ar
    43    35    29   ar
    44    11    18    1
@<TRIPOS>MOLECULE
*****
 39 44 0 0 0
SMALL
GASTEIGER

@<TRIPOS>ATOM
      1 C          -4.9874    5.1551   25.3589 C.2     1  UNL1        0.2420
      2 O          -5.8392    3.9705   25.7076 O.2     1  UNL1       -0.2734
      3 N          -3.5281    4.9694   25.0663 N.am    1  UNL1       -0.2784
      4 C          -2.6764    6.1539   24.7176 C.3     1  UNL1        0.0942
      5 C          -1.2170    5.9682   24.4250 C.3     1  UNL1        0.0343
      6 C          -0.6092    4.5980   24.4811 C.3     1  UNL1        0.0923
      7 C          -1.4608    3.4134   24.8298 C.3     1  UNL1        0.0343
      8 C          -2.9203    3.5992   25.1224 C.3     1  UNL1        0.0942
      9 C           0.3625    5.6821   24.1200 C.2     1  UNL1        0.2291
     10 O           0.0454    7.1423   23.9882 O.2     1  UNL1       -0.2745
     11 N           1.7070    5.0497   23.9139 N.am    1  UNL1       -0.2839
     12 C           1.5662    3.5748   24.1476 C.ar    1  UNL1        0.0467
     13 C           2.5566    2.4499   24.0865 C.ar    1  UNL1        0.0144
     14 C           2.1154    1.0458   24.3759 C.ar    1  UNL1        0.0012
     15 C           0.6839    0.7665   24.7264 C.ar    1  UNL1       -0.0002
     16 C          -0.3065    1.8914   24.7875 C.ar    1  UNL1       -0.0026
     17 C           0.1347    3.2956   24.4981 C.ar    1  UNL1       -0.0010
     18 H           2.5363    5.5202   23.6684 H       1  UNL1        0.1549
     19 C           3.1057   -0.0793   24.3148 C.2     1  UNL1        0.0001
     20 C           3.2898   -0.8481   23.0401 C.2     1  UNL1        0.0027
     21 C           2.4351   -0.4112   21.8874 C.ar    1  UNL1       -0.0004
     22 C           1.5496    0.7385   22.2666 C.ar    1  UNL1       -0.0002
     23 C           0.6127    1.3290   21.2549 C.ar    1  UNL1       -0.0000
     24 C           0.5613    0.7697   19.8641 C.ar    1  UNL1       -0.0002
     25 C           1.4468   -0.3800   19.4848 C.ar    1  UNL1       -0.0007
     26 C           2.3837   -0.9705   20.4965 C.ar    1  UNL1        0.0212
     27 C           3.1744   -2.1048   19.9149 C.3     1  UNL1        0.2320
     28 O           4.2116   -2.9599   20.5803 O.3     1  UNL1       -0.4706
     29 C           4.7144   -2.8919   21.9919 C.ar    1  UNL1        0.1412
     30 C           5.7598   -3.9357   22.2521 C.ar    1  UNL1        0.0665
     31 C           6.3950   -4.0396   23.6071 C.ar    1  UNL1        0.1432
     32 F           7.4404   -5.0833   23.8673 F       1  UNL1       -0.2041
     33 C           5.9848   -3.0998   24.7017 C.ar    1  UNL1        0.0298
     34 C           4.9393   -2.0560   24.4415 C.ar    1  UNL1        0.0053
     35 C           4.3042   -1.9521   23.0867 C.ar    1  UNL1        0.0341
     36 C          -5.5952    6.5253   25.3029 C.3     1  UNL1        0.1587
     37 C          -6.8675    6.8025   27.5511 C.3     1  UNL1        0.0900
     38 N          -6.8626    6.8148   26.0511 N.3     1  UNL1       -0.2626
     39 C          -8.1251    7.1167   25.2995 C.3     1  UNL1        0.0900
@<TRIPOS>BOND
     1    37    38    1
     2    38    39    1
     3    38    36    1
     4    36     1    1
     5     1     2    2
     6     1     3   am
     7     3     4    1
     8     4     5    1
     9     5     6    1
    10     6     7    1
    11     7     8    1
    12     6     9    1
    13     9    10    2
    14     9    11   am
    15    11    12    1
    16    12    13   ar
    17    13    14   ar
    18    14    19    1
    19    19    20    2
    20    20    21    1
    21    21    22   ar
    22    22    23   ar
    23    23    24   ar
    24    24    25   ar
    25    25    26   ar
    26    26    27    1
    27    27    28    1
    28    28    29    1
    29    29    30   ar
    30    30    31   ar
    31    31    32    1
    32    31    33   ar
    33    33    34   ar
    34    34    35   ar
    35    14    15   ar
    36    15    16   ar
    37    16    17   ar
    38     8     3    1
    39    17    12   ar
    40    17     6    1
    41    35    20    1
    42    26    21   ar
    43    35    29   ar
    44    11    18    1
@<TRIPOS>MOLECULE
*****
 39 44 0 0 0
SMALL
GASTEIGER

@<TRIPOS>ATOM
      1 C           4.5925   -1.2884   31.6247 C.2     1  UNL1        0.2420
      2 O           3.5361   -1.9294   32.4751 O.2     1  UNL1       -0.2734
      3 N           4.2000   -0.4782   30.4250 N.am    1  UNL1       -0.2784
      4 C           5.2564    0.1629   29.5745 C.3     1  UNL1        0.0942
      5 C           4.8639    0.9731   28.3748 C.3     1  UNL1        0.0343
      6 C           3.4150    1.1424   28.0255 C.3     1  UNL1        0.0923
      7 C           2.3585    0.5014   28.8759 C.3     1  UNL1        0.0343
      8 C           2.7511   -0.3088   30.0756 C.3     1  UNL1        0.0942
      9 C           4.3544    1.8390   27.0862 C.2     1  UNL1        0.2291
     10 O           5.8514    1.8476   27.1819 O.2     1  UNL1       -0.2745
     11 N           3.5342    2.5255   26.0346 N.am    1  UNL1       -0.2839
     12 C           2.0878    2.2532   26.3239 C.ar    1  UNL1        0.0467
     13 C           0.8282    2.6731   25.6258 C.ar    1  UNL1        0.0144
     14 C          -0.5049    2.2382   26.1583 C.ar    1  UNL1        0.0012
     15 C          -0.5787    1.3835   27.3887 C.ar    1  UNL1       -0.0002
     16 C           0.6809    0.9635   28.0867 C.ar    1  UNL1       -0.0026
     17 C           2.0141    1.3984   27.5543 C.ar    1  UNL1       -0.0010
     18 H           3.8837    3.0608   25.2859 H       1  UNL1        0.1549
     19 C          -1.7645    2.6582   25.4603 C.2     1  UNL1        0.0001
     20 C          -2.4617    3.9225   25.8671 C.2     1  UNL1        0.0027
     21 C          -1.8164    4.6918   26.9814 C.ar    1  UNL1       -0.0004
     22 C          -0.5712    4.0116   27.4677 C.ar    1  UNL1       -0.0002
     23 C           0.2285    4.6185   28.5822 C.ar    1  UNL1       -0.0000
     24 C          -0.2171    5.9056   29.2105 C.ar    1  UNL1       -0.0002
     25 C          -1.4624    6.5859   28.7242 C.ar    1  UNL1       -0.0007
     26 C          -2.2621    5.9790   27.6097 C.ar    1  UNL1        0.0212
     27 C          -3.4630    6.8146   27.2787 C.3     1  UNL1        0.2320
     28 O          -4.5150    6.5695   26.2379 O.3     1  UNL1       -0.4706
     29 C          -4.6257    5.4282   25.2709 C.ar    1  UNL1        0.1412
     30 C          -5.8364    5.5666   24.3961 C.ar    1  UNL1        0.0665
     31 C          -6.1333    4.5269   23.3564 C.ar    1  UNL1        0.1432
     32 F          -7.3440    4.6654   22.4817 F       1  UNL1       -0.2041
     33 C          -5.2196    3.3489   23.1914 C.ar    1  UNL1        0.0298
     34 C          -4.0089    3.2105   24.0661 C.ar    1  UNL1        0.0053
     35 C          -3.7119    4.2501   25.1058 C.ar    1  UNL1        0.0341
     36 C           6.0414   -1.4577   31.9740 C.3     1  UNL1        0.1587
     37 C           6.5361   -4.0048   32.1074 C.3     1  UNL1        0.0900
     38 N           6.7938   -2.6619   31.4906 N.3     1  UNL1       -0.2626
     39 C           7.8038   -2.5234   30.3903 C.3     1  UNL1        0.0900
@<TRIPOS>BOND
     1    37    38    1
     2    38    39    1
     3    38    36    1
     4    36     1    1
     5     1     2    2
     6     1     3   am
     7     3     4    1
     8     4     5    1
     9     5     6    1
    10     6     7    1
    11     7     8    1
    12     6     9    1
    13     9    10    2
    14     9    11   am
    15    11    12    1
    16    12    13   ar
    17    13    14   ar
    18    14    19    1
    19    19    20    2
    20    20    21    1
    21    21    22   ar
    22    22    23   ar
    23    23    24   ar
    24    24    25   ar
    25    25    26   ar
    26    26    27    1
    27    27    28    1
    28    28    29    1
    29    29    30   ar
    30    30    31   ar
    31    31    32    1
    32    31    33   ar
    33    33    34   ar
    34    34    35   ar
    35    14    15   ar
    36    15    16   ar
    37    16    17   ar
    38     8     3    1
    39    17    12   ar
    40    17     6    1
    41    35    20    1
    42    26    21   ar
    43    35    29   ar
    44    11    18    1
@<TRIPOS>MOLECULE
*****
 39 44 0 0 0
SMALL
GASTEIGER

@<TRIPOS>ATOM
      1 C          -3.8306    4.0973   19.3435 C.2     1  UNL1        0.2420
      2 O          -4.8542    3.2155   19.9952 O.2     1  UNL1       -0.2734
      3 N          -2.3771    3.9299   19.6738 N.am    1  UNL1       -0.2784
      4 C          -1.3535    4.8118   19.0222 C.3     1  UNL1        0.0942
      5 C           0.1001    4.6444   19.3524 C.3     1  UNL1        0.0343
      6 C           0.5301    3.5952   20.3343 C.3     1  UNL1        0.0923
      7 C          -0.4934    2.7132   20.9860 C.3     1  UNL1        0.0343
      8 C          -1.9470    2.8807   20.6557 C.3     1  UNL1        0.0942
      9 C           1.6617    4.3987   19.7655 C.2     1  UNL1        0.2291
     10 O           1.5385    5.5109   18.7664 O.2     1  UNL1       -0.2745
     11 N           2.9383    3.8950   20.3710 N.am    1  UNL1       -0.2839
     12 C           2.5956    2.7801   21.3141 C.ar    1  UNL1        0.0467
     13 C           3.4466    1.9097   22.1907 C.ar    1  UNL1        0.0144
     14 C           2.8091    0.8539   23.0445 C.ar    1  UNL1        0.0012
     15 C           1.3208    0.6685   23.0219 C.ar    1  UNL1       -0.0002
     16 C           0.4698    1.5390   22.1453 C.ar    1  UNL1       -0.0026
     17 C           1.1072    2.5948   21.2915 C.ar    1  UNL1       -0.0010
     18 H           3.8423    4.2362   20.1826 H       1  UNL1        0.1549
     19 C           3.6600   -0.0166   23.9210 C.2     1  UNL1        0.0001
     20 C           4.2291   -1.2955   23.3821 C.2     1  UNL1        0.0027
     21 C           3.8868   -1.6101   21.9559 C.ar    1  UNL1       -0.0004
     22 C           3.0204   -0.5447   21.3525 C.ar    1  UNL1       -0.0002
     23 C           2.5632   -0.6669   19.9291 C.ar    1  UNL1       -0.0000
     24 C           2.9725   -1.8544   19.1092 C.ar    1  UNL1       -0.0002
     25 C           3.8389   -2.9198   19.7127 C.ar    1  UNL1       -0.0007
     26 C           4.2961   -2.7976   21.1360 C.ar    1  UNL1        0.0212
     27 C           5.1487   -3.9638   21.5398 C.3     1  UNL1        0.2320
     28 O           5.8027   -4.2306   22.8631 O.3     1  UNL1       -0.4706
     29 C           5.7655   -3.3969   24.1096 C.ar    1  UNL1        0.1412
     30 C           6.5581   -4.0287   25.2153 C.ar    1  UNL1        0.0665
     31 C           6.6504   -3.3543   26.5520 C.ar    1  UNL1        0.1432
     32 F           7.4431   -3.9861   27.6576 F       1  UNL1       -0.2041
     33 C           5.9501   -2.0481   26.7829 C.ar    1  UNL1        0.0298
     34 C           5.1575   -1.4163   25.6772 C.ar    1  UNL1        0.0053
     35 C           5.0652   -2.0906   24.3406 C.ar    1  UNL1        0.0341
     36 C          -4.2607    5.1466   18.3616 C.3     1  UNL1        0.1587
     37 C          -3.8903    3.6481   16.2718 C.3     1  UNL1        0.0900
     38 N          -4.6291    4.7569   16.9608 N.3     1  UNL1       -0.2626
     39 C          -5.7364    5.4760   16.2489 C.3     1  UNL1        0.0900
@<TRIPOS>BOND
     1    37    38    1
     2    38    39    1
     3    38    36    1
     4    36     1    1
     5     1     2    2
     6     1     3   am
     7     3     4    1
     8     4     5    1
     9     5     6    1
    10     6     7    1
    11     7     8    1
    12     6     9    1
    13     9    10    2
    14     9    11   am
    15    11    12    1
    16    12    13   ar
    17    13    14   ar
    18    14    19    1
    19    19    20    2
    20    20    21    1
    21    21    22   ar
    22    22    23   ar
    23    23    24   ar
    24    24    25   ar
    25    25    26   ar
    26    26    27    1
    27    27    28    1
    28    28    29    1
    29    29    30   ar
    30    30    31   ar
    31    31    32    1
    32    31    33   ar
    33    33    34   ar
    34    34    35   ar
    35    14    15   ar
    36    15    16   ar
    37    16    17   ar
    38     8     3    1
    39    17    12   ar
    40    17     6    1
    41    35    20    1
    42    26    21   ar
    43    35    29   ar
    44    11    18    1
