@<TRIPOS>MOLECULE
*****
 44 48 0 0 0
SMALL
GASTEIGER

@<TRIPOS>ATOM
      1 N           5.2729    0.1340   22.1963 N.ar    1  UNL1       -0.3260
      2 C           5.2720   -0.7715   21.0004 C.ar    1  UNL1        0.0433
      3 C           5.7953   -2.1095   21.4317 C.ar    1  UNL1        0.0383
      4 C           6.1196   -2.0309   22.8942 C.ar    1  UNL1        0.0256
      5 C           6.6672   -3.0427   23.8566 C.ar    1  UNL1        0.0389
      6 C           6.8918   -2.6681   25.2915 C.ar    1  UNL1        0.1392
      7 C           6.5690   -1.2815   25.7640 C.ar    1  UNL1        0.0384
      8 C           6.0214   -0.2697   24.8016 C.ar    1  UNL1        0.0203
      9 C           5.7967   -0.6444   23.3667 C.ar    1  UNL1        0.0606
     10 C           4.8280    1.5663   22.2180 C.3     1  UNL1        0.1324
     11 C           0.4405    2.5615   22.1229 C.ar    1  UNL1        0.0194
     12 C           1.4288    3.4624   21.4435 C.ar    1  UNL1        0.0013
     13 C           2.8913    3.1307   21.4752 C.ar    1  UNL1       -0.0023
     14 C           3.3656    1.8980   22.1863 C.ar    1  UNL1        0.0004
     15 C           2.3772    0.9971   22.8657 C.ar    1  UNL1       -0.0023
     16 C           0.9147    1.3288   22.8340 C.ar    1  UNL1        0.0013
     17 C          -3.9471    3.5566   22.0279 C.ar    1  UNL1        0.2440
     18 C          -3.1364    3.8566   23.2538 C.ar    1  UNL1        0.0608
     19 C          -1.6739    3.5250   23.2855 C.ar    1  UNL1        0.0257
     20 C          -1.0220    2.8932   22.0912 C.ar    1  UNL1        0.1031
     21 N          -1.8328    2.5932   20.8654 N.ar    1  UNL1       -0.1451
     22 N          -3.2953    2.9248   20.8337 N.ar    1  UNL1       -0.1103
     23 C          -6.0446    4.3586   20.7213 C.3     1  UNL1        0.2543
     24 O          -5.4096    3.8883   21.9962 O.3     1  UNL1       -0.4552
     25 C           4.8261   -0.4036   19.6163 C.3     1  UNL1        0.0495
     26 C           3.4058    0.0120   19.3715 C.3     1  UNL1        0.0376
     27 C           3.8874    1.1918   18.5803 C.3     1  UNL1        0.0059
     28 C           2.9242   -1.1679   20.1627 C.3     1  UNL1        0.0059
     29 C           1.9854    0.4276   19.1267 C.2     1  UNL1        0.0500
     30 O           1.6910    1.6248   18.2721 O.co2   1  UNL1       -0.5492
     31 O           0.8596   -0.3538   19.7363 O.co2   1  UNL1       -0.5492
     32 S           5.9646   -3.3145   20.5546 S.3     1  UNL1       -0.1142
     33 C           4.7594   -4.0067   19.9903 C.3     1  UNL1        0.0434
     34 C           5.2236   -3.6826   18.6013 C.3     1  UNL1        0.0112
     35 C           4.2952   -4.3308   21.3794 C.3     1  UNL1        0.0112
     36 C           3.5542   -4.6989   19.4261 C.3     1  UNL1        0.0112
     37 O           7.4394   -3.6799   26.2540 O.3     1  UNL1       -0.4690
     38 C           6.5057   -4.4796   27.1134 C.3     1  UNL1        0.2508
     39 C           6.6221   -4.4168   28.6075 C.ar    1  UNL1        0.1026
     40 C           6.4870   -3.1014   29.3157 C.ar    1  UNL1        0.0185
     41 C           6.6035   -3.0386   30.8099 C.ar    1  UNL1        0.0029
     42 C           6.8551   -4.2911   31.5958 C.ar    1  UNL1        0.0207
     43 C           6.9903   -5.6065   30.8877 C.ar    1  UNL1        0.0986
     44 N           6.8738   -5.6694   29.3936 N.ar    1  UNL1       -0.2445
@<TRIPOS>UNITY_ATOM_ATTR
30 1
charge -1
@<TRIPOS>BOND
     1    23    24    1
     2    24    17    1
     3    17    18   ar
     4    18    19   ar
     5    19    20   ar
     6    20    11    1
     7    11    12   ar
     8    12    13   ar
     9    13    14   ar
    10    14    10    1
    11    10     1    1
    12     1     2   ar
    13     2    25    1
    14    25    26    1
    15    26    27    1
    16    26    28    1
    17    26    29    1
    18    29    30   ar
    19    29    31   ar
    20     2     3   ar
    21     3    32    1
    22    32    33    1
    23    33    34    1
    24    33    35    1
    25    33    36    1
    26     3     4   ar
    27     4     5   ar
    28     5     6   ar
    29     6    37    1
    30    37    38    1
    31    38    39    1
    32    39    40   ar
    33    40    41   ar
    34    41    42   ar
    35    42    43   ar
    36    43    44   ar
    37     6     7   ar
    38     7     8   ar
    39     8     9   ar
    40    14    15   ar
    41    15    16   ar
    42    20    21   ar
    43    21    22   ar
    44    22    17   ar
    45    16    11   ar
    46     9     1   ar
    47     9     4   ar
    48    44    39   ar
@<TRIPOS>MOLECULE
*****
 44 48 0 0 0
SMALL
GASTEIGER

@<TRIPOS>ATOM
      1 N           5.4159    0.1015   20.4165 N.ar    1  UNL1       -0.3260
      2 C           4.2793   -0.3086   19.5277 C.ar    1  UNL1        0.0433
      3 C           3.1529    0.6591   19.7395 C.ar    1  UNL1        0.0383
      4 C           3.5934    1.6673   20.7592 C.ar    1  UNL1        0.0256
      5 C           2.9016    2.8545   21.3607 C.ar    1  UNL1        0.0389
      6 C           3.6085    3.6971   22.3806 C.ar    1  UNL1        0.1392
      7 C           5.0071    3.3525   22.7990 C.ar    1  UNL1        0.0384
      8 C           5.6989    2.1653   22.1975 C.ar    1  UNL1        0.0203
      9 C           4.9920    1.3226   21.1776 C.ar    1  UNL1        0.0606
     10 C           6.7434   -0.5883   20.5251 C.3     1  UNL1        0.1324
     11 C           7.2275   -4.1165   23.2761 C.ar    1  UNL1        0.0194
     12 C           6.3258   -2.9819   23.6630 C.ar    1  UNL1        0.0013
     13 C           6.1644   -1.8059   22.7460 C.ar    1  UNL1       -0.0023
     14 C           6.9048   -1.7643   21.4421 C.ar    1  UNL1        0.0004
     15 C           7.8065   -2.8990   21.0552 C.ar    1  UNL1       -0.0023
     16 C           7.9678   -4.0750   21.9721 C.ar    1  UNL1        0.0013
     17 C           7.7116   -7.6447   26.0269 C.ar    1  UNL1        0.2440
     18 C           8.3397   -7.6640   24.6648 C.ar    1  UNL1        0.0608
     19 C           8.1783   -6.4879   23.7479 C.ar    1  UNL1        0.0257
     20 C           7.3888   -5.2926   24.1930 C.ar    1  UNL1        0.1031
     21 N           6.7608   -5.2734   25.5551 N.ar    1  UNL1       -0.1451
     22 N           6.9222   -6.4494   26.4720 N.ar    1  UNL1       -0.1103
     23 C           8.9664   -8.8268   27.9707 C.3     1  UNL1        0.2543
     24 O           7.8730   -8.8208   26.9438 O.3     1  UNL1       -0.4552
     25 C           4.2706   -1.4805   18.5916 C.3     1  UNL1        0.0495
     26 C           4.4064   -2.8731   19.1320 C.3     1  UNL1        0.0376
     27 C           5.5363   -3.1323   18.1800 C.3     1  UNL1        0.0059
     28 C           3.2766   -2.6139   20.0839 C.3     1  UNL1        0.0059
     29 C           4.5423   -4.2659   19.6724 C.2     1  UNL1        0.0500
     30 O           4.7832   -5.4132   18.7367 O.co2   1  UNL1       -0.5492
     31 O           4.4373   -4.5111   21.1484 O.co2   1  UNL1       -0.5492
     32 S           1.8200    0.6247   19.0523 S.3     1  UNL1       -0.1142
     33 C           0.6266    1.2643   19.6980 C.3     1  UNL1        0.0434
     34 C           0.6906    2.3865   18.7047 C.3     1  UNL1        0.0112
     35 C           0.5626    0.1421   20.6912 C.3     1  UNL1        0.0112
     36 C          -0.5668    1.9038   20.3437 C.3     1  UNL1        0.0112
     37 O           2.9167    4.8844   22.9822 O.3     1  UNL1       -0.4690
     38 C           1.5344    4.7405   23.5467 C.3     1  UNL1        0.2508
     39 C           1.2269    3.6264   24.5028 C.ar    1  UNL1        0.1026
     40 C           0.2296    2.5705   24.1283 C.ar    1  UNL1        0.0185
     41 C          -0.0779    1.4564   25.0845 C.ar    1  UNL1        0.0029
     42 C           0.6120    1.3982   26.4151 C.ar    1  UNL1        0.0207
     43 C           1.6094    2.4541   26.7896 C.ar    1  UNL1        0.0986
     44 N           1.9169    3.5682   25.8335 N.ar    1  UNL1       -0.2445
@<TRIPOS>UNITY_ATOM_ATTR
30 1
charge -1
@<TRIPOS>BOND
     1    23    24    1
     2    24    17    1
     3    17    18   ar
     4    18    19   ar
     5    19    20   ar
     6    20    11    1
     7    11    12   ar
     8    12    13   ar
     9    13    14   ar
    10    14    10    1
    11    10     1    1
    12     1     2   ar
    13     2    25    1
    14    25    26    1
    15    26    27    1
    16    26    28    1
    17    26    29    1
    18    29    30   ar
    19    29    31   ar
    20     2     3   ar
    21     3    32    1
    22    32    33    1
    23    33    34    1
    24    33    35    1
    25    33    36    1
    26     3     4   ar
    27     4     5   ar
    28     5     6   ar
    29     6    37    1
    30    37    38    1
    31    38    39    1
    32    39    40   ar
    33    40    41   ar
    34    41    42   ar
    35    42    43   ar
    36    43    44   ar
    37     6     7   ar
    38     7     8   ar
    39     8     9   ar
    40    14    15   ar
    41    15    16   ar
    42    20    21   ar
    43    21    22   ar
    44    22    17   ar
    45    16    11   ar
    46     9     1   ar
    47     9     4   ar
    48    44    39   ar
@<TRIPOS>MOLECULE
*****
 44 48 0 0 0
SMALL
GASTEIGER

@<TRIPOS>ATOM
      1 N           4.1828    0.3819   22.2970 N.ar    1  UNL1       -0.3260
      2 C           4.0430   -0.6810   21.2479 C.ar    1  UNL1        0.0433
      3 C           4.4612   -1.9879   21.8536 C.ar    1  UNL1        0.0383
      4 C           4.8594   -1.7328   23.2771 C.ar    1  UNL1        0.0256
      5 C           5.3565   -2.6449   24.3592 C.ar    1  UNL1        0.0389
      6 C           5.6815   -2.0923   25.7153 C.ar    1  UNL1        0.1392
      7 C           5.5095   -0.6277   25.9893 C.ar    1  UNL1        0.0384
      8 C           5.0124    0.2845   24.9072 C.ar    1  UNL1        0.0203
      9 C           4.6874   -0.2681   23.5511 C.ar    1  UNL1        0.0606
     10 C           3.8726    1.8391   22.1226 C.3     1  UNL1        0.1324
     11 C          -0.3612    3.3045   22.5438 C.ar    1  UNL1        0.0194
     12 C           0.1396    2.1959   23.4214 C.ar    1  UNL1        0.0013
     13 C           1.5508    1.7074   23.2811 C.ar    1  UNL1       -0.0023
     14 C           2.4614    2.3275   22.2630 C.ar    1  UNL1        0.0004
     15 C           1.9605    3.4361   21.3854 C.ar    1  UNL1       -0.0023
     16 C           0.5493    3.9246   21.5257 C.ar    1  UNL1        0.0013
     17 C          -4.5950    4.7699   22.9650 C.ar    1  UNL1        0.2440
     18 C          -3.5124    5.3466   23.8284 C.ar    1  UNL1        0.0608
     19 C          -2.1012    4.8581   23.6881 C.ar    1  UNL1        0.0257
     20 C          -1.7725    3.7929   22.6842 C.ar    1  UNL1        0.1031
     21 N          -2.8551    3.2163   21.8208 N.ar    1  UNL1       -0.1451
     22 N          -4.2664    3.7048   21.9612 N.ar    1  UNL1       -0.1103
     23 C          -7.1520    4.3362   22.8108 C.3     1  UNL1        0.2543
     24 O          -6.0063    5.2584   23.1054 O.3     1  UNL1       -0.4552
     25 C           3.5684   -0.4734   19.8402 C.3     1  UNL1        0.0495
     26 C           2.2037    0.0944   19.5848 C.3     1  UNL1        0.0376
     27 C           2.7986    1.1028   18.6473 C.3     1  UNL1        0.0059
     28 C           1.6087   -0.9141   20.5224 C.3     1  UNL1        0.0059
     29 C           0.8389    0.6622   19.3295 C.2     1  UNL1        0.0500
     30 O          -0.2230    0.5657   20.3845 O.co2   1  UNL1       -0.5492
     31 O           0.5362    1.3265   18.0192 O.co2   1  UNL1       -0.5492
     32 S           4.4781   -3.3168   21.1581 S.3     1  UNL1       -0.1142
     33 C           4.9113   -3.4077   19.7248 C.3     1  UNL1        0.0434
     34 C           6.2863   -2.9492   20.1113 C.3     1  UNL1        0.0112
     35 C           3.5364   -3.8661   19.3383 C.3     1  UNL1        0.0112
     36 C           5.3445   -3.4986   18.2916 C.3     1  UNL1        0.0112
     37 O           6.1786   -3.0045   26.7974 O.3     1  UNL1       -0.4690
     38 C           7.5414   -3.6219   26.6905 C.3     1  UNL1        0.2508
     39 C           7.7064   -4.9693   26.0523 C.ar    1  UNL1        0.1026
     40 C           7.1911   -6.1957   26.7453 C.ar    1  UNL1        0.0185
     41 C           7.3562   -7.5431   26.1070 C.ar    1  UNL1        0.0029
     42 C           8.0365   -7.6640   24.7757 C.ar    1  UNL1        0.0207
     43 C           8.5518   -6.4375   24.0826 C.ar    1  UNL1        0.0986
     44 N           8.3868   -5.0902   24.7209 N.ar    1  UNL1       -0.2445
@<TRIPOS>UNITY_ATOM_ATTR
30 1
charge -1
@<TRIPOS>BOND
     1    23    24    1
     2    24    17    1
     3    17    18   ar
     4    18    19   ar
     5    19    20   ar
     6    20    11    1
     7    11    12   ar
     8    12    13   ar
     9    13    14   ar
    10    14    10    1
    11    10     1    1
    12     1     2   ar
    13     2    25    1
    14    25    26    1
    15    26    27    1
    16    26    28    1
    17    26    29    1
    18    29    30   ar
    19    29    31   ar
    20     2     3   ar
    21     3    32    1
    22    32    33    1
    23    33    34    1
    24    33    35    1
    25    33    36    1
    26     3     4   ar
    27     4     5   ar
    28     5     6   ar
    29     6    37    1
    30    37    38    1
    31    38    39    1
    32    39    40   ar
    33    40    41   ar
    34    41    42   ar
    35    42    43   ar
    36    43    44   ar
    37     6     7   ar
    38     7     8   ar
    39     8     9   ar
    40    14    15   ar
    41    15    16   ar
    42    20    21   ar
    43    21    22   ar
    44    22    17   ar
    45    16    11   ar
    46     9     1   ar
    47     9     4   ar
    48    44    39   ar
@<TRIPOS>MOLECULE
*****
 44 48 0 0 0
SMALL
GASTEIGER

@<TRIPOS>ATOM
      1 N           3.9616    0.3318   22.2927 N.ar    1  UNL1       -0.3260
      2 C           3.8833   -0.7243   21.2303 C.ar    1  UNL1        0.0433
      3 C           4.4230   -2.0005   21.8047 C.ar    1  UNL1        0.0383
      4 C           4.8350   -1.7332   23.2221 C.ar    1  UNL1        0.0256
      5 C           5.4329   -2.6161   24.2770 C.ar    1  UNL1        0.0389
      6 C           5.7456   -2.0575   25.6335 C.ar    1  UNL1        0.1392
      7 C           5.4604   -0.6161   25.9351 C.ar    1  UNL1        0.0384
      8 C           4.8625    0.2668   24.8802 C.ar    1  UNL1        0.0203
      9 C           4.5498   -0.2917   23.5236 C.ar    1  UNL1        0.0606
     10 C           3.5279    1.7605   22.1492 C.3     1  UNL1        0.1324
     11 C          -0.5046    3.0519   23.6726 C.ar    1  UNL1        0.0194
     12 C           0.1733    1.8534   24.2676 C.ar    1  UNL1        0.0013
     13 C           1.5175    1.4229   23.7598 C.ar    1  UNL1       -0.0023
     14 C           2.1838    2.1909   22.6570 C.ar    1  UNL1        0.0004
     15 C           1.5058    3.3895   22.0620 C.ar    1  UNL1       -0.0023
     16 C           0.1617    3.8200   22.5697 C.ar    1  UNL1        0.0013
     17 C          -4.5372    4.3434   25.1958 C.ar    1  UNL1        0.2440
     18 C          -3.4936    3.8556   26.1566 C.ar    1  UNL1        0.0608
     19 C          -2.1494    3.4251   25.6488 C.ar    1  UNL1        0.0257
     20 C          -1.8488    3.4824   24.1803 C.ar    1  UNL1        0.1031
     21 N          -2.8924    3.9701   23.2196 N.ar    1  UNL1       -0.1451
     22 N          -4.2366    4.4006   23.7273 N.ar    1  UNL1       -0.1103
     23 C          -6.8262    5.5060   24.7973 C.3     1  UNL1        0.2543
     24 O          -5.8814    4.7738   25.7035 O.3     1  UNL1       -0.4552
     25 C           3.3575   -0.5370   19.8380 C.3     1  UNL1        0.0495
     26 C           2.0397    0.1453   19.6194 C.3     1  UNL1        0.0376
     27 C           2.7023    1.1314   18.7037 C.3     1  UNL1        0.0059
     28 C           1.3772   -0.8408   20.5351 C.3     1  UNL1        0.0059
     29 C           0.7219    0.8277   19.4007 C.2     1  UNL1        0.0500
     30 O           0.4407    1.5157   18.0978 O.co2   1  UNL1       -0.5492
     31 O          -0.3146    0.8222   20.4850 O.co2   1  UNL1       -0.5492
     32 S           4.5318   -3.3135   21.0877 S.3     1  UNL1       -0.1142
     33 C           4.9780   -3.3516   19.6560 C.3     1  UNL1        0.0434
     34 C           6.3216   -2.8217   20.0607 C.3     1  UNL1        0.0112
     35 C           3.6343   -3.8815   19.2515 C.3     1  UNL1        0.0112
     36 C           5.4240   -3.3897   18.2244 C.3     1  UNL1        0.0112
     37 O           6.3436   -2.9404   26.6886 O.3     1  UNL1       -0.4690
     38 C           6.0271   -2.7005   28.1351 C.3     1  UNL1        0.2508
     39 C           6.4826   -3.6807   29.1751 C.ar    1  UNL1        0.1026
     40 C           6.4971   -3.2862   30.6222 C.ar    1  UNL1        0.0185
     41 C           6.9527   -4.2665   31.6622 C.ar    1  UNL1        0.0029
     42 C           7.3936   -5.6412   31.2551 C.ar    1  UNL1        0.0207
     43 C           7.3790   -6.0356   29.8080 C.ar    1  UNL1        0.0986
     44 N           6.9235   -5.0554   28.7680 N.ar    1  UNL1       -0.2445
@<TRIPOS>UNITY_ATOM_ATTR
30 1
charge -1
@<TRIPOS>BOND
     1    23    24    1
     2    24    17    1
     3    17    18   ar
     4    18    19   ar
     5    19    20   ar
     6    20    11    1
     7    11    12   ar
     8    12    13   ar
     9    13    14   ar
    10    14    10    1
    11    10     1    1
    12     1     2   ar
    13     2    25    1
    14    25    26    1
    15    26    27    1
    16    26    28    1
    17    26    29    1
    18    29    30   ar
    19    29    31   ar
    20     2     3   ar
    21     3    32    1
    22    32    33    1
    23    33    34    1
    24    33    35    1
    25    33    36    1
    26     3     4   ar
    27     4     5   ar
    28     5     6   ar
    29     6    37    1
    30    37    38    1
    31    38    39    1
    32    39    40   ar
    33    40    41   ar
    34    41    42   ar
    35    42    43   ar
    36    43    44   ar
    37     6     7   ar
    38     7     8   ar
    39     8     9   ar
    40    14    15   ar
    41    15    16   ar
    42    20    21   ar
    43    21    22   ar
    44    22    17   ar
    45    16    11   ar
    46     9     1   ar
    47     9     4   ar
    48    44    39   ar
@<TRIPOS>MOLECULE
*****
 44 48 0 0 0
SMALL
GASTEIGER

@<TRIPOS>ATOM
      1 N           5.0231    0.4402   21.5917 N.ar    1  UNL1       -0.3260
      2 C           4.8846   -0.6453   20.5658 C.ar    1  UNL1        0.0433
      3 C           5.6484   -1.8416   21.0509 C.ar    1  UNL1        0.0383
      4 C           6.2589   -1.4955   22.3766 C.ar    1  UNL1        0.0256
      5 C           7.1169   -2.2823   23.3226 C.ar    1  UNL1        0.0389
      6 C           7.5883   -1.6589   24.6028 C.ar    1  UNL1        0.1392
      7 C           7.2019   -0.2486   24.9370 C.ar    1  UNL1        0.0384
      8 C           6.3440    0.5383   23.9910 C.ar    1  UNL1        0.0203
      9 C           5.8725   -0.0852   22.7109 C.ar    1  UNL1        0.0606
     10 C           4.4184    1.8107   21.5125 C.3     1  UNL1        0.1324
     11 C           0.5115    2.6689   23.5738 C.ar    1  UNL1        0.0194
     12 C           1.0305    3.6107   22.5281 C.ar    1  UNL1        0.0013
     13 C           2.3328    3.3247   21.8409 C.ar    1  UNL1       -0.0023
     14 C           3.1162    2.0968   22.1995 C.ar    1  UNL1        0.0004
     15 C           2.5971    1.1549   23.2453 C.ar    1  UNL1       -0.0023
     16 C           1.2948    1.4410   23.9325 C.ar    1  UNL1        0.0013
     17 C          -3.3954    3.5270   25.6352 C.ar    1  UNL1        0.2440
     18 C          -2.2359    2.9887   26.4199 C.ar    1  UNL1        0.0608
     19 C          -0.9336    2.7027   25.7327 C.ar    1  UNL1        0.0257
     20 C          -0.7908    2.9549   24.2609 C.ar    1  UNL1        0.1031
     21 N          -1.9504    3.4932   23.4764 N.ar    1  UNL1       -0.1451
     22 N          -3.2527    3.7793   24.1635 N.ar    1  UNL1       -0.1103
     23 C          -4.9648    5.1773   26.8857 C.3     1  UNL1        0.2543
     24 O          -4.6977    3.8130   26.3223 O.3     1  UNL1       -0.4552
     25 C           4.1170   -0.5510   19.2805 C.3     1  UNL1        0.0495
     26 C           2.6762   -0.1342   19.2963 C.3     1  UNL1        0.0376
     27 C           2.9708    0.9230   18.2739 C.3     1  UNL1        0.0059
     28 C           2.3816   -1.1915   20.3187 C.3     1  UNL1        0.0059
     29 C           1.2353    0.2826   19.3119 C.2     1  UNL1        0.0500
     30 O           0.3477   -0.1295   20.4488 O.co2   1  UNL1       -0.5492
     31 O           0.6821    1.1114   18.1908 O.co2   1  UNL1       -0.5492
     32 S           5.7787   -3.1538   20.3359 S.3     1  UNL1       -0.1142
     33 C           4.5570   -3.9742   20.0453 C.3     1  UNL1        0.0434
     34 C           4.2900   -4.0976   21.5161 C.3     1  UNL1        0.0112
     35 C           4.8240   -3.8507   18.5744 C.3     1  UNL1        0.0112
     36 C           3.3353   -4.7945   19.7546 C.3     1  UNL1        0.0112
     37 O           8.4463   -2.4457   25.5488 O.3     1  UNL1       -0.4690
     38 C           7.9350   -3.7283   26.1349 C.3     1  UNL1        0.2508
     39 C           8.2774   -5.0375   25.4879 C.ar    1  UNL1        0.1026
     40 C           7.7039   -6.3139   26.0283 C.ar    1  UNL1        0.0185
     41 C           8.0464   -7.6231   25.3812 C.ar    1  UNL1        0.0029
     42 C           8.9623   -7.6560   24.1939 C.ar    1  UNL1        0.0207
     43 C           9.5359   -6.3797   23.6535 C.ar    1  UNL1        0.0986
     44 N           9.1935   -5.0705   24.3005 N.ar    1  UNL1       -0.2445
@<TRIPOS>UNITY_ATOM_ATTR
30 1
charge -1
@<TRIPOS>BOND
     1    23    24    1
     2    24    17    1
     3    17    18   ar
     4    18    19   ar
     5    19    20   ar
     6    20    11    1
     7    11    12   ar
     8    12    13   ar
     9    13    14   ar
    10    14    10    1
    11    10     1    1
    12     1     2   ar
    13     2    25    1
    14    25    26    1
    15    26    27    1
    16    26    28    1
    17    26    29    1
    18    29    30   ar
    19    29    31   ar
    20     2     3   ar
    21     3    32    1
    22    32    33    1
    23    33    34    1
    24    33    35    1
    25    33    36    1
    26     3     4   ar
    27     4     5   ar
    28     5     6   ar
    29     6    37    1
    30    37    38    1
    31    38    39    1
    32    39    40   ar
    33    40    41   ar
    34    41    42   ar
    35    42    43   ar
    36    43    44   ar
    37     6     7   ar
    38     7     8   ar
    39     8     9   ar
    40    14    15   ar
    41    15    16   ar
    42    20    21   ar
    43    21    22   ar
    44    22    17   ar
    45    16    11   ar
    46     9     1   ar
    47     9     4   ar
    48    44    39   ar
@<TRIPOS>MOLECULE
*****
 44 48 0 0 0
SMALL
GASTEIGER

@<TRIPOS>ATOM
      1 N           2.1093    0.7002   20.1837 N.ar    1  UNL1       -0.3260
      2 C           2.8050    1.5998   19.2055 C.ar    1  UNL1        0.0433
      3 C           2.5875    3.0176   19.6442 C.ar    1  UNL1        0.0383
      4 C           1.7576    2.9943   20.8934 C.ar    1  UNL1        0.0256
      5 C           1.2327    4.0923   21.7704 C.ar    1  UNL1        0.0389
      6 C           0.4124    3.7579   22.9808 C.ar    1  UNL1        0.1392
      7 C           0.1169    2.3256   23.3142 C.ar    1  UNL1        0.0384
      8 C           0.6417    1.2277   22.4373 C.ar    1  UNL1        0.0203
      9 C           1.4620    1.5620   21.2269 C.ar    1  UNL1        0.0606
     10 C           2.0683   -0.7982   20.1285 C.3     1  UNL1        0.1324
     11 C           5.1728   -3.2164   22.3112 C.ar    1  UNL1        0.0194
     12 C           4.7362   -3.6234   20.9351 C.ar    1  UNL1        0.0013
     13 C           3.7013   -2.8173   20.2075 C.ar    1  UNL1       -0.0023
     14 C           3.1031   -1.6043   20.8560 C.ar    1  UNL1        0.0004
     15 C           3.5397   -1.1973   22.2322 C.ar    1  UNL1       -0.0023
     16 C           4.5746   -2.0033   22.9598 C.ar    1  UNL1        0.0013
     17 C           8.2773   -5.6344   24.4941 C.ar    1  UNL1        0.2440
     18 C           7.3320   -4.7589   25.2622 C.ar    1  UNL1        0.0608
     19 C           6.2972   -3.9529   24.5346 C.ar    1  UNL1        0.0257
     20 C           6.2076   -4.0224   23.0388 C.ar    1  UNL1        0.1031
     21 N           7.1529   -4.8979   22.2708 N.ar    1  UNL1       -0.1451
     22 N           8.1877   -5.7039   22.9984 N.ar    1  UNL1       -0.1103
     23 C           9.0507   -7.8822   25.5426 C.3     1  UNL1        0.2543
     24 O           9.3121   -6.4404   25.2217 O.3     1  UNL1       -0.4552
     25 C           3.5816    1.1589   18.0003 C.3     1  UNL1        0.0495
     26 C           4.7611    0.2463   18.1608 C.3     1  UNL1        0.0376
     27 C           4.1942   -0.6699   17.1173 C.3     1  UNL1        0.0059
     28 C           5.3281    1.1626   19.2043 C.3     1  UNL1        0.0059
     29 C           5.9407   -0.6664   18.3213 C.2     1  UNL1        0.0500
     30 O           6.5280   -1.3508   17.1226 O.co2   1  UNL1       -0.5492
     31 O           6.5330   -0.8946   19.6803 O.co2   1  UNL1       -0.5492
     32 S           3.1086    4.2436   18.9546 S.3     1  UNL1       -0.1142
     33 C           4.5809    4.5309   18.9463 C.3     1  UNL1        0.0434
     34 C           4.5757    4.6002   20.4447 C.3     1  UNL1        0.0112
     35 C           4.5859    4.4616   17.4480 C.3     1  UNL1        0.0112
     36 C           6.0531    4.8182   18.9380 C.3     1  UNL1        0.0112
     37 O          -0.1125    4.8558   23.8578 O.3     1  UNL1       -0.4690
     38 C          -1.4277    5.5042   23.5418 C.3     1  UNL1        0.2508
     39 C          -2.6281    4.6570   23.2398 C.ar    1  UNL1        0.1026
     40 C          -3.4411    4.0813   24.3612 C.ar    1  UNL1        0.0185
     41 C          -4.6416    3.2341   24.0592 C.ar    1  UNL1        0.0029
     42 C          -5.0290    2.9626   22.6358 C.ar    1  UNL1        0.0207
     43 C          -4.2160    3.5383   21.5143 C.ar    1  UNL1        0.0986
     44 N          -3.0156    4.3855   21.8163 N.ar    1  UNL1       -0.2445
@<TRIPOS>UNITY_ATOM_ATTR
30 1
charge -1
@<TRIPOS>BOND
     1    23    24    1
     2    24    17    1
     3    17    18   ar
     4    18    19   ar
     5    19    20   ar
     6    20    11    1
     7    11    12   ar
     8    12    13   ar
     9    13    14   ar
    10    14    10    1
    11    10     1    1
    12     1     2   ar
    13     2    25    1
    14    25    26    1
    15    26    27    1
    16    26    28    1
    17    26    29    1
    18    29    30   ar
    19    29    31   ar
    20     2     3   ar
    21     3    32    1
    22    32    33    1
    23    33    34    1
    24    33    35    1
    25    33    36    1
    26     3     4   ar
    27     4     5   ar
    28     5     6   ar
    29     6    37    1
    30    37    38    1
    31    38    39    1
    32    39    40   ar
    33    40    41   ar
    34    41    42   ar
    35    42    43   ar
    36    43    44   ar
    37     6     7   ar
    38     7     8   ar
    39     8     9   ar
    40    14    15   ar
    41    15    16   ar
    42    20    21   ar
    43    21    22   ar
    44    22    17   ar
    45    16    11   ar
    46     9     1   ar
    47     9     4   ar
    48    44    39   ar
@<TRIPOS>MOLECULE
*****
 44 48 0 0 0
SMALL
GASTEIGER

@<TRIPOS>ATOM
      1 N          -1.1893    3.7288   21.8768 N.ar    1  UNL1       -0.3260
      2 C          -2.4460    4.5475   21.8975 C.ar    1  UNL1        0.0433
      3 C          -3.0160    4.4866   23.2836 C.ar    1  UNL1        0.0383
      4 C          -2.1116    3.6303   24.1196 C.ar    1  UNL1        0.0256
      5 C          -2.1702    3.2166   25.5602 C.ar    1  UNL1        0.0389
      6 C          -1.0999    2.3345   26.1313 C.ar    1  UNL1        0.1392
      7 C           0.0291    1.8661   25.2618 C.ar    1  UNL1        0.0384
      8 C           0.0878    2.2798   23.8212 C.ar    1  UNL1        0.0203
      9 C          -0.9826    3.1619   23.2501 C.ar    1  UNL1        0.0606
     10 C          -0.2960    3.5145   20.6910 C.3     1  UNL1        0.1324
     11 C           2.5518    0.0310   20.6192 C.ar    1  UNL1        0.0194
     12 C           1.0886   -0.1913   20.3753 C.ar    1  UNL1        0.0013
     13 C           0.1393    0.9698   20.3992 C.ar    1  UNL1       -0.0023
     14 C           0.6532    2.3534   20.6670 C.ar    1  UNL1        0.0004
     15 C           2.1165    2.5757   20.9110 C.ar    1  UNL1       -0.0023
     16 C           3.0658    1.4146   20.8871 C.ar    1  UNL1        0.0013
     17 C           5.3998   -3.4523   20.5475 C.ar    1  UNL1        0.2440
     18 C           4.1973   -3.4482   19.6508 C.ar    1  UNL1        0.0608
     19 C           3.2480   -2.2871   19.6747 C.ar    1  UNL1        0.0257
     20 C           3.5011   -1.1301   20.5953 C.ar    1  UNL1        0.1031
     21 N           4.7036   -1.1343   21.4920 N.ar    1  UNL1       -0.1451
     22 N           5.6529   -2.2955   21.4681 N.ar    1  UNL1       -0.1103
     23 C           7.7950   -4.4072   20.8651 C.3     1  UNL1        0.2543
     24 O           6.3491   -4.6135   20.5236 O.3     1  UNL1       -0.4552
     25 C          -3.0301    5.2956   20.7360 C.3     1  UNL1        0.0495
     26 C          -3.2361    4.6002   19.4231 C.3     1  UNL1        0.0376
     27 C          -4.0856    3.5679   20.1032 C.3     1  UNL1        0.0059
     28 C          -2.3866    5.6325   18.7429 C.3     1  UNL1        0.0059
     29 C          -3.4422    3.9047   18.1101 C.2     1  UNL1        0.0500
     30 O          -2.3169    3.8193   17.1219 O.co2   1  UNL1       -0.5492
     31 O          -4.7734    3.2946   17.7853 O.co2   1  UNL1       -0.5492
     32 S          -4.2702    5.1633   23.7517 S.3     1  UNL1       -0.1142
     33 C          -5.6011    4.7350   23.2081 C.3     1  UNL1        0.0434
     34 C          -5.3282    3.3274   23.6490 C.3     1  UNL1        0.0112
     35 C          -5.8740    6.1425   22.7673 C.3     1  UNL1        0.0112
     36 C          -6.9319    4.3067   22.6646 C.3     1  UNL1        0.0112
     37 O          -1.1585    1.9207   27.5720 O.3     1  UNL1       -0.4690
     38 C          -0.5085    0.6426   28.0122 C.3     1  UNL1        0.2508
     39 C           0.4859    0.6549   29.1351 C.ar    1  UNL1        0.1026
     40 C           0.4435    1.7470   30.1625 C.ar    1  UNL1        0.0185
     41 C           1.4380    1.7592   31.2855 C.ar    1  UNL1        0.0029
     42 C           2.4747    0.6794   31.3811 C.ar    1  UNL1        0.0207
     43 C           2.5170   -0.4127   30.3537 C.ar    1  UNL1        0.0986
     44 N           1.5227   -0.4250   29.2308 N.ar    1  UNL1       -0.2445
@<TRIPOS>UNITY_ATOM_ATTR
30 1
charge -1
@<TRIPOS>BOND
     1    23    24    1
     2    24    17    1
     3    17    18   ar
     4    18    19   ar
     5    19    20   ar
     6    20    11    1
     7    11    12   ar
     8    12    13   ar
     9    13    14   ar
    10    14    10    1
    11    10     1    1
    12     1     2   ar
    13     2    25    1
    14    25    26    1
    15    26    27    1
    16    26    28    1
    17    26    29    1
    18    29    30   ar
    19    29    31   ar
    20     2     3   ar
    21     3    32    1
    22    32    33    1
    23    33    34    1
    24    33    35    1
    25    33    36    1
    26     3     4   ar
    27     4     5   ar
    28     5     6   ar
    29     6    37    1
    30    37    38    1
    31    38    39    1
    32    39    40   ar
    33    40    41   ar
    34    41    42   ar
    35    42    43   ar
    36    43    44   ar
    37     6     7   ar
    38     7     8   ar
    39     8     9   ar
    40    14    15   ar
    41    15    16   ar
    42    20    21   ar
    43    21    22   ar
    44    22    17   ar
    45    16    11   ar
    46     9     1   ar
    47     9     4   ar
    48    44    39   ar
@<TRIPOS>MOLECULE
*****
 44 48 0 0 0
SMALL
GASTEIGER

@<TRIPOS>ATOM
      1 N           5.1727    0.1877   22.1075 N.ar    1  UNL1       -0.3260
      2 C           5.2290   -0.6989   20.8990 C.ar    1  UNL1        0.0433
      3 C           5.7300   -2.0442   21.3340 C.ar    1  UNL1        0.0383
      4 C           5.9833   -1.9890   22.8114 C.ar    1  UNL1        0.0256
      5 C           6.4831   -3.0165   23.7832 C.ar    1  UNL1        0.0389
      6 C           6.6384   -2.6647   25.2330 C.ar    1  UNL1        0.1392
      7 C           6.2940   -1.2852   25.7111 C.ar    1  UNL1        0.0384
      8 C           5.7942   -0.2577   24.7393 C.ar    1  UNL1        0.0203
      9 C           5.6389   -0.6096   23.2895 C.ar    1  UNL1        0.0606
     10 C           4.7282    1.6202   22.1302 C.3     1  UNL1        0.1324
     11 C           0.3405    2.6163   22.0569 C.ar    1  UNL1        0.0194
     12 C           0.8037    1.3109   22.6323 C.ar    1  UNL1        0.0013
     13 C           2.2663    0.9788   22.6567 C.ar    1  UNL1       -0.0023
     14 C           3.2657    1.9522   22.1058 C.ar    1  UNL1        0.0004
     15 C           2.8025    3.2578   21.5304 C.ar    1  UNL1       -0.0023
     16 C           1.3399    3.5899   21.5059 C.ar    1  UNL1        0.0013
     17 C          -4.0472    3.6126   21.9835 C.ar    1  UNL1        0.2440
     18 C          -3.2308    3.9105   23.2062 C.ar    1  UNL1        0.0608
     19 C          -1.7683    3.5784   23.2306 C.ar    1  UNL1        0.0257
     20 C          -1.1220    2.9484   22.0324 C.ar    1  UNL1        0.1031
     21 N          -1.9384    2.6506   20.8098 N.ar    1  UNL1       -0.1451
     22 N          -3.4010    2.9827   20.7853 N.ar    1  UNL1       -0.1103
     23 C          -6.2501    4.1667   23.2445 C.3     1  UNL1        0.2543
     24 O          -5.5097    3.9447   21.9590 O.3     1  UNL1       -0.4552
     25 C           4.8507   -0.3088   19.5009 C.3     1  UNL1        0.0495
     26 C           3.4726    0.2091   19.2136 C.3     1  UNL1        0.0376
     27 C           2.8805   -1.0115   19.8533 C.3     1  UNL1        0.0059
     28 C           4.0648    1.4297   18.5738 C.3     1  UNL1        0.0059
     29 C           2.0945    0.7270   18.9263 C.2     1  UNL1        0.0500
     30 O           0.8925   -0.0648   19.3488 O.co2   1  UNL1       -0.5492
     31 O           1.9182    2.0366   18.2165 O.co2   1  UNL1       -0.5492
     32 S           5.9407   -3.2356   20.4473 S.3     1  UNL1       -0.1142
     33 C           4.7637   -3.9166   19.8139 C.3     1  UNL1        0.0434
     34 C           4.2395   -4.2746   21.1729 C.3     1  UNL1        0.0112
     35 C           5.2880   -3.5585   18.4549 C.3     1  UNL1        0.0112
     36 C           3.5869   -4.5975   19.1804 C.3     1  UNL1        0.0112
     37 O           7.1382   -3.6922   26.2048 O.3     1  UNL1       -0.4690
     38 C           6.7690   -5.1351   26.0267 C.3     1  UNL1        0.2508
     39 C           7.5785   -6.2048   26.6977 C.ar    1  UNL1        0.1026
     40 C           7.8018   -6.1576   28.1802 C.ar    1  UNL1        0.0185
     41 C           8.6114   -7.2274   28.8512 C.ar    1  UNL1        0.0029
     42 C           9.1977   -8.3443   28.0397 C.ar    1  UNL1        0.0207
     43 C           8.9743   -8.3916   26.5571 C.ar    1  UNL1        0.0986
     44 N           8.1648   -7.3219   25.8861 N.ar    1  UNL1       -0.2445
@<TRIPOS>UNITY_ATOM_ATTR
30 1
charge -1
@<TRIPOS>BOND
     1    23    24    1
     2    24    17    1
     3    17    18   ar
     4    18    19   ar
     5    19    20   ar
     6    20    11    1
     7    11    12   ar
     8    12    13   ar
     9    13    14   ar
    10    14    10    1
    11    10     1    1
    12     1     2   ar
    13     2    25    1
    14    25    26    1
    15    26    27    1
    16    26    28    1
    17    26    29    1
    18    29    30   ar
    19    29    31   ar
    20     2     3   ar
    21     3    32    1
    22    32    33    1
    23    33    34    1
    24    33    35    1
    25    33    36    1
    26     3     4   ar
    27     4     5   ar
    28     5     6   ar
    29     6    37    1
    30    37    38    1
    31    38    39    1
    32    39    40   ar
    33    40    41   ar
    34    41    42   ar
    35    42    43   ar
    36    43    44   ar
    37     6     7   ar
    38     7     8   ar
    39     8     9   ar
    40    14    15   ar
    41    15    16   ar
    42    20    21   ar
    43    21    22   ar
    44    22    17   ar
    45    16    11   ar
    46     9     1   ar
    47     9     4   ar
    48    44    39   ar
@<TRIPOS>MOLECULE
*****
 44 48 0 0 0
SMALL
GASTEIGER

@<TRIPOS>ATOM
      1 N           3.5307    0.5218   21.6438 N.ar    1  UNL1       -0.3260
      2 C           3.0551   -0.1238   20.3761 C.ar    1  UNL1        0.0433
      3 C           3.4238   -1.5768   20.4293 C.ar    1  UNL1        0.0383
      4 C           4.1273   -1.8292   21.7298 C.ar    1  UNL1        0.0256
      5 C           4.7163   -3.0725   22.3275 C.ar    1  UNL1        0.0389
      6 C           5.3713   -3.0188   23.6758 C.ar    1  UNL1        0.1392
      7 C           5.4374   -1.7219   24.4264 C.ar    1  UNL1        0.0384
      8 C           4.8484   -0.4786   23.8288 C.ar    1  UNL1        0.0203
      9 C           4.1934   -0.5322   22.4804 C.ar    1  UNL1        0.0606
     10 C           3.3716    1.9675   22.0105 C.3     1  UNL1        0.1324
     11 C          -0.2372    3.3150   24.3366 C.ar    1  UNL1        0.0194
     12 C           0.2422    1.8983   24.4501 C.ar    1  UNL1        0.0013
     13 C           1.4451    1.4491   23.6748 C.ar    1  UNL1       -0.0023
     14 C           2.1687    2.4166   22.7858 C.ar    1  UNL1        0.0004
     15 C           1.6893    3.8335   22.6723 C.ar    1  UNL1       -0.0023
     16 C           0.4864    4.2827   23.4476 C.ar    1  UNL1        0.0013
     17 C          -3.8460    4.6627   26.6625 C.ar    1  UNL1        0.2440
     18 C          -2.4805    5.1491   27.0484 C.ar    1  UNL1        0.0608
     19 C          -1.2776    4.6999   26.2731 C.ar    1  UNL1        0.0257
     20 C          -1.4401    3.7643   25.1119 C.ar    1  UNL1        0.1031
     21 N          -2.8057    3.2779   24.7260 N.ar    1  UNL1       -0.1451
     22 N          -4.0086    3.7272   25.5014 N.ar    1  UNL1       -0.1103
     23 C          -5.3535    6.5748   27.5688 C.3     1  UNL1        0.2543
     24 O          -5.0489    5.1119   27.4378 O.3     1  UNL1       -0.4552
     25 C           2.3369    0.5631   19.2525 C.3     1  UNL1        0.0495
     26 C           1.1090    1.3774   19.5340 C.3     1  UNL1        0.0376
     27 C           1.7305    2.5538   18.8413 C.3     1  UNL1        0.0059
     28 C           0.4876    0.2010   20.2266 C.3     1  UNL1        0.0059
     29 C          -0.1188    2.1918   19.8154 C.2     1  UNL1        0.0500
     30 O          -0.5526    3.2533   18.8484 O.co2   1  UNL1       -0.5492
     31 O          -0.9129    1.9447   21.0637 O.co2   1  UNL1       -0.5492
     32 S           3.1391   -2.5981   19.3682 S.3     1  UNL1       -0.1142
     33 C           4.1820   -3.6134   19.0053 C.3     1  UNL1        0.0434
     34 C           3.2708   -4.7132   19.4638 C.3     1  UNL1        0.0112
     35 C           5.0931   -2.5136   18.5468 C.3     1  UNL1        0.0112
     36 C           5.2248   -4.6286   18.6424 C.3     1  UNL1        0.0112
     37 O           5.9603   -4.2622   24.2736 O.3     1  UNL1       -0.4690
     38 C           6.7216   -4.1861   25.5638 C.3     1  UNL1        0.2508
     39 C           7.2634   -5.4368   26.1899 C.ar    1  UNL1        0.1026
     40 C           7.4516   -5.5108   27.6762 C.ar    1  UNL1        0.0185
     41 C           7.9933   -6.7616   28.3023 C.ar    1  UNL1        0.0029
     42 C           8.3469   -7.9385   27.4421 C.ar    1  UNL1        0.0207
     43 C           8.1587   -7.8645   25.9558 C.ar    1  UNL1        0.0986
     44 N           7.6169   -6.6138   25.3297 N.ar    1  UNL1       -0.2445
@<TRIPOS>UNITY_ATOM_ATTR
30 1
charge -1
@<TRIPOS>BOND
     1    23    24    1
     2    24    17    1
     3    17    18   ar
     4    18    19   ar
     5    19    20   ar
     6    20    11    1
     7    11    12   ar
     8    12    13   ar
     9    13    14   ar
    10    14    10    1
    11    10     1    1
    12     1     2   ar
    13     2    25    1
    14    25    26    1
    15    26    27    1
    16    26    28    1
    17    26    29    1
    18    29    30   ar
    19    29    31   ar
    20     2     3   ar
    21     3    32    1
    22    32    33    1
    23    33    34    1
    24    33    35    1
    25    33    36    1
    26     3     4   ar
    27     4     5   ar
    28     5     6   ar
    29     6    37    1
    30    37    38    1
    31    38    39    1
    32    39    40   ar
    33    40    41   ar
    34    41    42   ar
    35    42    43   ar
    36    43    44   ar
    37     6     7   ar
    38     7     8   ar
    39     8     9   ar
    40    14    15   ar
    41    15    16   ar
    42    20    21   ar
    43    21    22   ar
    44    22    17   ar
    45    16    11   ar
    46     9     1   ar
    47     9     4   ar
    48    44    39   ar
