@<TRIPOS>MOLECULE
*****
 40 45 0 0 0
SMALL
GASTEIGER

@<TRIPOS>ATOM
      1 N           1.8611    1.1309   27.4223 N.3     1  UNL1       -0.2672
      2 C           0.4455    0.6574   27.5707 C.3     1  UNL1        0.0898
      3 C          -0.6862    1.6381   27.4855 C.3     1  UNL1        0.0899
      4 N          -0.4024    3.0924   27.2518 N.3     1  UNL1       -0.2665
      5 C           1.0131    3.5659   27.1034 C.3     1  UNL1        0.0899
      6 C           2.1449    2.5852   27.1886 C.3     1  UNL1        0.0898
      7 C           2.9928    0.1502   27.5075 C.3     1  UNL1        0.1201
      8 C           3.7373   -0.2457   26.2669 C.3     1  UNL1        0.2226
      9 O           2.9885   -0.5025   24.9927 O.3     1  UNL1       -0.4739
     10 C           5.2567   -2.7137   18.8923 C.3     1  UNL1        0.0521
     11 C           4.7795   -1.9725   20.1059 C.ar    1  UNL1        0.0593
     12 C           4.4201   -2.7262   21.3519 C.ar    1  UNL1        0.0148
     13 C           3.9429   -1.9850   22.5655 C.ar    1  UNL1        0.0057
     14 C           3.8251   -0.4900   22.5331 C.ar    1  UNL1        0.0516
     15 C           3.3479    0.2513   23.7467 C.ar    1  UNL1        0.1400
     16 C           3.2300    1.7462   23.7142 C.ar    1  UNL1        0.0370
     17 C           3.5894    2.5001   22.4681 C.ar    1  UNL1        0.0047
     18 C           4.0666    1.7588   21.2545 C.ar    1  UNL1        0.0193
     19 C           4.1844    0.2637   21.2870 C.ar    1  UNL1        0.0838
     20 N           4.6617   -0.4775   20.0734 N.ar    1  UNL1       -0.2496
     21 C          -1.5341    4.0732   27.1666 C.3     1  UNL1        0.0993
     22 C          -2.5544    3.9480   26.0740 C.ar    1  UNL1       -0.0047
     23 C          -4.0148    3.9029   26.4132 C.ar    1  UNL1        0.0003
     24 C          -5.0349    3.7778   25.3207 C.ar    1  UNL1        0.0379
     25 C          -4.5946    3.6977   23.8890 C.ar    1  UNL1        0.1528
     26 C          -3.1342    3.7428   23.5498 C.ar    1  UNL1        0.0878
     27 C          -2.1141    3.8680   24.6423 C.ar    1  UNL1        0.0151
     28 N          -2.6939    3.6628   22.1181 N.am    1  UNL1       -0.2526
     29 C          -3.7140    3.5376   21.0256 C.2     1  UNL1        0.2740
     30 O          -3.2737    3.4576   19.5939 O.2     1  UNL1       -0.2705
     31 C          -5.1745    3.4925   21.3648 C.3     1  UNL1        0.2900
     32 O          -5.6148    3.5726   22.7965 O.3     1  UNL1       -0.4643
     33 C          -1.2335    3.7079   21.7790 C.3     1  UNL1        0.1031
     34 C          -0.3714    2.5030   22.0138 C.3     1  UNL1        0.0482
     35 C           0.2487    1.7863   20.8511 C.ar    1  UNL1       -0.0205
     36 C           0.6392    2.5505   19.6208 C.ar    1  UNL1       -0.0042
     37 C           1.2593    1.8339   18.4581 C.ar    1  UNL1       -0.0003
     38 C           1.4889    0.3531   18.5256 C.ar    1  UNL1       -0.0000
     39 C           1.0985   -0.4111   19.7559 C.ar    1  UNL1       -0.0003
     40 C           0.4784    0.3056   20.9187 C.ar    1  UNL1       -0.0042
@<TRIPOS>BOND
     1    10    11    1
     2    11    12   ar
     3    12    13   ar
     4    13    14   ar
     5    14    15   ar
     6    15     9    1
     7     9     8    1
     8     8     7    1
     9     7     1    1
    10     1     2    1
    11     2     3    1
    12     3     4    1
    13     4    21    1
    14    21    22    1
    15    22    23   ar
    16    23    24   ar
    17    24    25   ar
    18    25    26   ar
    19    26    27   ar
    20    26    28    1
    21    28    33    1
    22    33    34    1
    23    34    35    1
    24    35    36   ar
    25    36    37   ar
    26    37    38   ar
    27    38    39   ar
    28    39    40   ar
    29    28    29   am
    30    29    30    2
    31    29    31    1
    32    31    32    1
    33     4     5    1
    34     5     6    1
    35    15    16   ar
    36    16    17   ar
    37    17    18   ar
    38    18    19   ar
    39    19    20   ar
    40    20    11   ar
    41    19    14   ar
    42     6     1    1
    43    27    22   ar
    44    40    35   ar
    45    32    25    1
@<TRIPOS>MOLECULE
*****
 40 45 0 0 0
SMALL
GASTEIGER

@<TRIPOS>ATOM
      1 N          -1.0547    3.3702   22.6311 N.3     1  UNL1       -0.2672
      2 C           0.1052    2.4202   22.5807 C.3     1  UNL1        0.0898
      3 C           0.6423    1.9619   21.2573 C.3     1  UNL1        0.0899
      4 N           0.0196    2.4536   19.9843 N.3     1  UNL1       -0.2665
      5 C          -1.1401    3.4035   20.0347 C.3     1  UNL1        0.0899
      6 C          -1.6773    3.8618   21.3581 C.3     1  UNL1        0.0898
      7 C          -1.5918    3.8285   23.9545 C.3     1  UNL1        0.1201
      8 C          -1.5070    2.9277   25.1510 C.3     1  UNL1        0.2226
      9 O          -0.1955    2.7346   25.8530 O.3     1  UNL1       -0.4739
     10 C           4.9516   -1.5232   27.4743 C.3     1  UNL1        0.0521
     11 C           3.6955   -0.7139   27.3420 C.ar    1  UNL1        0.0593
     12 C           3.5726    0.3069   26.2498 C.ar    1  UNL1        0.0148
     13 C           2.3165    1.1161   26.1175 C.ar    1  UNL1        0.0057
     14 C           1.1835    0.9046   27.0774 C.ar    1  UNL1        0.0516
     15 C          -0.0725    1.7139   26.9451 C.ar    1  UNL1        0.1400
     16 C          -1.2056    1.5024   27.9050 C.ar    1  UNL1        0.0370
     17 C          -1.0826    0.4816   28.9973 C.ar    1  UNL1        0.0047
     18 C           0.1734   -0.3277   29.1295 C.ar    1  UNL1        0.0193
     19 C           1.3065   -0.1161   28.1696 C.ar    1  UNL1        0.0838
     20 N           2.5625   -0.9254   28.3019 N.ar    1  UNL1       -0.2496
     21 C           0.5568    1.9953   18.6608 C.3     1  UNL1        0.0993
     22 C           2.0383    1.9162   18.4395 C.ar    1  UNL1       -0.0047
     23 C           2.8540    3.1729   18.3676 C.ar    1  UNL1        0.0003
     24 C           4.3354    3.0938   18.1462 C.ar    1  UNL1        0.0379
     25 C           5.0011    1.7579   17.9967 C.ar    1  UNL1        0.1528
     26 C           4.1854    0.5012   18.0686 C.ar    1  UNL1        0.0878
     27 C           2.7040    0.5803   18.2900 C.ar    1  UNL1        0.0151
     28 N           4.8511   -0.8346   17.9191 N.am    1  UNL1       -0.2526
     29 C           6.3326   -0.9138   17.6978 C.2     1  UNL1        0.2740
     30 O           6.9983   -2.2496   17.5483 O.2     1  UNL1       -0.2705
     31 C           7.1484    0.3430   17.6259 C.3     1  UNL1        0.2900
     32 O           6.4826    1.6788   17.7753 O.3     1  UNL1       -0.4643
     33 C           4.0354   -2.0914   17.9910 C.3     1  UNL1        0.1031
     34 C           4.3414   -3.1255   19.0336 C.3     1  UNL1        0.0482
     35 C           4.2313   -2.7789   20.4889 C.ar    1  UNL1       -0.0205
     36 C           4.9858   -3.5783   21.5094 C.ar    1  UNL1       -0.0042
     37 C           4.8757   -3.2317   22.9646 C.ar    1  UNL1       -0.0003
     38 C           4.0111   -2.0856   23.3994 C.ar    1  UNL1       -0.0000
     39 C           3.2565   -1.2861   22.3788 C.ar    1  UNL1       -0.0003
     40 C           3.3667   -1.6328   20.9235 C.ar    1  UNL1       -0.0042
@<TRIPOS>BOND
     1    10    11    1
     2    11    12   ar
     3    12    13   ar
     4    13    14   ar
     5    14    15   ar
     6    15     9    1
     7     9     8    1
     8     8     7    1
     9     7     1    1
    10     1     2    1
    11     2     3    1
    12     3     4    1
    13     4    21    1
    14    21    22    1
    15    22    23   ar
    16    23    24   ar
    17    24    25   ar
    18    25    26   ar
    19    26    27   ar
    20    26    28    1
    21    28    33    1
    22    33    34    1
    23    34    35    1
    24    35    36   ar
    25    36    37   ar
    26    37    38   ar
    27    38    39   ar
    28    39    40   ar
    29    28    29   am
    30    29    30    2
    31    29    31    1
    32    31    32    1
    33     4     5    1
    34     5     6    1
    35    15    16   ar
    36    16    17   ar
    37    17    18   ar
    38    18    19   ar
    39    19    20   ar
    40    20    11   ar
    41    19    14   ar
    42     6     1    1
    43    27    22   ar
    44    40    35   ar
    45    32    25    1
@<TRIPOS>MOLECULE
*****
 40 45 0 0 0
SMALL
GASTEIGER

@<TRIPOS>ATOM
      1 N           3.8541    0.6307   25.8971 N.3     1  UNL1       -0.2672
      2 C           5.3266    0.8326   26.0999 C.3     1  UNL1        0.0898
      3 C           6.0793   -0.0449   27.0556 C.3     1  UNL1        0.0899
      4 N           5.3595   -1.1244   27.8085 N.3     1  UNL1       -0.2665
      5 C           3.8871   -1.3263   27.6056 C.3     1  UNL1        0.0899
      6 C           3.1344   -0.4488   26.6499 C.3     1  UNL1        0.0898
      7 C           3.1014    1.5082   24.9414 C.3     1  UNL1        0.1201
      8 C           2.2202    0.8940   23.8943 C.3     1  UNL1        0.2226
      9 O           2.6613   -0.3472   23.1766 O.3     1  UNL1       -0.4739
     10 C           8.5038    0.3231   19.6176 C.3     1  UNL1        0.0521
     11 C           7.1058    0.1649   20.1378 C.ar    1  UNL1        0.0593
     12 C           6.8553    0.1275   21.6162 C.ar    1  UNL1        0.0148
     13 C           5.4573   -0.0307   22.1363 C.ar    1  UNL1        0.0057
     14 C           4.3097   -0.1515   21.1780 C.ar    1  UNL1        0.0516
     15 C           2.9117   -0.3097   21.6982 C.ar    1  UNL1        0.1400
     16 C           1.7641   -0.4305   20.7399 C.ar    1  UNL1        0.0370
     17 C           2.0145   -0.3930   19.2613 C.ar    1  UNL1        0.0047
     18 C           3.4125   -0.2348   18.7412 C.ar    1  UNL1        0.0193
     19 C           4.5601   -0.1141   19.6996 C.ar    1  UNL1        0.0838
     20 N           5.9582    0.0441   19.1795 N.ar    1  UNL1       -0.2496
     21 C           6.1122   -2.0019   28.7642 C.3     1  UNL1        0.0993
     22 C           6.5447   -3.3744   28.3405 C.ar    1  UNL1       -0.0047
     23 C           6.6932   -4.4626   29.3620 C.ar    1  UNL1        0.0003
     24 C           7.1257   -5.8350   28.9383 C.ar    1  UNL1        0.0379
     25 C           7.4097   -6.1191   27.4931 C.ar    1  UNL1        0.1528
     26 C           7.2612   -5.0308   26.4716 C.ar    1  UNL1        0.0878
     27 C           6.8287   -3.6584   26.8953 C.ar    1  UNL1        0.0151
     28 N           7.5451   -5.3149   25.0264 N.am    1  UNL1       -0.2526
     29 C           7.9776   -6.6872   24.6027 C.2     1  UNL1        0.2740
     30 O           8.2616   -6.9713   23.1575 O.2     1  UNL1       -0.2705
     31 C           8.1261   -7.7756   25.6242 C.3     1  UNL1        0.2900
     32 O           7.8422   -7.4915   27.0694 O.3     1  UNL1       -0.4643
     33 C           7.3966   -4.2266   24.0048 C.3     1  UNL1        0.1031
     34 C           6.0314   -3.8209   23.5342 C.3     1  UNL1        0.0482
     35 C           5.7370   -3.7422   22.0654 C.ar    1  UNL1       -0.0205
     36 C           6.8539   -3.5287   21.0872 C.ar    1  UNL1       -0.0042
     37 C           6.5596   -3.4499   19.6184 C.ar    1  UNL1       -0.0003
     38 C           5.1485   -3.5846   19.1279 C.ar    1  UNL1       -0.0000
     39 C           4.0316   -3.7981   20.1062 C.ar    1  UNL1       -0.0003
     40 C           4.3259   -3.8769   21.5750 C.ar    1  UNL1       -0.0042
@<TRIPOS>BOND
     1    10    11    1
     2    11    12   ar
     3    12    13   ar
     4    13    14   ar
     5    14    15   ar
     6    15     9    1
     7     9     8    1
     8     8     7    1
     9     7     1    1
    10     1     2    1
    11     2     3    1
    12     3     4    1
    13     4    21    1
    14    21    22    1
    15    22    23   ar
    16    23    24   ar
    17    24    25   ar
    18    25    26   ar
    19    26    27   ar
    20    26    28    1
    21    28    33    1
    22    33    34    1
    23    34    35    1
    24    35    36   ar
    25    36    37   ar
    26    37    38   ar
    27    38    39   ar
    28    39    40   ar
    29    28    29   am
    30    29    30    2
    31    29    31    1
    32    31    32    1
    33     4     5    1
    34     5     6    1
    35    15    16   ar
    36    16    17   ar
    37    17    18   ar
    38    18    19   ar
    39    19    20   ar
    40    20    11   ar
    41    19    14   ar
    42     6     1    1
    43    27    22   ar
    44    40    35   ar
    45    32    25    1
@<TRIPOS>MOLECULE
*****
 40 45 0 0 0
SMALL
GASTEIGER

@<TRIPOS>ATOM
      1 N           7.1361   -2.1819   24.3297 N.3     1  UNL1       -0.2672
      2 C           7.3644   -0.7177   24.5620 C.3     1  UNL1        0.0898
      3 C           6.9365   -0.0877   25.8544 C.3     1  UNL1        0.0899
      4 N           6.2804   -0.9220   26.9144 N.3     1  UNL1       -0.2665
      5 C           6.0522   -2.3862   26.6820 C.3     1  UNL1        0.0899
      6 C           6.4800   -3.0162   25.3897 C.3     1  UNL1        0.0898
      7 C           7.5639   -2.8119   23.0374 C.3     1  UNL1        0.1201
      8 C           6.9112   -4.0783   22.5681 C.3     1  UNL1        0.2226
      9 O           6.9224   -4.4323   21.1105 O.3     1  UNL1       -0.4739
     10 C           7.0834    0.8926   16.7666 C.3     1  UNL1        0.0521
     11 C           6.7801   -0.3002   17.6240 C.ar    1  UNL1        0.0593
     12 C           7.8324   -0.8538   18.5383 C.ar    1  UNL1        0.0148
     13 C           7.5291   -2.0466   19.3957 C.ar    1  UNL1        0.0057
     14 C           6.1733   -2.6859   19.3388 C.ar    1  UNL1        0.0516
     15 C           5.8700   -3.8787   20.1962 C.ar    1  UNL1        0.1400
     16 C           4.5143   -4.5180   20.1393 C.ar    1  UNL1        0.0370
     17 C           3.4618   -3.9644   19.2249 C.ar    1  UNL1        0.0047
     18 C           3.7651   -2.7716   18.3675 C.ar    1  UNL1        0.0193
     19 C           5.1210   -2.1323   18.4245 C.ar    1  UNL1        0.0838
     20 N           5.4243   -0.9395   17.5671 N.ar    1  UNL1       -0.2496
     21 C           5.8526   -0.2921   28.2067 C.3     1  UNL1        0.0993
     22 C           4.3941   -0.1748   28.5372 C.ar    1  UNL1       -0.0047
     23 C           3.8694   -0.7369   29.8251 C.ar    1  UNL1        0.0003
     24 C           2.4110   -0.6196   30.1556 C.ar    1  UNL1        0.0379
     25 C           1.4773    0.0597   29.1982 C.ar    1  UNL1        0.1528
     26 C           2.0020    0.6218   27.9103 C.ar    1  UNL1        0.0878
     27 C           3.4604    0.5045   27.5798 C.ar    1  UNL1        0.0151
     28 N           1.0683    1.3012   26.9528 N.am    1  UNL1       -0.2526
     29 C          -0.3901    1.4184   27.2833 C.2     1  UNL1        0.2740
     30 O          -1.3238    2.0978   26.3258 O.2     1  UNL1       -0.2705
     31 C          -0.9149    0.8564   28.5712 C.3     1  UNL1        0.2900
     32 O           0.0188    0.1770   29.5287 O.3     1  UNL1       -0.4643
     33 C           1.5930    1.8632   25.6649 C.3     1  UNL1        0.1031
     34 C           1.0894    1.3335   24.3550 C.3     1  UNL1        0.0482
     35 C           1.9499    0.4182   23.5354 C.ar    1  UNL1       -0.0205
     36 C           2.9677   -0.4553   24.2070 C.ar    1  UNL1       -0.0042
     37 C           3.8283   -1.3706   23.3874 C.ar    1  UNL1       -0.0003
     38 C           3.6710   -1.4124   21.8962 C.ar    1  UNL1       -0.0000
     39 C           2.6532   -0.5388   21.2247 C.ar    1  UNL1       -0.0003
     40 C           1.7927    0.3765   22.0443 C.ar    1  UNL1       -0.0042
@<TRIPOS>BOND
     1    10    11    1
     2    11    12   ar
     3    12    13   ar
     4    13    14   ar
     5    14    15   ar
     6    15     9    1
     7     9     8    1
     8     8     7    1
     9     7     1    1
    10     1     2    1
    11     2     3    1
    12     3     4    1
    13     4    21    1
    14    21    22    1
    15    22    23   ar
    16    23    24   ar
    17    24    25   ar
    18    25    26   ar
    19    26    27   ar
    20    26    28    1
    21    28    33    1
    22    33    34    1
    23    34    35    1
    24    35    36   ar
    25    36    37   ar
    26    37    38   ar
    27    38    39   ar
    28    39    40   ar
    29    28    29   am
    30    29    30    2
    31    29    31    1
    32    31    32    1
    33     4     5    1
    34     5     6    1
    35    15    16   ar
    36    16    17   ar
    37    17    18   ar
    38    18    19   ar
    39    19    20   ar
    40    20    11   ar
    41    19    14   ar
    42     6     1    1
    43    27    22   ar
    44    40    35   ar
    45    32    25    1
@<TRIPOS>MOLECULE
*****
 40 45 0 0 0
SMALL
GASTEIGER

@<TRIPOS>ATOM
      1 N           0.8038    4.2499   20.3886 N.3     1  UNL1       -0.2672
      2 C           1.1853    4.9512   21.6585 C.3     1  UNL1        0.0898
      3 C           0.5008    4.5974   22.9455 C.3     1  UNL1        0.0899
      4 N          -0.5652    3.5422   22.9626 N.3     1  UNL1       -0.2665
      5 C          -0.9467    2.8409   21.6927 C.3     1  UNL1        0.0899
      6 C          -0.2622    3.1947   20.4057 C.3     1  UNL1        0.0898
      7 C           1.4882    4.6037   19.1016 C.3     1  UNL1        0.1201
      8 C           2.3974    3.6119   18.4384 C.3     1  UNL1        0.2226
      9 O           2.9189    2.4378   19.2127 O.3     1  UNL1       -0.4739
     10 C           3.6649   -4.3954   19.2434 C.3     1  UNL1        0.0521
     11 C           3.7450   -2.9056   19.0881 C.ar    1  UNL1        0.0593
     12 C           2.6786   -2.0315   19.6786 C.ar    1  UNL1        0.0148
     13 C           2.7587   -0.5418   19.5233 C.ar    1  UNL1        0.0057
     14 C           3.9052    0.0740   18.7775 C.ar    1  UNL1        0.0516
     15 C           3.9853    1.5638   18.6222 C.ar    1  UNL1        0.1400
     16 C           5.1318    2.1795   17.8763 C.ar    1  UNL1        0.0370
     17 C           6.1983    1.3055   17.2857 C.ar    1  UNL1        0.0047
     18 C           6.1182   -0.1843   17.4410 C.ar    1  UNL1        0.0193
     19 C           4.9716   -0.8001   18.1869 C.ar    1  UNL1        0.0838
     20 N           4.8915   -2.2898   18.3422 N.ar    1  UNL1       -0.2496
     21 C          -1.2497    3.1884   24.2495 C.3     1  UNL1        0.0993
     22 C          -0.5108    2.4212   25.3057 C.ar    1  UNL1       -0.0047
     23 C          -1.0443    2.3696   26.7067 C.ar    1  UNL1        0.0003
     24 C          -0.3054    1.6023   27.7627 C.ar    1  UNL1        0.0379
     25 C           0.9670    0.8867   27.4179 C.ar    1  UNL1        0.1528
     26 C           1.5005    0.9383   26.0170 C.ar    1  UNL1        0.0878
     27 C           0.7616    1.7055   24.9609 C.ar    1  UNL1        0.0151
     28 N           2.7728    0.2226   25.6721 N.am    1  UNL1       -0.2526
     29 C           3.5117   -0.5446   26.7282 C.2     1  UNL1        0.2740
     30 O           4.7841   -1.2602   26.3833 O.2     1  UNL1       -0.2705
     31 C           2.9782   -0.5962   28.1292 C.3     1  UNL1        0.2900
     32 O           1.7058    0.1194   28.4741 O.3     1  UNL1       -0.4643
     33 C           3.3063    0.2742   24.2712 C.3     1  UNL1        0.1031
     34 C           3.1476   -0.9098   23.3641 C.3     1  UNL1        0.0482
     35 C           4.3567   -1.5537   22.7528 C.ar    1  UNL1       -0.0205
     36 C           4.5319   -3.0416   22.8262 C.ar    1  UNL1       -0.0042
     37 C           5.7409   -3.6855   22.2149 C.ar    1  UNL1       -0.0003
     38 C           6.7748   -2.8415   21.5302 C.ar    1  UNL1       -0.0000
     39 C           6.5996   -1.3535   21.4568 C.ar    1  UNL1       -0.0003
     40 C           5.3905   -0.7097   22.0681 C.ar    1  UNL1       -0.0042
@<TRIPOS>BOND
     1    10    11    1
     2    11    12   ar
     3    12    13   ar
     4    13    14   ar
     5    14    15   ar
     6    15     9    1
     7     9     8    1
     8     8     7    1
     9     7     1    1
    10     1     2    1
    11     2     3    1
    12     3     4    1
    13     4    21    1
    14    21    22    1
    15    22    23   ar
    16    23    24   ar
    17    24    25   ar
    18    25    26   ar
    19    26    27   ar
    20    26    28    1
    21    28    33    1
    22    33    34    1
    23    34    35    1
    24    35    36   ar
    25    36    37   ar
    26    37    38   ar
    27    38    39   ar
    28    39    40   ar
    29    28    29   am
    30    29    30    2
    31    29    31    1
    32    31    32    1
    33     4     5    1
    34     5     6    1
    35    15    16   ar
    36    16    17   ar
    37    17    18   ar
    38    18    19   ar
    39    19    20   ar
    40    20    11   ar
    41    19    14   ar
    42     6     1    1
    43    27    22   ar
    44    40    35   ar
    45    32    25    1
@<TRIPOS>MOLECULE
*****
 40 45 0 0 0
SMALL
GASTEIGER

@<TRIPOS>ATOM
      1 N           3.8129    1.4032   18.5219 N.3     1  UNL1       -0.2672
      2 C           3.6127    2.8744   18.7351 C.3     1  UNL1        0.0898
      3 C           2.2298    3.4547   18.7089 C.3     1  UNL1        0.0899
      4 N           1.0470    2.5638   18.4695 N.3     1  UNL1       -0.2665
      5 C           1.2472    1.0926   18.2563 C.3     1  UNL1        0.0899
      6 C           2.6301    0.5123   18.2825 C.3     1  UNL1        0.0898
      7 C           5.1958    0.8228   18.5481 C.3     1  UNL1        0.1201
      8 C           5.9009    0.5063   17.2625 C.3     1  UNL1        0.2226
      9 O           6.5505   -0.8324   17.0733 O.3     1  UNL1       -0.4739
     10 C           3.1846   -5.8039   20.4208 C.3     1  UNL1        0.0521
     11 C           4.1240   -4.7658   19.8824 C.ar    1  UNL1        0.0593
     12 C           3.7323   -3.9468   18.6884 C.ar    1  UNL1        0.0148
     13 C           4.6717   -2.9087   18.1500 C.ar    1  UNL1        0.0057
     14 C           6.0028   -2.6895   18.8057 C.ar    1  UNL1        0.0516
     15 C           6.9422   -1.6514   18.2673 C.ar    1  UNL1        0.1400
     16 C           8.2734   -1.4323   18.9230 C.ar    1  UNL1        0.0370
     17 C           8.6652   -2.2513   20.1171 C.ar    1  UNL1        0.0047
     18 C           7.7258   -3.2894   20.6555 C.ar    1  UNL1        0.0193
     19 C           6.3946   -3.5085   19.9997 C.ar    1  UNL1        0.0838
     20 N           5.4552   -4.5466   20.5381 N.ar    1  UNL1       -0.2496
     21 C          -0.3360    3.1441   18.4432 C.3     1  UNL1        0.0993
     22 C          -1.0897    3.3443   19.7246 C.ar    1  UNL1       -0.0047
     23 C          -2.4971    3.8621   19.6938 C.ar    1  UNL1        0.0003
     24 C          -3.2508    4.0623   20.9751 C.ar    1  UNL1        0.0379
     25 C          -2.5971    3.7446   22.2872 C.ar    1  UNL1        0.1528
     26 C          -1.1897    3.2267   22.3181 C.ar    1  UNL1        0.0878
     27 C          -0.4360    3.0266   21.0367 C.ar    1  UNL1        0.0151
     28 N          -0.5360    2.9090   23.6302 N.am    1  UNL1       -0.2526
     29 C          -1.2897    3.1092   24.9115 C.2     1  UNL1        0.2740
     30 O          -0.6360    2.7915   26.2237 O.2     1  UNL1       -0.2705
     31 C          -2.6972    3.6270   24.8808 C.3     1  UNL1        0.2900
     32 O          -3.3509    3.9447   23.5686 O.3     1  UNL1       -0.4643
     33 C           0.8714    2.3912   23.6610 C.3     1  UNL1        0.1031
     34 C           1.1594    1.0356   24.2352 C.3     1  UNL1        0.0482
     35 C           2.1189    0.1153   23.5405 C.ar    1  UNL1       -0.0205
     36 C           3.1652   -0.6129   24.3309 C.ar    1  UNL1       -0.0042
     37 C           4.1247   -1.5331   23.6363 C.ar    1  UNL1       -0.0003
     38 C           4.0378   -1.7252   22.1511 C.ar    1  UNL1       -0.0000
     39 C           2.9914   -0.9970   21.3607 C.ar    1  UNL1       -0.0003
     40 C           2.0320   -0.0767   22.0554 C.ar    1  UNL1       -0.0042
@<TRIPOS>BOND
     1    10    11    1
     2    11    12   ar
     3    12    13   ar
     4    13    14   ar
     5    14    15   ar
     6    15     9    1
     7     9     8    1
     8     8     7    1
     9     7     1    1
    10     1     2    1
    11     2     3    1
    12     3     4    1
    13     4    21    1
    14    21    22    1
    15    22    23   ar
    16    23    24   ar
    17    24    25   ar
    18    25    26   ar
    19    26    27   ar
    20    26    28    1
    21    28    33    1
    22    33    34    1
    23    34    35    1
    24    35    36   ar
    25    36    37   ar
    26    37    38   ar
    27    38    39   ar
    28    39    40   ar
    29    28    29   am
    30    29    30    2
    31    29    31    1
    32    31    32    1
    33     4     5    1
    34     5     6    1
    35    15    16   ar
    36    16    17   ar
    37    17    18   ar
    38    18    19   ar
    39    19    20   ar
    40    20    11   ar
    41    19    14   ar
    42     6     1    1
    43    27    22   ar
    44    40    35   ar
    45    32    25    1
@<TRIPOS>MOLECULE
*****
 40 45 0 0 0
SMALL
GASTEIGER

@<TRIPOS>ATOM
      1 N           7.6331   -4.7110   25.6833 N.3     1  UNL1       -0.2672
      2 C           6.7013   -5.3006   26.7003 C.3     1  UNL1        0.0898
      3 C           6.5330   -4.6389   28.0359 C.3     1  UNL1        0.0899
      4 N           7.2964   -3.3876   28.3544 N.3     1  UNL1       -0.2665
      5 C           8.2282   -2.7981   27.3375 C.3     1  UNL1        0.0899
      6 C           8.3965   -3.4598   26.0019 C.3     1  UNL1        0.0898
      7 C           7.8014   -5.3727   24.3477 C.3     1  UNL1        0.1201
      8 C           7.8093   -4.5454   23.0964 C.3     1  UNL1        0.2226
      9 O           6.6621   -4.6305   22.1338 O.3     1  UNL1       -0.4739
     10 C           3.9354   -1.0028   16.9710 C.3     1  UNL1        0.0521
     11 C           4.3525   -1.6439   18.2613 C.ar    1  UNL1        0.0593
     12 C           5.4107   -2.7070   18.2629 C.ar    1  UNL1        0.0148
     13 C           5.8278   -3.3482   19.5532 C.ar    1  UNL1        0.0057
     14 C           5.1868   -2.9262   20.8420 C.ar    1  UNL1        0.0516
     15 C           5.6039   -3.5673   22.1323 C.ar    1  UNL1        0.1400
     16 C           4.9629   -3.1454   23.4211 C.ar    1  UNL1        0.0370
     17 C           3.9047   -2.0822   23.4196 C.ar    1  UNL1        0.0047
     18 C           3.4876   -1.4411   22.1292 C.ar    1  UNL1        0.0193
     19 C           4.1286   -1.8631   20.8404 C.ar    1  UNL1        0.0838
     20 N           3.7115   -1.2219   19.5501 N.ar    1  UNL1       -0.2496
     21 C           7.1281   -2.7259   29.6900 C.3     1  UNL1        0.0993
     22 C           5.8545   -2.0023   30.0133 C.ar    1  UNL1       -0.0047
     23 C           5.3520   -1.9631   31.4261 C.ar    1  UNL1        0.0003
     24 C           4.0785   -1.2395   31.7493 C.ar    1  UNL1        0.0379
     25 C           3.3075   -0.5551   30.6598 C.ar    1  UNL1        0.1528
     26 C           3.8100   -0.5942   29.2470 C.ar    1  UNL1        0.0878
     27 C           5.0835   -1.3178   28.9238 C.ar    1  UNL1        0.0151
     28 N           3.0390    0.0903   28.1575 N.am    1  UNL1       -0.2526
     29 C           1.7655    0.8139   28.4807 C.2     1  UNL1        0.2740
     30 O           0.9945    1.4984   27.3912 O.2     1  UNL1       -0.2705
     31 C           1.2629    0.8530   29.8936 C.3     1  UNL1        0.2900
     32 O           2.0339    0.1686   30.9831 O.3     1  UNL1       -0.4643
     33 C           3.5415    0.0512   26.7448 C.3     1  UNL1        0.1031
     34 C           4.5309    1.0747   26.2720 C.3     1  UNL1        0.0482
     35 C           5.3917    0.7899   25.0770 C.ar    1  UNL1       -0.0205
     36 C           5.1091    1.4695   23.7700 C.ar    1  UNL1       -0.0042
     37 C           5.9698    1.1847   22.5751 C.ar    1  UNL1       -0.0003
     38 C           7.1132    0.2202   22.6871 C.ar    1  UNL1       -0.0000
     39 C           7.3958   -0.4594   23.9941 C.ar    1  UNL1       -0.0003
     40 C           6.5350   -0.1745   25.1891 C.ar    1  UNL1       -0.0042
@<TRIPOS>BOND
     1    10    11    1
     2    11    12   ar
     3    12    13   ar
     4    13    14   ar
     5    14    15   ar
     6    15     9    1
     7     9     8    1
     8     8     7    1
     9     7     1    1
    10     1     2    1
    11     2     3    1
    12     3     4    1
    13     4    21    1
    14    21    22    1
    15    22    23   ar
    16    23    24   ar
    17    24    25   ar
    18    25    26   ar
    19    26    27   ar
    20    26    28    1
    21    28    33    1
    22    33    34    1
    23    34    35    1
    24    35    36   ar
    25    36    37   ar
    26    37    38   ar
    27    38    39   ar
    28    39    40   ar
    29    28    29   am
    30    29    30    2
    31    29    31    1
    32    31    32    1
    33     4     5    1
    34     5     6    1
    35    15    16   ar
    36    16    17   ar
    37    17    18   ar
    38    18    19   ar
    39    19    20   ar
    40    20    11   ar
    41    19    14   ar
    42     6     1    1
    43    27    22   ar
    44    40    35   ar
    45    32    25    1
@<TRIPOS>MOLECULE
*****
 40 45 0 0 0
SMALL
GASTEIGER

@<TRIPOS>ATOM
      1 N           1.3420    2.2638   19.3467 N.3     1  UNL1       -0.2672
      2 C           0.9026    3.4050   18.4780 C.3     1  UNL1        0.0898
      3 C          -0.4312    4.0518   18.7073 C.3     1  UNL1        0.0899
      4 N          -1.3257    3.5573   19.8053 N.3     1  UNL1       -0.2665
      5 C          -0.8863    2.4161   20.6739 C.3     1  UNL1        0.0899
      6 C           0.4476    1.7694   20.4447 C.3     1  UNL1        0.0898
      7 C           2.6759    1.6171   19.1175 C.3     1  UNL1        0.1201
      8 C           2.7490    0.2221   18.5707 C.3     1  UNL1        0.2226
      9 O           2.1554   -0.9183   19.3434 O.3     1  UNL1       -0.4739
     10 C           4.4045   -1.2888   25.8283 C.3     1  UNL1        0.0521
     11 C           4.0662   -1.4454   24.3753 C.ar    1  UNL1        0.0593
     12 C           3.1701   -0.4486   23.7022 C.ar    1  UNL1        0.0148
     13 C           2.8318   -0.6052   22.2493 C.ar    1  UNL1        0.0057
     14 C           3.3898   -1.7586   21.4694 C.ar    1  UNL1        0.0516
     15 C           3.0516   -1.9152   20.0165 C.ar    1  UNL1        0.1400
     16 C           3.6096   -3.0686   19.2366 C.ar    1  UNL1        0.0370
     17 C           4.5058   -4.0655   19.9097 C.ar    1  UNL1        0.0047
     18 C           4.8440   -3.9089   21.3626 C.ar    1  UNL1        0.0193
     19 C           4.2860   -2.7554   22.1425 C.ar    1  UNL1        0.0838
     20 N           4.6242   -2.5988   23.5955 N.ar    1  UNL1       -0.2496
     21 C          -2.6595    4.2040   20.0345 C.3     1  UNL1        0.0993
     22 C          -3.3391    4.0703   21.3651 C.ar    1  UNL1       -0.0047
     23 C          -4.6012    3.2688   21.4855 C.ar    1  UNL1        0.0003
     24 C          -5.2807    3.1352   22.8160 C.ar    1  UNL1        0.0379
     25 C          -4.6980    3.8030   24.0262 C.ar    1  UNL1        0.1528
     26 C          -3.4359    4.6044   23.9059 C.ar    1  UNL1        0.0878
     27 C          -2.7564    4.7381   22.5753 C.ar    1  UNL1        0.0151
     28 N          -2.8532    5.2722   25.1160 N.am    1  UNL1       -0.2526
     29 C          -3.5327    5.1385   26.4466 C.2     1  UNL1        0.2740
     30 O          -2.9500    5.8063   27.6568 O.2     1  UNL1       -0.2705
     31 C          -4.7949    4.3370   26.5670 C.3     1  UNL1        0.2900
     32 O          -5.3776    3.6692   25.3568 O.3     1  UNL1       -0.4643
     33 C          -1.5910    6.0737   24.9957 C.3     1  UNL1        0.1031
     34 C          -0.2731    5.4566   25.3596 C.3     1  UNL1        0.0482
     35 C          -0.1284    3.9640   25.3958 C.ar    1  UNL1       -0.0205
     36 C           0.2365    3.2153   24.1483 C.ar    1  UNL1       -0.0042
     37 C           0.3812    1.7228   24.1845 C.ar    1  UNL1       -0.0003
     38 C           0.1611    0.9789   25.4684 C.ar    1  UNL1       -0.0000
     39 C          -0.2039    1.7275   26.7159 C.ar    1  UNL1       -0.0003
     40 C          -0.3486    3.2201   26.6796 C.ar    1  UNL1       -0.0042
@<TRIPOS>BOND
     1    10    11    1
     2    11    12   ar
     3    12    13   ar
     4    13    14   ar
     5    14    15   ar
     6    15     9    1
     7     9     8    1
     8     8     7    1
     9     7     1    1
    10     1     2    1
    11     2     3    1
    12     3     4    1
    13     4    21    1
    14    21    22    1
    15    22    23   ar
    16    23    24   ar
    17    24    25   ar
    18    25    26   ar
    19    26    27   ar
    20    26    28    1
    21    28    33    1
    22    33    34    1
    23    34    35    1
    24    35    36   ar
    25    36    37   ar
    26    37    38   ar
    27    38    39   ar
    28    39    40   ar
    29    28    29   am
    30    29    30    2
    31    29    31    1
    32    31    32    1
    33     4     5    1
    34     5     6    1
    35    15    16   ar
    36    16    17   ar
    37    17    18   ar
    38    18    19   ar
    39    19    20   ar
    40    20    11   ar
    41    19    14   ar
    42     6     1    1
    43    27    22   ar
    44    40    35   ar
    45    32    25    1
@<TRIPOS>MOLECULE
*****
 40 45 0 0 0
SMALL
GASTEIGER

@<TRIPOS>ATOM
      1 N           4.6076   -0.4709   24.4093 N.3     1  UNL1       -0.2672
      2 C           5.9490   -0.0692   24.9474 C.3     1  UNL1        0.0898
      3 C           6.1991   -0.0847   26.4263 C.3     1  UNL1        0.0899
      4 N           5.1078   -0.5019   27.3672 N.3     1  UNL1       -0.2665
      5 C           3.7665   -0.9035   26.8291 C.3     1  UNL1        0.0899
      6 C           3.5164   -0.8881   25.3502 C.3     1  UNL1        0.0898
      7 C           4.3575   -0.4555   22.9304 C.3     1  UNL1        0.1201
      8 C           3.0578   -0.9677   22.3842 C.3     1  UNL1        0.2226
      9 O           2.7996   -0.9336   20.9070 O.3     1  UNL1       -0.4739
     10 C           7.3363    1.3274   16.2640 C.3     1  UNL1        0.0521
     11 C           6.4276    0.5752   17.1906 C.ar    1  UNL1        0.0593
     12 C           5.5256    1.3230   18.1272 C.ar    1  UNL1        0.0148
     13 C           4.6169    0.5708   19.0538 C.ar    1  UNL1        0.0057
     14 C           4.6103   -0.9291   19.0438 C.ar    1  UNL1        0.0516
     15 C           3.7017   -1.6813   19.9704 C.ar    1  UNL1        0.1400
     16 C           3.6951   -3.1812   19.9605 C.ar    1  UNL1        0.0370
     17 C           4.5972   -3.9291   19.0240 C.ar    1  UNL1        0.0047
     18 C           5.5059   -3.1769   18.0974 C.ar    1  UNL1        0.0193
     19 C           5.5124   -1.6769   18.1073 C.ar    1  UNL1        0.0838
     20 N           6.4210   -0.9247   17.1807 N.ar    1  UNL1       -0.2496
     21 C           5.3579   -0.5173   28.8461 C.3     1  UNL1        0.0993
     22 C           6.0162   -1.7053   29.4831 C.ar    1  UNL1       -0.0047
     23 C           6.3516   -1.6826   30.9449 C.ar    1  UNL1        0.0003
     24 C           7.0098   -2.8705   31.5818 C.ar    1  UNL1        0.0379
     25 C           7.3325   -4.0810   30.7568 C.ar    1  UNL1        0.1528
     26 C           6.9971   -4.1036   29.2950 C.ar    1  UNL1        0.0878
     27 C           6.3389   -2.9157   28.6581 C.ar    1  UNL1        0.0151
     28 N           7.3199   -5.3141   28.4701 N.am    1  UNL1       -0.2526
     29 C           7.9781   -6.5020   29.1069 C.2     1  UNL1        0.2740
     30 O           8.3009   -7.7125   28.2820 O.2     1  UNL1       -0.2705
     31 C           8.3135   -6.4795   30.5688 C.3     1  UNL1        0.2900
     32 O           7.9908   -5.2690   31.3938 O.3     1  UNL1       -0.4643
     33 C           6.9845   -5.3367   27.0083 C.3     1  UNL1        0.1031
     34 C           8.0452   -5.0379   25.9907 C.3     1  UNL1        0.0482
     35 C           7.6576   -4.6705   24.5889 C.ar    1  UNL1       -0.0205
     36 C           6.3743   -3.9370   24.3335 C.ar    1  UNL1       -0.0042
     37 C           5.9866   -3.5696   22.9319 C.ar    1  UNL1       -0.0003
     38 C           6.8823   -3.9356   21.7855 C.ar    1  UNL1       -0.0000
     39 C           8.1655   -4.6690   22.0410 C.ar    1  UNL1       -0.0003
     40 C           8.5532   -5.0365   23.4427 C.ar    1  UNL1       -0.0042
@<TRIPOS>BOND
     1    10    11    1
     2    11    12   ar
     3    12    13   ar
     4    13    14   ar
     5    14    15   ar
     6    15     9    1
     7     9     8    1
     8     8     7    1
     9     7     1    1
    10     1     2    1
    11     2     3    1
    12     3     4    1
    13     4    21    1
    14    21    22    1
    15    22    23   ar
    16    23    24   ar
    17    24    25   ar
    18    25    26   ar
    19    26    27   ar
    20    26    28    1
    21    28    33    1
    22    33    34    1
    23    34    35    1
    24    35    36   ar
    25    36    37   ar
    26    37    38   ar
    27    38    39   ar
    28    39    40   ar
    29    28    29   am
    30    29    30    2
    31    29    31    1
    32    31    32    1
    33     4     5    1
    34     5     6    1
    35    15    16   ar
    36    16    17   ar
    37    17    18   ar
    38    18    19   ar
    39    19    20   ar
    40    20    11   ar
    41    19    14   ar
    42     6     1    1
    43    27    22   ar
    44    40    35   ar
    45    32    25    1
