@<TRIPOS>MOLECULE
*****
 36 39 0 0 0
SMALL
GASTEIGER

@<TRIPOS>ATOM
      1 C         -16.3830   -2.8558   19.3865 C.ar    1  UNL1        0.1318
      2 C         -17.8538   -2.7606   19.6650 C.ar    1  UNL1        0.0345
      3 C         -18.4358   -1.4836   20.1944 C.ar    1  UNL1        0.0090
      4 C         -17.5470   -0.3016   20.4454 C.ar    1  UNL1        0.0729
      5 C         -16.0761   -0.3968   20.1670 C.ar    1  UNL1        0.1048
      6 N         -15.4941   -1.6739   19.6375 N.ar    1  UNL1       -0.2290
      7 C         -16.0999   -8.0437   19.4624 C.3     1  UNL1        0.0234
      8 C         -15.6595   -6.7268   18.8950 C.3     1  UNL1        0.0984
      9 C         -16.2414   -5.4498   19.4244 C.3     1  UNL1        0.1120
     10 N         -15.8010   -4.1329   18.8570 N.pl3   1  UNL1       -0.2898
     11 C         -14.7786   -4.0932   17.7602 C.3     1  UNL1        0.1138
     12 C         -14.1967   -5.3703   17.2307 C.3     1  UNL1        0.1181
     13 N         -14.6371   -6.6871   17.7982 N.am    1  UNL1       -0.2442
     14 C         -14.0551   -7.9642   17.2687 C.2     1  UNL1        0.4052
     15 O         -14.4955   -9.2811   17.8361 O.2     1  UNL1       -0.2262
     16 O         -13.0327   -7.9245   16.1718 O.3     1  UNL1       -0.4295
     17 C         -11.5714   -7.9789   16.5062 C.3     1  UNL1        0.2367
     18 C         -10.8978   -6.7878   17.1206 C.ar    1  UNL1        0.0213
     19 C         -10.4096   -6.8504   18.5376 C.ar    1  UNL1       -0.0007
     20 C          -9.7360   -5.6593   19.1521 C.ar    1  UNL1       -0.0002
     21 C          -9.5505   -4.4056   18.3495 C.ar    1  UNL1       -0.0000
     22 C         -10.0388   -4.3431   16.9325 C.ar    1  UNL1       -0.0002
     23 C         -10.7124   -5.5342   16.3181 C.ar    1  UNL1       -0.0007
     24 C         -18.1290    0.9754   20.9749 C.2     1  UNL1        0.2510
     25 O         -19.3232    1.5893   20.3063 O.2     1  UNL1       -0.2698
     26 N         -17.5168    1.6387   22.1730 N.am    1  UNL1       -0.2794
     27 H         -16.7330    1.2358   22.6118 H       1  UNL1        0.1552
     28 C         -18.0988    2.9157   22.7024 C.ar    1  UNL1        0.0636
     29 C         -17.8367    4.2106   21.9921 C.ar    1  UNL1        0.0159
     30 C         -18.4188    5.4877   22.5216 C.ar    1  UNL1        0.0014
     31 C         -19.2629    5.4698   23.7614 C.ar    1  UNL1        0.0013
     32 C         -19.5250    4.1749   24.4717 C.ar    1  UNL1        0.0153
     33 C         -18.9430    2.8979   23.9423 C.ar    1  UNL1        0.0552
     34 N         -19.2051    1.6030   24.6526 N.pl3   1  UNL1       -0.3560
     35 H         -19.7592    1.5913   25.4663 H       1  UNL1        0.1424
     36 H         -18.8231    0.7648   24.3051 H       1  UNL1        0.1424
@<TRIPOS>BOND
     1     8     7    1
     2     8     9    1
     3     9    10    1
     4    10     1    1
     5     1     2   ar
     6     2     3   ar
     7     3     4   ar
     8     4    24    1
     9    24    25    2
    10    24    26   am
    11    26    28    1
    12    28    29   ar
    13    29    30   ar
    14    30    31   ar
    15    31    32   ar
    16    32    33   ar
    17    33    34    1
    18     4     5   ar
    19     5     6   ar
    20    10    11    1
    21    11    12    1
    22    12    13    1
    23    13    14   am
    24    14    15    2
    25    14    16    1
    26    16    17    1
    27    17    18    1
    28    18    19   ar
    29    19    20   ar
    30    20    21   ar
    31    21    22   ar
    32    22    23   ar
    33    13     8    1
    34    23    18   ar
    35     6     1   ar
    36    33    28   ar
    37    26    27    1
    38    34    35    1
    39    34    36    1
@<TRIPOS>MOLECULE
*****
 36 39 0 0 0
SMALL
GASTEIGER

@<TRIPOS>ATOM
      1 C          -0.5930    2.3552   21.0939 C.ar    1  UNL1        0.1318
      2 C          -0.4142    2.8545   22.4970 C.ar    1  UNL1        0.0345
      3 C          -1.5083    3.6382   23.1594 C.ar    1  UNL1        0.0090
      4 C          -2.7812    3.9227   22.4185 C.ar    1  UNL1        0.0729
      5 C          -2.9600    3.4235   21.0154 C.ar    1  UNL1        0.1048
      6 N          -1.8659    2.6397   20.3531 N.ar    1  UNL1       -0.2290
      7 C           3.8396    2.2191   18.3859 C.3     1  UNL1        0.0234
      8 C           2.7174    1.5034   19.0776 C.3     1  UNL1        0.0984
      9 C           1.6233    2.2871   19.7399 C.3     1  UNL1        0.1120
     10 N           0.5011    1.5714   20.4316 N.pl3   1  UNL1       -0.2898
     11 C           0.4731    0.0720   20.4610 C.3     1  UNL1        0.1138
     12 C           1.5672   -0.7117   19.7987 C.3     1  UNL1        0.1181
     13 N           2.6894    0.0040   19.1070 N.am    1  UNL1       -0.2442
     14 C           3.7835   -0.7798   18.4447 C.2     1  UNL1        0.4052
     15 O           4.9057   -0.0641   17.7530 O.2     1  UNL1       -0.2262
     16 O           3.7554   -2.2792   18.4741 O.3     1  UNL1       -0.4295
     17 C           5.0056   -3.0468   18.7870 C.3     1  UNL1        0.2367
     18 C           5.3813   -3.3190   20.2134 C.ar    1  UNL1        0.0213
     19 C           4.3441   -3.2258   21.2930 C.ar    1  UNL1       -0.0007
     20 C           4.7197   -3.4980   22.7195 C.ar    1  UNL1       -0.0002
     21 C           6.1326   -3.8636   23.0664 C.ar    1  UNL1       -0.0000
     22 C           7.1698   -3.9569   21.9867 C.ar    1  UNL1       -0.0002
     23 C           6.7941   -3.6846   20.5603 C.ar    1  UNL1       -0.0007
     24 C          -3.8753    4.7065   23.0809 C.2     1  UNL1        0.2510
     25 O          -4.0555    6.1608   22.7607 O.2     1  UNL1       -0.2698
     26 N          -4.7892    4.0360   24.0633 N.am    1  UNL1       -0.2794
     27 H          -4.6709    3.0814   24.2734 H       1  UNL1        0.1552
     28 C          -5.8832    4.8197   24.7257 C.ar    1  UNL1        0.0636
     29 C          -5.5929    5.6126   25.9654 C.ar    1  UNL1        0.0159
     30 C          -6.6871    6.3964   26.6278 C.ar    1  UNL1        0.0014
     31 C          -8.0714    6.3872   26.0503 C.ar    1  UNL1        0.0013
     32 C          -8.3617    5.5943   24.8105 C.ar    1  UNL1        0.0153
     33 C          -7.2676    4.8106   24.1482 C.ar    1  UNL1        0.0552
     34 N          -7.5579    4.0177   22.9084 N.pl3   1  UNL1       -0.3560
     35 H          -8.4665    4.0117   22.5294 H       1  UNL1        0.1424
     36 H          -6.8398    3.5033   22.4737 H       1  UNL1        0.1424
@<TRIPOS>BOND
     1     8     7    1
     2     8     9    1
     3     9    10    1
     4    10     1    1
     5     1     2   ar
     6     2     3   ar
     7     3     4   ar
     8     4    24    1
     9    24    25    2
    10    24    26   am
    11    26    28    1
    12    28    29   ar
    13    29    30   ar
    14    30    31   ar
    15    31    32   ar
    16    32    33   ar
    17    33    34    1
    18     4     5   ar
    19     5     6   ar
    20    10    11    1
    21    11    12    1
    22    12    13    1
    23    13    14   am
    24    14    15    2
    25    14    16    1
    26    16    17    1
    27    17    18    1
    28    18    19   ar
    29    19    20   ar
    30    20    21   ar
    31    21    22   ar
    32    22    23   ar
    33    13     8    1
    34    23    18   ar
    35     6     1   ar
    36    33    28   ar
    37    26    27    1
    38    34    35    1
    39    34    36    1
@<TRIPOS>MOLECULE
*****
 36 39 0 0 0
SMALL
GASTEIGER

@<TRIPOS>ATOM
      1 C           1.3081    2.1890   19.2947 C.ar    1  UNL1        0.1318
      2 C           0.4501    3.0300   18.3966 C.ar    1  UNL1        0.0345
      3 C          -0.8307    3.6142   18.9146 C.ar    1  UNL1        0.0090
      4 C          -1.2535    3.3573   20.3307 C.ar    1  UNL1        0.0729
      5 C          -0.3955    2.5163   21.2287 C.ar    1  UNL1        0.1048
      6 N           0.8853    1.9321   20.7107 N.ar    1  UNL1       -0.2290
      7 C           6.1112    2.8289   17.4183 C.3     1  UNL1        0.0234
      8 C           4.9904    1.9248   17.8384 C.3     1  UNL1        0.0984
      9 C           3.7097    2.5089   18.3565 C.3     1  UNL1        0.1120
     10 N           2.5889    1.6048   18.7766 N.pl3   1  UNL1       -0.2898
     11 C           2.7489    0.1166   18.6787 C.3     1  UNL1        0.1138
     12 C           4.0297   -0.4675   18.1607 C.3     1  UNL1        0.1181
     13 N           5.1505    0.4366   17.7405 N.am    1  UNL1       -0.2442
     14 C           6.4313   -0.1475   17.2225 C.2     1  UNL1        0.4052
     15 O           7.5520    0.7566   16.8024 O.2     1  UNL1       -0.2262
     16 O           6.5913   -1.6357   17.1246 O.3     1  UNL1       -0.4295
     17 C           7.0877   -2.4160   18.3056 C.3     1  UNL1        0.2367
     18 C           6.1101   -3.0475   19.2519 C.ar    1  UNL1        0.0213
     19 C           6.2427   -2.8209   20.7288 C.ar    1  UNL1       -0.0007
     20 C           5.2651   -3.4524   21.6752 C.ar    1  UNL1       -0.0002
     21 C           4.1549   -4.3104   21.1446 C.ar    1  UNL1       -0.0000
     22 C           4.0224   -4.5369   19.6677 C.ar    1  UNL1       -0.0002
     23 C           5.0000   -3.9054   18.7214 C.ar    1  UNL1       -0.0007
     24 C          -2.5343    3.9415   20.8487 C.2     1  UNL1        0.2510
     25 O          -2.7610    5.4230   20.7889 O.2     1  UNL1       -0.2698
     26 N          -3.5883    3.0441   21.4264 N.am    1  UNL1       -0.2794
     27 H          -3.4395    2.0717   21.4656 H       1  UNL1        0.1552
     28 C          -4.8691    3.6283   21.9444 C.ar    1  UNL1        0.0636
     29 C          -5.1541    3.6235   23.4170 C.ar    1  UNL1        0.0159
     30 C          -6.4349    4.2077   23.9350 C.ar    1  UNL1        0.0014
     31 C          -7.4307    4.7966   22.9803 C.ar    1  UNL1        0.0013
     32 C          -7.1457    4.8015   21.5076 C.ar    1  UNL1        0.0153
     33 C          -5.8649    4.2173   20.9897 C.ar    1  UNL1        0.0552
     34 N          -5.5799    4.2221   19.5170 N.pl3   1  UNL1       -0.3560
     35 H          -6.2335    4.6087   18.8904 H       1  UNL1        0.1424
     36 H          -4.7393    3.8387   19.1770 H       1  UNL1        0.1424
@<TRIPOS>BOND
     1     8     7    1
     2     8     9    1
     3     9    10    1
     4    10     1    1
     5     1     2   ar
     6     2     3   ar
     7     3     4   ar
     8     4    24    1
     9    24    25    2
    10    24    26   am
    11    26    28    1
    12    28    29   ar
    13    29    30   ar
    14    30    31   ar
    15    31    32   ar
    16    32    33   ar
    17    33    34    1
    18     4     5   ar
    19     5     6   ar
    20    10    11    1
    21    11    12    1
    22    12    13    1
    23    13    14   am
    24    14    15    2
    25    14    16    1
    26    16    17    1
    27    17    18    1
    28    18    19   ar
    29    19    20   ar
    30    20    21   ar
    31    21    22   ar
    32    22    23   ar
    33    13     8    1
    34    23    18   ar
    35     6     1   ar
    36    33    28   ar
    37    26    27    1
    38    34    35    1
    39    34    36    1
@<TRIPOS>MOLECULE
*****
 36 39 0 0 0
SMALL
GASTEIGER

@<TRIPOS>ATOM
      1 C           1.6512    0.2739   21.1349 C.ar    1  UNL1        0.1318
      2 C           1.2266    0.9939   22.3804 C.ar    1  UNL1        0.0345
      3 C           0.0855    1.9663   22.3326 C.ar    1  UNL1        0.0090
      4 C          -0.6311    2.2187   21.0391 C.ar    1  UNL1        0.0729
      5 C          -0.2065    1.4987   19.7936 C.ar    1  UNL1        0.1048
      6 N           0.9347    0.5262   19.8416 N.ar    1  UNL1       -0.2290
      7 C           4.1524   -3.8299   19.1592 C.3     1  UNL1        0.0234
      8 C           4.0429   -2.7504   20.1950 C.3     1  UNL1        0.0984
      9 C           2.9018   -1.7780   20.1471 C.3     1  UNL1        0.1120
     10 N           2.7924   -0.6985   21.1828 N.pl3   1  UNL1       -0.2898
     11 C           3.8240   -0.5915   22.2665 C.3     1  UNL1        0.1138
     12 C           4.9650   -1.5639   22.3143 C.3     1  UNL1        0.1181
     13 N           5.0745   -2.6433   21.2786 N.am    1  UNL1       -0.2442
     14 C           6.2157   -3.6158   21.3265 C.2     1  UNL1        0.4052
     15 O           6.3251   -4.6952   20.2908 O.2     1  UNL1       -0.2262
     16 O           7.2473   -3.5087   22.4101 O.3     1  UNL1       -0.4295
     17 C           8.1104   -4.6894   22.7433 C.3     1  UNL1        0.2367
     18 C           7.8225   -5.5072   23.9674 C.ar    1  UNL1        0.0213
     19 C           7.0908   -4.8938   25.1241 C.ar    1  UNL1       -0.0007
     20 C           6.8029   -5.7116   26.3483 C.ar    1  UNL1       -0.0002
     21 C           7.2468   -7.1428   26.4155 C.ar    1  UNL1       -0.0000
     22 C           7.9786   -7.7563   25.2587 C.ar    1  UNL1       -0.0002
     23 C           8.2664   -6.9385   24.0346 C.ar    1  UNL1       -0.0007
     24 C          -1.7721    3.1911   20.9913 C.2     1  UNL1        0.2510
     25 O          -1.5195    4.6547   21.2008 O.2     1  UNL1       -0.2698
     26 N          -3.1659    2.6999   20.7339 N.am    1  UNL1       -0.2794
     27 H          -3.3316    1.7392   20.5964 H       1  UNL1        0.1552
     28 C          -4.3069    3.6722   20.6860 C.ar    1  UNL1        0.0636
     29 C          -4.4859    4.5603   19.4905 C.ar    1  UNL1        0.0159
     30 C          -5.6271    5.5327   19.4427 C.ar    1  UNL1        0.0014
     31 C          -6.5892    5.6170   20.5904 C.ar    1  UNL1        0.0013
     32 C          -6.4102    4.7290   21.7859 C.ar    1  UNL1        0.0153
     33 C          -5.2691    3.7566   21.8338 C.ar    1  UNL1        0.0552
     34 N          -5.0901    2.8685   23.0293 N.pl3   1  UNL1       -0.3560
     35 H          -5.7216    2.9239   23.7826 H       1  UNL1        0.1424
     36 H          -4.3412    2.2303   23.0607 H       1  UNL1        0.1424
@<TRIPOS>BOND
     1     8     7    1
     2     8     9    1
     3     9    10    1
     4    10     1    1
     5     1     2   ar
     6     2     3   ar
     7     3     4   ar
     8     4    24    1
     9    24    25    2
    10    24    26   am
    11    26    28    1
    12    28    29   ar
    13    29    30   ar
    14    30    31   ar
    15    31    32   ar
    16    32    33   ar
    17    33    34    1
    18     4     5   ar
    19     5     6   ar
    20    10    11    1
    21    11    12    1
    22    12    13    1
    23    13    14   am
    24    14    15    2
    25    14    16    1
    26    16    17    1
    27    17    18    1
    28    18    19   ar
    29    19    20   ar
    30    20    21   ar
    31    21    22   ar
    32    22    23   ar
    33    13     8    1
    34    23    18   ar
    35     6     1   ar
    36    33    28   ar
    37    26    27    1
    38    34    35    1
    39    34    36    1
@<TRIPOS>MOLECULE
*****
 36 39 0 0 0
SMALL
GASTEIGER

@<TRIPOS>ATOM
      1 C           1.2872    1.4426   29.6275 C.ar    1  UNL1        0.1318
      2 C          -0.0745    0.8535   29.4070 C.ar    1  UNL1        0.0345
      3 C          -0.8297    1.1608   28.1480 C.ar    1  UNL1        0.0090
      4 C          -0.2232    2.0571   27.1093 C.ar    1  UNL1        0.0729
      5 C           1.1386    2.6462   27.3298 C.ar    1  UNL1        0.1048
      6 N           1.8938    2.3390   28.5890 N.ar    1  UNL1       -0.2290
      7 C           4.3052   -1.7532   32.3985 C.3     1  UNL1        0.0234
      8 C           3.5514   -0.4626   32.2721 C.3     1  UNL1        0.0984
      9 C           2.7963   -0.1553   31.0130 C.3     1  UNL1        0.1120
     10 N           2.0424    1.1354   30.8867 N.pl3   1  UNL1       -0.2898
     11 C           2.0437    2.1187   32.0193 C.3     1  UNL1        0.1138
     12 C           2.7989    1.8114   33.2784 C.3     1  UNL1        0.1181
     13 N           3.5527    0.5208   33.4048 N.am    1  UNL1       -0.2442
     14 C           4.3079    0.2135   34.6639 C.2     1  UNL1        0.4052
     15 O           5.0618   -1.0772   34.7903 O.2     1  UNL1       -0.2262
     16 O           4.3093    1.1968   35.7966 O.3     1  UNL1       -0.4295
     17 C           4.0203    0.7324   37.1933 C.3     1  UNL1        0.2367
     18 C           2.8237    1.2613   37.9271 C.ar    1  UNL1        0.0213
     19 C           2.1110    0.3947   38.9226 C.ar    1  UNL1       -0.0007
     20 C           0.9143    0.9236   39.6564 C.ar    1  UNL1       -0.0002
     21 C           0.4305    2.3190   39.3946 C.ar    1  UNL1       -0.0000
     22 C           1.1432    3.1856   38.3991 C.ar    1  UNL1       -0.0002
     23 C           2.3398    2.6568   37.6653 C.ar    1  UNL1       -0.0007
     24 C          -0.9783    2.3644   25.8503 C.2     1  UNL1        0.2510
     25 O          -0.5503    1.7506   24.5503 O.2     1  UNL1       -0.2698
     26 N          -2.1616    3.2854   25.8912 N.am    1  UNL1       -0.2794
     27 H          -2.4425    3.6882   26.7445 H       1  UNL1        0.1552
     28 C          -2.9168    3.5926   24.6322 C.ar    1  UNL1        0.0636
     29 C          -4.3288    3.1137   24.4687 C.ar    1  UNL1        0.0159
     30 C          -5.0840    3.4210   23.2096 C.ar    1  UNL1        0.0014
     31 C          -4.4271    4.2071   22.1140 C.ar    1  UNL1        0.0013
     32 C          -3.0151    4.6861   22.2774 C.ar    1  UNL1        0.0153
     33 C          -2.2599    4.3788   23.5365 C.ar    1  UNL1        0.0552
     34 N          -0.8478    4.8578   23.6999 N.pl3   1  UNL1       -0.3560
     35 H          -0.4167    5.3738   22.9808 H       1  UNL1        0.1424
     36 H          -0.3522    4.6561   24.5263 H       1  UNL1        0.1424
@<TRIPOS>BOND
     1     8     7    1
     2     8     9    1
     3     9    10    1
     4    10     1    1
     5     1     2   ar
     6     2     3   ar
     7     3     4   ar
     8     4    24    1
     9    24    25    2
    10    24    26   am
    11    26    28    1
    12    28    29   ar
    13    29    30   ar
    14    30    31   ar
    15    31    32   ar
    16    32    33   ar
    17    33    34    1
    18     4     5   ar
    19     5     6   ar
    20    10    11    1
    21    11    12    1
    22    12    13    1
    23    13    14   am
    24    14    15    2
    25    14    16    1
    26    16    17    1
    27    17    18    1
    28    18    19   ar
    29    19    20   ar
    30    20    21   ar
    31    21    22   ar
    32    22    23   ar
    33    13     8    1
    34    23    18   ar
    35     6     1   ar
    36    33    28   ar
    37    26    27    1
    38    34    35    1
    39    34    36    1
@<TRIPOS>MOLECULE
*****
 36 39 0 0 0
SMALL
GASTEIGER

@<TRIPOS>ATOM
      1 C           5.5160   -1.4610   31.8386 C.ar    1  UNL1        0.1318
      2 C           6.1119   -2.8034   32.1436 C.ar    1  UNL1        0.0345
      3 C           6.6936   -3.6343   31.0385 C.ar    1  UNL1        0.0090
      4 C           6.6794   -3.1228   29.6284 C.ar    1  UNL1        0.0729
      5 C           6.0836   -1.7805   29.3235 C.ar    1  UNL1        0.1048
      6 N           5.5019   -0.9496   30.4286 N.ar    1  UNL1       -0.2290
      7 C           5.5481    0.0890   36.7981 C.3     1  UNL1        0.0234
      8 C           4.9504    0.1449   35.4235 C.3     1  UNL1        0.0984
      9 C           5.5320   -0.6860   34.3184 C.3     1  UNL1        0.1120
     10 N           4.9343   -0.6301   32.9438 N.pl3   1  UNL1       -0.2898
     11 C           3.7549    0.2566   32.6742 C.3     1  UNL1        0.1138
     12 C           3.1732    1.0874   33.7794 C.3     1  UNL1        0.1181
     13 N           3.7710    1.0316   35.1540 N.am    1  UNL1       -0.2442
     14 C           3.1892    1.8625   36.2591 C.2     1  UNL1        0.4052
     15 O           3.7870    1.8066   37.6337 O.2     1  UNL1       -0.2262
     16 O           2.0098    2.7492   35.9896 O.3     1  UNL1       -0.4295
     17 C           2.2190    4.1293   35.4403 C.3     1  UNL1        0.2367
     18 C           1.1730    4.7551   34.5662 C.ar    1  UNL1        0.0213
     19 C           0.8623    4.1598   33.2249 C.ar    1  UNL1       -0.0007
     20 C          -0.1838    4.7857   32.3507 C.ar    1  UNL1       -0.0002
     21 C          -0.9191    6.0068   32.8179 C.ar    1  UNL1       -0.0000
     22 C          -0.6083    6.6021   34.1592 C.ar    1  UNL1       -0.0002
     23 C           0.4377    5.9763   35.0333 C.ar    1  UNL1       -0.0007
     24 C           7.2612   -3.9537   28.5234 C.2     1  UNL1        0.2510
     25 O           8.7269   -4.2723   28.5165 O.2     1  UNL1       -0.2698
     26 N           6.3771   -4.4661   27.4252 N.am    1  UNL1       -0.2794
     27 H           5.4151   -4.2570   27.4297 H       1  UNL1        0.1552
     28 C           6.9588   -5.2970   26.3202 C.ar    1  UNL1        0.0636
     29 C           7.0648   -4.7334   24.9341 C.ar    1  UNL1        0.0159
     30 C           7.6466   -5.5644   23.8290 C.ar    1  UNL1        0.0014
     31 C           8.1223   -6.9589   24.1100 C.ar    1  UNL1        0.0013
     32 C           8.0163   -7.5225   25.4961 C.ar    1  UNL1        0.0153
     33 C           7.4346   -6.6916   26.6011 C.ar    1  UNL1        0.0552
     34 N           7.3286   -7.2552   27.9872 N.pl3   1  UNL1       -0.3560
     35 H           7.6408   -8.1704   28.1716 H       1  UNL1        0.1424
     36 H           6.9468   -6.7098   28.7125 H       1  UNL1        0.1424
@<TRIPOS>BOND
     1     8     7    1
     2     8     9    1
     3     9    10    1
     4    10     1    1
     5     1     2   ar
     6     2     3   ar
     7     3     4   ar
     8     4    24    1
     9    24    25    2
    10    24    26   am
    11    26    28    1
    12    28    29   ar
    13    29    30   ar
    14    30    31   ar
    15    31    32   ar
    16    32    33   ar
    17    33    34    1
    18     4     5   ar
    19     5     6   ar
    20    10    11    1
    21    11    12    1
    22    12    13    1
    23    13    14   am
    24    14    15    2
    25    14    16    1
    26    16    17    1
    27    17    18    1
    28    18    19   ar
    29    19    20   ar
    30    20    21   ar
    31    21    22   ar
    32    22    23   ar
    33    13     8    1
    34    23    18   ar
    35     6     1   ar
    36    33    28   ar
    37    26    27    1
    38    34    35    1
    39    34    36    1
@<TRIPOS>MOLECULE
*****
 36 39 0 0 0
SMALL
GASTEIGER

@<TRIPOS>ATOM
      1 C           1.4061    0.9514   20.0370 C.ar    1  UNL1        0.1318
      2 C           0.9765    1.1024   21.4662 C.ar    1  UNL1        0.0345
      3 C          -0.2333    1.9227   21.8031 C.ar    1  UNL1        0.0090
      4 C          -1.0135    2.5921   20.7107 C.ar    1  UNL1        0.0729
      5 C          -0.5838    2.4412   19.2815 C.ar    1  UNL1        0.1048
      6 N           0.6260    1.6208   18.9447 N.ar    1  UNL1       -0.2290
      7 C           5.4914    0.0080   16.9677 C.3     1  UNL1        0.0234
      8 C           4.6586   -0.3406   18.1655 C.3     1  UNL1        0.0984
      9 C           3.4488    0.4797   18.5023 C.3     1  UNL1        0.1120
     10 N           2.6160    0.1311   19.7002 N.pl3   1  UNL1       -0.2898
     11 C           2.9930   -1.0379   20.5613 C.3     1  UNL1        0.1138
     12 C           4.2027   -1.8582   20.2244 C.3     1  UNL1        0.1181
     13 N           5.0355   -1.5095   19.0266 N.am    1  UNL1       -0.2442
     14 C           6.2454   -2.3299   18.6898 C.2     1  UNL1        0.4052
     15 O           7.0782   -1.9813   17.4919 O.2     1  UNL1       -0.2262
     16 O           6.6224   -3.4988   19.5508 O.3     1  UNL1       -0.4295
     17 C           7.8010   -3.4014   20.4736 C.3     1  UNL1        0.2367
     18 C           7.9036   -4.3158   21.6582 C.ar    1  UNL1        0.0213
     19 C           8.7914   -5.5233   21.5988 C.ar    1  UNL1       -0.0007
     20 C           8.8941   -6.4378   22.7835 C.ar    1  UNL1       -0.0002
     21 C           8.1089   -6.1446   24.0275 C.ar    1  UNL1       -0.0000
     22 C           7.2210   -4.9369   24.0868 C.ar    1  UNL1       -0.0002
     23 C           7.1184   -4.0226   22.9022 C.ar    1  UNL1       -0.0007
     24 C          -2.2232    3.4124   21.0475 C.2     1  UNL1        0.2510
     25 O          -2.0601    4.7891   21.6202 O.2     1  UNL1       -0.2698
     26 N          -3.5961    2.8560   20.8116 N.am    1  UNL1       -0.2794
     27 H          -3.7032    1.9524   20.4357 H       1  UNL1        0.1552
     28 C          -4.8059    3.6763   21.1484 C.ar    1  UNL1        0.0636
     29 C          -5.3763    4.6230   20.1343 C.ar    1  UNL1        0.0159
     30 C          -6.5861    5.4433   20.4712 C.ar    1  UNL1        0.0014
     31 C          -7.2255    5.3170   21.8222 C.ar    1  UNL1        0.0013
     32 C          -6.6551    4.3703   22.8363 C.ar    1  UNL1        0.0153
     33 C          -5.4453    3.5500   22.4995 C.ar    1  UNL1        0.0552
     34 N          -4.8749    2.6034   23.5136 N.pl3   1  UNL1       -0.3560
     35 H          -5.2946    2.5204   24.4003 H       1  UNL1        0.1424
     36 H          -4.0809    2.0650   23.2925 H       1  UNL1        0.1424
@<TRIPOS>BOND
     1     8     7    1
     2     8     9    1
     3     9    10    1
     4    10     1    1
     5     1     2   ar
     6     2     3   ar
     7     3     4   ar
     8     4    24    1
     9    24    25    2
    10    24    26   am
    11    26    28    1
    12    28    29   ar
    13    29    30   ar
    14    30    31   ar
    15    31    32   ar
    16    32    33   ar
    17    33    34    1
    18     4     5   ar
    19     5     6   ar
    20    10    11    1
    21    11    12    1
    22    12    13    1
    23    13    14   am
    24    14    15    2
    25    14    16    1
    26    16    17    1
    27    17    18    1
    28    18    19   ar
    29    19    20   ar
    30    20    21   ar
    31    21    22   ar
    32    22    23   ar
    33    13     8    1
    34    23    18   ar
    35     6     1   ar
    36    33    28   ar
    37    26    27    1
    38    34    35    1
    39    34    36    1
@<TRIPOS>MOLECULE
*****
 36 39 0 0 0
SMALL
GASTEIGER

@<TRIPOS>ATOM
      1 C           5.5228   -1.0036   29.9999 C.ar    1  UNL1        0.1318
      2 C           6.6123   -1.7573   29.2964 C.ar    1  UNL1        0.0345
      3 C           6.5626   -1.9320   27.8075 C.ar    1  UNL1        0.0090
      4 C           5.4233   -1.3530   27.0220 C.ar    1  UNL1        0.0729
      5 C           4.3338   -0.5993   27.7255 C.ar    1  UNL1        0.1048
      6 N           4.3835   -0.4246   29.2145 N.ar    1  UNL1       -0.2290
      7 C           8.2587   -0.7155   34.4081 C.3     1  UNL1        0.0234
      8 C           6.9405   -0.6849   33.6930 C.3     1  UNL1        0.0984
      9 C           6.8907   -0.8596   32.2041 C.3     1  UNL1        0.1120
     10 N           5.5725   -0.8289   31.4890 N.pl3   1  UNL1       -0.2898
     11 C           4.3041   -0.6236   32.2628 C.3     1  UNL1        0.1138
     12 C           4.3538   -0.4490   33.7517 C.3     1  UNL1        0.1181
     13 N           5.6721   -0.4796   34.4668 N.am    1  UNL1       -0.2442
     14 C           5.7218   -0.3049   35.9558 C.2     1  UNL1        0.4052
     15 O           7.0400   -0.3356   36.6709 O.2     1  UNL1       -0.2262
     16 O           4.4534   -0.0996   36.7297 O.3     1  UNL1       -0.4295
     17 C           4.3112    1.0875   37.6356 C.3     1  UNL1        0.2367
     18 C           2.9640    1.4573   38.1815 C.ar    1  UNL1        0.0213
     19 C           2.1900    0.4685   39.0019 C.ar    1  UNL1       -0.0007
     20 C           0.8426    0.8383   39.5478 C.ar    1  UNL1       -0.0002
     21 C           0.2693    2.1969   39.2733 C.ar    1  UNL1       -0.0000
     22 C           1.0434    3.1858   38.4528 C.ar    1  UNL1       -0.0002
     23 C           2.3907    2.8160   37.9069 C.ar    1  UNL1       -0.0007
     24 C           5.3736   -1.5277   25.5331 C.2     1  UNL1        0.2510
     25 O           6.5353   -1.0960   24.6881 O.2     1  UNL1       -0.2698
     26 N           4.1622   -2.1341   24.8891 N.am    1  UNL1       -0.2794
     27 H           3.3997   -2.4175   25.4437 H       1  UNL1        0.1552
     28 C           4.1125   -2.3088   23.4001 C.ar    1  UNL1        0.0636
     29 C           4.7548   -3.5056   22.7636 C.ar    1  UNL1        0.0159
     30 C           4.7050   -3.6802   21.2745 C.ar    1  UNL1        0.0014
     31 C           4.0131   -2.6582   20.4222 C.ar    1  UNL1        0.0013
     32 C           3.3708   -1.4614   21.0588 C.ar    1  UNL1        0.0153
     33 C           3.4205   -1.2867   22.5477 C.ar    1  UNL1        0.0552
     34 N           2.7783   -0.0899   23.1843 N.pl3   1  UNL1       -0.3560
     35 H           2.3241    0.5809   22.6249 H       1  UNL1        0.1424
     36 H           2.8109    0.0247   24.1616 H       1  UNL1        0.1424
@<TRIPOS>BOND
     1     8     7    1
     2     8     9    1
     3     9    10    1
     4    10     1    1
     5     1     2   ar
     6     2     3   ar
     7     3     4   ar
     8     4    24    1
     9    24    25    2
    10    24    26   am
    11    26    28    1
    12    28    29   ar
    13    29    30   ar
    14    30    31   ar
    15    31    32   ar
    16    32    33   ar
    17    33    34    1
    18     4     5   ar
    19     5     6   ar
    20    10    11    1
    21    11    12    1
    22    12    13    1
    23    13    14   am
    24    14    15    2
    25    14    16    1
    26    16    17    1
    27    17    18    1
    28    18    19   ar
    29    19    20   ar
    30    20    21   ar
    31    21    22   ar
    32    22    23   ar
    33    13     8    1
    34    23    18   ar
    35     6     1   ar
    36    33    28   ar
    37    26    27    1
    38    34    35    1
    39    34    36    1
@<TRIPOS>MOLECULE
*****
 36 39 0 0 0
SMALL
GASTEIGER

@<TRIPOS>ATOM
      1 C           5.8362   -1.1915   31.4012 C.ar    1  UNL1        0.1318
      2 C           6.2992   -0.6846   30.0675 C.ar    1  UNL1        0.0345
      3 C           6.8816   -1.6359   29.0647 C.ar    1  UNL1        0.0090
      4 C           7.0011   -3.0942   29.3955 C.ar    1  UNL1        0.0729
      5 C           6.5381   -3.6010   30.7292 C.ar    1  UNL1        0.1048
      6 N           5.9556   -2.6497   31.7321 N.ar    1  UNL1       -0.2290
      7 C           1.9078    1.8076   33.0054 C.3     1  UNL1        0.0234
      8 C           3.2896    1.2594   33.2062 C.3     1  UNL1        0.0984
      9 C           3.8720    0.3081   32.2034 C.3     1  UNL1        0.1120
     10 N           5.2538   -0.2401   32.4041 N.pl3   1  UNL1       -0.2898
     11 C           6.0530    0.1630   33.6077 C.3     1  UNL1        0.1138
     12 C           5.4706    1.1143   34.6105 C.3     1  UNL1        0.1181
     13 N           4.0888    1.6625   34.4097 N.am    1  UNL1       -0.2442
     14 C           3.5064    2.6139   35.4126 C.2     1  UNL1        0.4052
     15 O           2.1246    3.1621   35.2119 O.2     1  UNL1       -0.2262
     16 O           4.3056    3.0170   36.6162 O.3     1  UNL1       -0.4295
     17 C           3.6062    3.4123   37.8830 C.3     1  UNL1        0.2367
     18 C           2.5523    2.5194   38.4678 C.ar    1  UNL1        0.0213
     19 C           1.1863    3.0647   38.7621 C.ar    1  UNL1       -0.0007
     20 C           0.1323    2.1719   39.3470 C.ar    1  UNL1       -0.0002
     21 C           0.4444    0.7337   39.6375 C.ar    1  UNL1       -0.0000
     22 C           1.8105    0.1885   39.3431 C.ar    1  UNL1       -0.0002
     23 C           2.8644    1.0813   38.7583 C.ar    1  UNL1       -0.0007
     24 C           7.5835   -4.0454   28.3926 C.2     1  UNL1        0.2510
     25 O           9.0271   -4.4423   28.4857 O.2     1  UNL1       -0.2698
     26 N           6.7224   -4.5999   27.2967 N.am    1  UNL1       -0.2794
     27 H           5.7750   -4.3394   27.2356 H       1  UNL1        0.1552
     28 C           7.3049   -5.5512   26.2938 C.ar    1  UNL1        0.0636
     29 C           7.4625   -5.1290   24.8631 C.ar    1  UNL1        0.0159
     30 C           8.0450   -6.0804   23.8602 C.ar    1  UNL1        0.0014
     31 C           8.4698   -7.4538   24.2880 C.ar    1  UNL1        0.0013
     32 C           8.3121   -7.8760   25.7187 C.ar    1  UNL1        0.0153
     33 C           7.7297   -6.9247   26.7216 C.ar    1  UNL1        0.0552
     34 N           7.5721   -7.3469   28.1523 N.pl3   1  UNL1       -0.3560
     35 H           7.8509   -8.2484   28.4331 H       1  UNL1        0.1424
     36 H           7.1898   -6.7225   28.8105 H       1  UNL1        0.1424
@<TRIPOS>BOND
     1     8     7    1
     2     8     9    1
     3     9    10    1
     4    10     1    1
     5     1     2   ar
     6     2     3   ar
     7     3     4   ar
     8     4    24    1
     9    24    25    2
    10    24    26   am
    11    26    28    1
    12    28    29   ar
    13    29    30   ar
    14    30    31   ar
    15    31    32   ar
    16    32    33   ar
    17    33    34    1
    18     4     5   ar
    19     5     6   ar
    20    10    11    1
    21    11    12    1
    22    12    13    1
    23    13    14   am
    24    14    15    2
    25    14    16    1
    26    16    17    1
    27    17    18    1
    28    18    19   ar
    29    19    20   ar
    30    20    21   ar
    31    21    22   ar
    32    22    23   ar
    33    13     8    1
    34    23    18   ar
    35     6     1   ar
    36    33    28   ar
    37    26    27    1
    38    34    35    1
    39    34    36    1
