@<TRIPOS>MOLECULE
*****
 26 27 0 0 0
SMALL
GASTEIGER

@<TRIPOS>ATOM
      1 C         -12.1805  -18.4809   23.8214 C.3     1  UNL1        0.1684
      2 C         -11.8880  -17.0720   21.6582 C.2     1  UNL1        0.2372
      3 O         -11.6767  -15.8409   22.4886 O.2     1  UNL1       -0.2736
      4 N         -12.1399  -18.3920   22.3246 N.am    1  UNL1       -0.2925
      5 H         -12.2786  -19.2001   21.7796 H       1  UNL1        0.1504
      6 C         -11.8474  -16.9832   20.1613 C.3     1  UNL1        0.1283
      7 N         -12.5545  -15.8634   19.4570 N.3     1  UNL1       -0.3150
      8 H         -13.0066  -15.2609   20.1448 H       1  UNL1        0.1192
      9 H         -13.2586  -16.2485   18.8274 H       1  UNL1        0.1192
     10 C          -9.8802  -18.6668   19.9490 C.3     1  UNL1        0.0019
     11 C         -11.0997  -18.0141   19.3688 C.3     1  UNL1        0.0248
     12 C         -13.4989  -18.4871   24.5369 C.1     1  UNL1        0.0927
     13 N         -14.8173  -18.4934   25.2523 N.1     1  UNL1       -0.1942
     14 C         -10.9028  -18.5635   24.6028 C.3     1  UNL1        0.0616
     15 C          -9.5928  -18.7031   23.8856 C.ar    1  UNL1       -0.0194
     16 C          -9.1291  -20.0537   23.4267 C.ar    1  UNL1       -0.0042
     17 C          -7.8191  -20.1933   22.7095 C.ar    1  UNL1       -0.0003
     18 C          -6.9727  -18.9821   22.4512 C.ar    1  UNL1       -0.0000
     19 C          -7.4364  -17.6315   22.9102 C.ar    1  UNL1       -0.0003
     20 C          -8.7464  -17.4919   23.6273 C.ar    1  UNL1       -0.0042
     21 C          -5.6627  -19.1217   21.7340 C.ar    1  UNL1       -0.0000
     22 C          -4.3819  -19.1654   22.5135 C.ar    1  UNL1       -0.0000
     23 C          -3.0719  -19.3050   21.7963 C.ar    1  UNL1        0.0000
     24 C          -3.0426  -19.4008   20.2996 C.ar    1  UNL1        0.0000
     25 C          -4.3235  -19.3570   19.5202 C.ar    1  UNL1        0.0000
     26 C          -5.6335  -19.2175   20.2374 C.ar    1  UNL1       -0.0000
@<TRIPOS>BOND
     1    10    11    1
     2    11     6    1
     3     6     7    1
     4     6     2    1
     5     2     3    2
     6     2     4   am
     7     4     1    1
     8     1    12    1
     9    12    13    3
    10     1    14    1
    11    14    15    1
    12    15    16   ar
    13    16    17   ar
    14    17    18   ar
    15    18    21    1
    16    21    22   ar
    17    22    23   ar
    18    23    24   ar
    19    24    25   ar
    20    25    26   ar
    21    18    19   ar
    22    19    20   ar
    23    20    15   ar
    24    26    21   ar
    25     7     8    1
    26     7     9    1
    27     4     5    1
@<TRIPOS>MOLECULE
*****
 26 27 0 0 0
SMALL
GASTEIGER

@<TRIPOS>ATOM
      1 C         -10.4032  -18.4217   22.3734 C.3     1  UNL1        0.1684
      2 C          -9.0102  -16.4297   23.2907 C.2     1  UNL1        0.2372
      3 O          -8.6992  -16.0009   21.8874 O.2     1  UNL1       -0.2736
      4 N          -9.8622  -17.6400   23.5338 N.am    1  UNL1       -0.2925
      5 H         -10.0664  -17.9214   24.4548 H       1  UNL1        0.1504
      6 C          -8.4693  -15.6480   24.4511 C.3     1  UNL1        0.1283
      7 N          -7.7715  -14.3413   24.2151 N.3     1  UNL1       -0.3150
      8 H          -7.7555  -14.1402   23.2152 H       1  UNL1        0.1192
      9 H          -6.8153  -14.3983   24.5657 H       1  UNL1        0.1192
     10 C          -7.9510  -15.4756   26.9910 C.3     1  UNL1        0.0019
     11 C          -8.6261  -16.1730   25.8474 C.3     1  UNL1        0.0248
     12 C         -11.7235  -18.0479   21.7676 C.1     1  UNL1        0.0927
     13 N         -13.0438  -17.6740   21.1617 N.1     1  UNL1       -0.1942
     14 C          -9.6239  -19.5772   21.8189 C.3     1  UNL1        0.0616
     15 C          -8.1715  -19.4102   21.4835 C.ar    1  UNL1       -0.0194
     16 C          -7.1406  -19.4522   22.5723 C.ar    1  UNL1       -0.0042
     17 C          -5.6882  -19.2852   22.2368 C.ar    1  UNL1       -0.0003
     18 C          -5.2666  -19.0763   20.8126 C.ar    1  UNL1       -0.0000
     19 C          -6.2974  -19.0344   19.7238 C.ar    1  UNL1       -0.0003
     20 C          -7.7498  -19.2013   20.0592 C.ar    1  UNL1       -0.0042
     21 C          -3.8141  -18.9094   20.4772 C.ar    1  UNL1       -0.0000
     22 C          -3.4121  -18.3137   19.1606 C.ar    1  UNL1       -0.0000
     23 C          -1.9596  -18.1467   18.8251 C.ar    1  UNL1        0.0000
     24 C          -0.9092  -18.5755   19.8063 C.ar    1  UNL1        0.0000
     25 C          -1.3112  -19.1712   21.1229 C.ar    1  UNL1        0.0000
     26 C          -2.7637  -19.3381   21.4583 C.ar    1  UNL1       -0.0000
@<TRIPOS>BOND
     1    10    11    1
     2    11     6    1
     3     6     7    1
     4     6     2    1
     5     2     3    2
     6     2     4   am
     7     4     1    1
     8     1    12    1
     9    12    13    3
    10     1    14    1
    11    14    15    1
    12    15    16   ar
    13    16    17   ar
    14    17    18   ar
    15    18    21    1
    16    21    22   ar
    17    22    23   ar
    18    23    24   ar
    19    24    25   ar
    20    25    26   ar
    21    18    19   ar
    22    19    20   ar
    23    20    15   ar
    24    26    21   ar
    25     7     8    1
    26     7     9    1
    27     4     5    1
@<TRIPOS>MOLECULE
*****
 26 27 0 0 0
SMALL
GASTEIGER

@<TRIPOS>ATOM
      1 C          -4.5858  -19.0828   21.8085 C.3     1  UNL1        0.1684
      2 C          -4.4996  -17.2105   23.6078 C.2     1  UNL1        0.2372
      3 O          -3.7845  -18.1411   24.5419 O.2     1  UNL1       -0.2736
      4 N          -4.9003  -17.6813   22.2411 N.am    1  UNL1       -0.2925
      5 H          -5.3696  -17.0705   21.6280 H       1  UNL1        0.1504
      6 C          -4.8142  -15.8091   24.0404 C.3     1  UNL1        0.1283
      7 N          -4.9030  -14.7118   23.0216 N.3     1  UNL1       -0.3150
      8 H          -4.7232  -15.0943   22.0933 H       1  UNL1        0.1192
      9 H          -4.2099  -13.9940   23.2336 H       1  UNL1        0.1192
     10 C          -6.4352  -15.4590   26.0402 C.3     1  UNL1        0.0019
     11 C          -5.0398  -15.5050   25.4918 C.3     1  UNL1        0.0248
     12 C          -3.1597  -19.5057   21.6149 C.1     1  UNL1        0.0927
     13 N          -1.7337  -19.9287   21.4214 N.1     1  UNL1       -0.1942
     14 C          -5.6973  -20.0612   21.5694 C.3     1  UNL1        0.0616
     15 C          -7.0999  -19.7164   21.9740 C.ar    1  UNL1       -0.0194
     16 C          -7.7754  -20.4868   23.0695 C.ar    1  UNL1       -0.0042
     17 C          -9.1781  -20.1420   23.4741 C.ar    1  UNL1       -0.0003
     18 C          -9.9052  -19.0268   22.7832 C.ar    1  UNL1       -0.0000
     19 C          -9.2298  -18.2563   21.6877 C.ar    1  UNL1       -0.0003
     20 C          -7.8271  -18.6011   21.2831 C.ar    1  UNL1       -0.0042
     21 C         -11.3079  -18.6819   23.1877 C.ar    1  UNL1       -0.0000
     22 C         -11.7788  -18.9711   24.5822 C.ar    1  UNL1       -0.0000
     23 C         -13.1815  -18.6263   24.9868 C.ar    1  UNL1        0.0000
     24 C         -14.1132  -17.9923   23.9969 C.ar    1  UNL1        0.0000
     25 C         -13.6423  -17.7032   22.6024 C.ar    1  UNL1        0.0000
     26 C         -12.2396  -18.0480   22.1979 C.ar    1  UNL1       -0.0000
@<TRIPOS>BOND
     1    10    11    1
     2    11     6    1
     3     6     7    1
     4     6     2    1
     5     2     3    2
     6     2     4   am
     7     4     1    1
     8     1    12    1
     9    12    13    3
    10     1    14    1
    11    14    15    1
    12    15    16   ar
    13    16    17   ar
    14    17    18   ar
    15    18    21    1
    16    21    22   ar
    17    22    23   ar
    18    23    24   ar
    19    24    25   ar
    20    25    26   ar
    21    18    19   ar
    22    19    20   ar
    23    20    15   ar
    24    26    21   ar
    25     7     8    1
    26     7     9    1
    27     4     5    1
@<TRIPOS>MOLECULE
*****
 26 27 0 0 0
SMALL
GASTEIGER

@<TRIPOS>ATOM
      1 C         -11.2657  -18.1675   23.3401 C.3     1  UNL1        0.1684
      2 C          -9.4446  -17.0964   24.8522 C.2     1  UNL1        0.2372
      3 O          -9.3886  -18.3506   25.6732 O.2     1  UNL1       -0.2736
      4 N         -10.3831  -17.0049   23.6857 N.am    1  UNL1       -0.2925
      5 H         -10.4198  -16.1817   23.1469 H       1  UNL1        0.1504
      6 C          -8.5619  -15.9338   25.1978 C.3     1  UNL1        0.1283
      7 N          -8.3928  -14.8052   24.2243 N.3     1  UNL1       -0.3150
      8 H          -8.9453  -14.9923   23.3875 H       1  UNL1        0.1192
      9 H          -7.4087  -14.7201   23.9700 H       1  UNL1        0.1192
     10 C          -8.4778  -15.2132   27.6924 C.3     1  UNL1        0.0019
     11 C          -7.8484  -15.8999   26.5167 C.3     1  UNL1        0.0248
     12 C         -12.7108  -18.1576   23.7422 C.1     1  UNL1        0.0927
     13 N         -14.1559  -18.1477   24.1443 N.1     1  UNL1       -0.1942
     14 C         -10.7033  -19.3400   22.5925 C.3     1  UNL1        0.0616
     15 C          -9.2551  -19.3558   22.2021 C.ar    1  UNL1       -0.0194
     16 C          -8.7726  -18.4913   21.0752 C.ar    1  UNL1       -0.0042
     17 C          -7.3245  -18.5071   20.6847 C.ar    1  UNL1       -0.0003
     18 C          -6.3587  -19.3874   21.4211 C.ar    1  UNL1       -0.0000
     19 C          -6.8411  -20.2519   22.5480 C.ar    1  UNL1       -0.0003
     20 C          -8.2893  -20.2360   22.9385 C.ar    1  UNL1       -0.0042
     21 C          -4.9105  -19.4032   21.0306 C.ar    1  UNL1       -0.0000
     22 C          -3.8540  -19.6053   22.0760 C.ar    1  UNL1       -0.0000
     23 C          -2.4058  -19.6211   21.6855 C.ar    1  UNL1        0.0000
     24 C          -2.0141  -19.4348   20.2496 C.ar    1  UNL1        0.0000
     25 C          -3.0706  -19.2327   19.2042 C.ar    1  UNL1        0.0000
     26 C          -4.5188  -19.2169   19.5947 C.ar    1  UNL1       -0.0000
@<TRIPOS>BOND
     1    10    11    1
     2    11     6    1
     3     6     7    1
     4     6     2    1
     5     2     3    2
     6     2     4   am
     7     4     1    1
     8     1    12    1
     9    12    13    3
    10     1    14    1
    11    14    15    1
    12    15    16   ar
    13    16    17   ar
    14    17    18   ar
    15    18    21    1
    16    21    22   ar
    17    22    23   ar
    18    23    24   ar
    19    24    25   ar
    20    25    26   ar
    21    18    19   ar
    22    19    20   ar
    23    20    15   ar
    24    26    21   ar
    25     7     8    1
    26     7     9    1
    27     4     5    1
@<TRIPOS>MOLECULE
*****
 26 27 0 0 0
SMALL
GASTEIGER

@<TRIPOS>ATOM
      1 C          -3.9715  -18.3270   22.4638 C.3     1  UNL1        0.1684
      2 C          -1.8847  -18.6767   20.9561 C.2     1  UNL1        0.2372
      3 O          -1.8218  -20.1152   21.3768 O.2     1  UNL1       -0.2736
      4 N          -2.9595  -17.7827   21.4996 N.am    1  UNL1       -0.2925
      5 H          -3.0008  -16.8386   21.2234 H       1  UNL1        0.1504
      6 C          -0.8728  -18.1324   19.9918 C.3     1  UNL1        0.1283
      7 N           0.5489  -17.9363   20.4279 N.3     1  UNL1       -0.3150
      8 H           0.6483  -18.2221   21.4020 H       1  UNL1        0.1192
      9 H           0.8003  -16.9521   20.3350 H       1  UNL1        0.1192
     10 C          -2.6707  -17.2858   18.3183 C.3     1  UNL1        0.0019
     11 C          -1.2826  -17.7844   18.5915 C.3     1  UNL1        0.0248
     12 C          -3.9601  -17.8789   23.8953 C.1     1  UNL1        0.0927
     13 N          -3.9488  -17.4309   25.3268 N.1     1  UNL1       -0.1942
     14 C          -4.9947  -19.3192   21.9966 C.3     1  UNL1        0.0616
     15 C          -6.4487  -19.0892   22.2845 C.ar    1  UNL1       -0.0194
     16 C          -7.3712  -20.2578   22.4669 C.ar    1  UNL1       -0.0042
     17 C          -8.8253  -20.0277   22.7548 C.ar    1  UNL1       -0.0003
     18 C          -9.3568  -18.6290   22.8602 C.ar    1  UNL1       -0.0000
     19 C          -8.4343  -17.4604   22.6778 C.ar    1  UNL1       -0.0003
     20 C          -6.9802  -17.6905   22.3900 C.ar    1  UNL1       -0.0042
     21 C         -10.8108  -18.3990   23.1481 C.ar    1  UNL1       -0.0000
     22 C         -11.3940  -18.8357   24.4592 C.ar    1  UNL1       -0.0000
     23 C         -12.8481  -18.6056   24.7471 C.ar    1  UNL1        0.0000
     24 C         -13.7189  -17.9388   23.7238 C.ar    1  UNL1        0.0000
     25 C         -13.1356  -17.5021   22.4127 C.ar    1  UNL1        0.0000
     26 C         -11.6816  -17.7322   22.1249 C.ar    1  UNL1       -0.0000
@<TRIPOS>BOND
     1    10    11    1
     2    11     6    1
     3     6     7    1
     4     6     2    1
     5     2     3    2
     6     2     4   am
     7     4     1    1
     8     1    12    1
     9    12    13    3
    10     1    14    1
    11    14    15    1
    12    15    16   ar
    13    16    17   ar
    14    17    18   ar
    15    18    21    1
    16    21    22   ar
    17    22    23   ar
    18    23    24   ar
    19    24    25   ar
    20    25    26   ar
    21    18    19   ar
    22    19    20   ar
    23    20    15   ar
    24    26    21   ar
    25     7     8    1
    26     7     9    1
    27     4     5    1
@<TRIPOS>MOLECULE
*****
 26 27 0 0 0
SMALL
GASTEIGER

@<TRIPOS>ATOM
      1 C          -4.0505  -16.8226   23.8900 C.3     1  UNL1        0.1684
      2 C          -3.5175  -18.6697   22.1423 C.2     1  UNL1        0.2372
      3 O          -4.5103  -19.5804   22.8020 O.2     1  UNL1       -0.2736
      4 N          -3.2876  -17.2909   22.6863 N.am    1  UNL1       -0.2925
      5 H          -2.6361  -16.6932   22.2533 H       1  UNL1        0.1504
      6 C          -2.7546  -19.1380   20.9386 C.3     1  UNL1        0.1283
      7 N          -1.7584  -20.2518   21.0687 N.3     1  UNL1       -0.3150
      8 H          -1.7285  -20.5699   22.0374 H       1  UNL1        0.1192
      9 H          -0.8355  -19.9165   20.7924 H       1  UNL1        0.1192
     10 C          -1.8348  -17.9146   18.8394 C.3     1  UNL1        0.0019
     11 C          -2.9880  -18.4925   19.6050 C.3     1  UNL1        0.0248
     12 C          -3.7624  -17.4149   25.2377 C.1     1  UNL1        0.0927
     13 N          -3.4742  -18.0071   26.5853 N.1     1  UNL1       -0.1942
     14 C          -5.1015  -15.7622   23.7460 C.3     1  UNL1        0.0616
     15 C          -6.5526  -16.1418   23.7286 C.ar    1  UNL1       -0.0194
     16 C          -7.5201  -15.4490   24.6417 C.ar    1  UNL1       -0.0042
     17 C          -8.9712  -15.8286   24.6243 C.ar    1  UNL1       -0.0003
     18 C          -9.4547  -16.9011   23.6937 C.ar    1  UNL1       -0.0000
     19 C          -8.4872  -17.5939   22.7806 C.ar    1  UNL1       -0.0003
     20 C          -7.0361  -17.2143   22.7980 C.ar    1  UNL1       -0.0042
     21 C         -10.9058  -17.2807   23.6763 C.ar    1  UNL1       -0.0000
     22 C         -11.8632  -16.5439   22.7873 C.ar    1  UNL1       -0.0000
     23 C         -13.3143  -16.9235   22.7699 C.ar    1  UNL1        0.0000
     24 C         -13.8079  -18.0400   23.6415 C.ar    1  UNL1        0.0000
     25 C         -12.8505  -18.7769   24.5305 C.ar    1  UNL1        0.0000
     26 C         -11.3994  -18.3972   24.5479 C.ar    1  UNL1       -0.0000
@<TRIPOS>BOND
     1    10    11    1
     2    11     6    1
     3     6     7    1
     4     6     2    1
     5     2     3    2
     6     2     4   am
     7     4     1    1
     8     1    12    1
     9    12    13    3
    10     1    14    1
    11    14    15    1
    12    15    16   ar
    13    16    17   ar
    14    17    18   ar
    15    18    21    1
    16    21    22   ar
    17    22    23   ar
    18    23    24   ar
    19    24    25   ar
    20    25    26   ar
    21    18    19   ar
    22    19    20   ar
    23    20    15   ar
    24    26    21   ar
    25     7     8    1
    26     7     9    1
    27     4     5    1
@<TRIPOS>MOLECULE
*****
 26 27 0 0 0
SMALL
GASTEIGER

@<TRIPOS>ATOM
      1 C          -9.0869  -19.5479   22.5442 C.3     1  UNL1        0.1684
      2 C          -9.4454  -17.0242   22.0417 C.2     1  UNL1        0.2372
      3 O          -8.5641  -16.6680   23.2021 O.2     1  UNL1       -0.2736
      4 N          -9.7068  -18.4641   21.7128 N.am    1  UNL1       -0.2925
      5 H         -10.2852  -18.6979   20.9512 H       1  UNL1        0.1504
      6 C         -10.0653  -15.9404   21.2103 C.3     1  UNL1        0.1283
      7 N          -9.2858  -14.6981   20.8954 N.3     1  UNL1       -0.3150
      8 H          -8.3617  -14.7590   21.3229 H       1  UNL1        0.1192
      9 H          -9.7784  -13.8849   21.2647 H       1  UNL1        0.1192
     10 C         -11.7801  -15.7610   19.2669 C.3     1  UNL1        0.0019
     11 C         -11.4646  -16.0989   20.6938 C.3     1  UNL1        0.0248
     12 C          -9.5240  -19.7457   23.9654 C.1     1  UNL1        0.0927
     13 N          -9.9610  -19.9434   25.3866 N.1     1  UNL1       -0.1942
     14 C          -8.0299  -20.4339   21.9544 C.3     1  UNL1        0.0616
     15 C          -6.6737  -19.8759   21.6392 C.ar    1  UNL1       -0.0194
     16 C          -6.0773  -18.8145   22.5153 C.ar    1  UNL1       -0.0042
     17 C          -4.7210  -18.2566   22.2002 C.ar    1  UNL1       -0.0003
     18 C          -3.9612  -18.7600   21.0089 C.ar    1  UNL1       -0.0000
     19 C          -4.5577  -19.8215   20.1328 C.ar    1  UNL1       -0.0003
     20 C          -5.9139  -20.3794   20.4480 C.ar    1  UNL1       -0.0042
     21 C          -2.6050  -18.2021   20.6937 C.ar    1  UNL1       -0.0000
     22 C          -1.6736  -18.9584   19.7935 C.ar    1  UNL1       -0.0000
     23 C          -0.3173  -18.4004   19.4784 C.ar    1  UNL1        0.0000
     24 C           0.1074  -17.0862   20.0634 C.ar    1  UNL1        0.0000
     25 C          -0.8240  -16.3299   20.9636 C.ar    1  UNL1        0.0000
     26 C          -2.1802  -16.8878   21.2788 C.ar    1  UNL1       -0.0000
@<TRIPOS>BOND
     1    10    11    1
     2    11     6    1
     3     6     7    1
     4     6     2    1
     5     2     3    2
     6     2     4   am
     7     4     1    1
     8     1    12    1
     9    12    13    3
    10     1    14    1
    11    14    15    1
    12    15    16   ar
    13    16    17   ar
    14    17    18   ar
    15    18    21    1
    16    21    22   ar
    17    22    23   ar
    18    23    24   ar
    19    24    25   ar
    20    25    26   ar
    21    18    19   ar
    22    19    20   ar
    23    20    15   ar
    24    26    21   ar
    25     7     8    1
    26     7     9    1
    27     4     5    1
@<TRIPOS>MOLECULE
*****
 26 27 0 0 0
SMALL
GASTEIGER

@<TRIPOS>ATOM
      1 C         -14.3810   -8.0133   18.8676 C.3     1  UNL1        0.1684
      2 C         -12.0635   -7.6300   17.7574 C.2     1  UNL1        0.2372
      3 O         -12.7277   -7.4873   16.4201 O.2     1  UNL1       -0.2736
      4 N         -12.8901   -7.8930   18.9811 N.am    1  UNL1       -0.2925
      5 H         -12.4541   -7.9866   19.8588 H       1  UNL1        0.1504
      6 C         -10.5726   -7.5097   17.8709 C.3     1  UNL1        0.1283
      7 N          -9.7232   -8.7444   17.9343 N.3     1  UNL1       -0.3150
      8 H         -10.3199   -9.5703   17.8881 H       1  UNL1        0.1192
      9 H          -9.1992   -8.7520   18.8094 H       1  UNL1        0.1192
     10 C         -10.4277   -5.1254   18.8926 C.3     1  UNL1        0.0019
     11 C          -9.9312   -6.1547   17.9211 C.3     1  UNL1        0.0248
     12 C         -15.0012   -9.3277   18.4966 C.1     1  UNL1        0.0927
     13 N         -15.6214  -10.6421   18.1256 N.1     1  UNL1       -0.1942
     14 C         -15.2515   -6.8193   19.1250 C.3     1  UNL1        0.0616
     15 C         -14.7441   -5.4412   18.8194 C.ar    1  UNL1       -0.0194
     16 C         -14.0958   -4.6244   19.8976 C.ar    1  UNL1       -0.0042
     17 C         -13.5884   -3.2463   19.5919 C.ar    1  UNL1       -0.0003
     18 C         -13.7292   -2.6851   18.2080 C.ar    1  UNL1       -0.0000
     19 C         -14.3774   -3.5019   17.1298 C.ar    1  UNL1       -0.0003
     20 C         -14.8849   -4.8800   17.4355 C.ar    1  UNL1       -0.0042
     21 C         -13.2217   -1.3070   17.9024 C.ar    1  UNL1       -0.0000
     22 C         -14.1021   -0.1150   18.1344 C.ar    1  UNL1       -0.0000
     23 C         -13.5947    1.2631   17.8288 C.ar    1  UNL1        0.0000
     24 C         -12.2068    1.4491   17.2911 C.ar    1  UNL1        0.0000
     25 C         -11.3264    0.2571   17.0590 C.ar    1  UNL1        0.0000
     26 C         -11.8339   -1.1210   17.3647 C.ar    1  UNL1       -0.0000
@<TRIPOS>BOND
     1    10    11    1
     2    11     6    1
     3     6     7    1
     4     6     2    1
     5     2     3    2
     6     2     4   am
     7     4     1    1
     8     1    12    1
     9    12    13    3
    10     1    14    1
    11    14    15    1
    12    15    16   ar
    13    16    17   ar
    14    17    18   ar
    15    18    21    1
    16    21    22   ar
    17    22    23   ar
    18    23    24   ar
    19    24    25   ar
    20    25    26   ar
    21    18    19   ar
    22    19    20   ar
    23    20    15   ar
    24    26    21   ar
    25     7     8    1
    26     7     9    1
    27     4     5    1
@<TRIPOS>MOLECULE
*****
 26 27 0 0 0
SMALL
GASTEIGER

@<TRIPOS>ATOM
      1 C          -9.5447  -19.3214   22.7108 C.3     1  UNL1        0.1684
      2 C         -11.4184  -17.7547   21.8251 C.2     1  UNL1        0.2372
      3 O         -12.1911  -18.9485   21.3479 O.2     1  UNL1       -0.2736
      4 N         -10.0953  -17.9411   22.5066 N.am    1  UNL1       -0.2925
      5 H          -9.5882  -17.1575   22.8198 H       1  UNL1        0.1504
      6 C         -11.9691  -16.3744   21.6209 C.3     1  UNL1        0.1283
      7 N         -12.0366  -15.4158   22.7727 N.3     1  UNL1       -0.3150
      8 H         -11.6693  -15.8656   23.6113 H       1  UNL1        0.1192
      9 H         -13.0063  -15.1420   22.9307 H       1  UNL1        0.1192
     10 C         -11.4638  -15.6264   19.1847 C.3     1  UNL1        0.0019
     11 C         -12.4521  -15.9527   20.2649 C.3     1  UNL1        0.0248
     12 C          -9.7045  -20.0040   24.0369 C.1     1  UNL1        0.0927
     13 N          -9.8644  -20.6866   25.3630 N.1     1  UNL1       -0.1942
     14 C          -8.8342  -20.0191   21.5890 C.3     1  UNL1        0.0616
     15 C          -7.4099  -19.6715   21.2720 C.ar    1  UNL1       -0.0194
     16 C          -7.0295  -19.2638   19.8795 C.ar    1  UNL1       -0.0042
     17 C          -5.6052  -18.9162   19.5625 C.ar    1  UNL1       -0.0003
     18 C          -4.5613  -18.9762   20.6380 C.ar    1  UNL1       -0.0000
     19 C          -4.9417  -19.3839   22.0304 C.ar    1  UNL1       -0.0003
     20 C          -6.3660  -19.7315   22.3475 C.ar    1  UNL1       -0.0042
     21 C          -3.1370  -18.6286   20.3210 C.ar    1  UNL1       -0.0000
     22 C          -2.0842  -18.7365   21.3840 C.ar    1  UNL1       -0.0000
     23 C          -0.6599  -18.3889   21.0670 C.ar    1  UNL1        0.0000
     24 C          -0.2883  -17.9334   19.6870 C.ar    1  UNL1        0.0000
     25 C          -1.3411  -17.8255   18.6240 C.ar    1  UNL1        0.0000
     26 C          -2.7654  -18.1732   18.9410 C.ar    1  UNL1       -0.0000
@<TRIPOS>BOND
     1    10    11    1
     2    11     6    1
     3     6     7    1
     4     6     2    1
     5     2     3    2
     6     2     4   am
     7     4     1    1
     8     1    12    1
     9    12    13    3
    10     1    14    1
    11    14    15    1
    12    15    16   ar
    13    16    17   ar
    14    17    18   ar
    15    18    21    1
    16    21    22   ar
    17    22    23   ar
    18    23    24   ar
    19    24    25   ar
    20    25    26   ar
    21    18    19   ar
    22    19    20   ar
    23    20    15   ar
    24    26    21   ar
    25     7     8    1
    26     7     9    1
    27     4     5    1
