@<TRIPOS>MOLECULE
*****
 31 34 0 0 0
SMALL
GASTEIGER

@<TRIPOS>ATOM
      1 C           7.8901   -4.9803   22.9976 C.ar    1  UNL1        0.0033
      2 C           9.1639   -5.0061   22.2060 C.ar    1  UNL1        0.0024
      3 C           9.2732   -4.2172   20.9348 C.ar    1  UNL1        0.0296
      4 C           8.1085   -3.4026   20.4553 C.ar    1  UNL1        0.1402
      5 F           8.2177   -2.6138   19.1842 F       1  UNL1       -0.2042
      6 C           6.8346   -3.3769   21.2469 C.ar    1  UNL1        0.0304
      7 C           6.7254   -4.1657   22.5180 C.ar    1  UNL1        0.0024
      8 N           6.8263   -4.9425   27.9016 N.ar    1  UNL1       -0.2931
      9 C           6.6698   -3.5754   27.3045 C.ar    1  UNL1        0.1797
     10 N           7.0030   -3.6662   25.8448 N.ar    1  UNL1       -0.2222
     11 C           7.3655   -5.0895   25.5398 C.ar    1  UNL1        0.1203
     12 C           7.7809   -5.7691   24.2688 C.ar    1  UNL1        0.0417
     13 C           8.0870   -7.2375   24.2689 C.ar    1  UNL1        0.1238
     14 N           7.9778   -8.0263   25.5400 N.ar    1  UNL1       -0.1449
     15 N           7.5624   -7.3467   26.8111 N.ar    1  UNL1       -0.1285
     16 C           7.2562   -5.8783   26.8110 C.ar    1  UNL1        0.1843
     17 C           7.7073   -5.9000   30.1504 C.3     1  UNL1        0.0266
     18 C           6.5937   -5.3095   29.3373 C.3     1  UNL1        0.1091
     19 C           5.6699   -2.5623   20.7673 C.ar    1  UNL1        0.0362
     20 C           5.7029   -1.0669   20.8813 C.ar    1  UNL1        0.0044
     21 C           4.5383   -0.2523   20.4018 C.ar    1  UNL1        0.0185
     22 C           3.3406   -0.9331   19.8082 C.ar    1  UNL1        0.1087
     23 C           3.3076   -2.4284   19.6942 C.ar    1  UNL1        0.0552
     24 C           4.4723   -3.2430   20.1738 C.ar    1  UNL1        0.1400
     25 S           2.1759   -0.1185   19.3286 S.O2    1  UNL1        0.0088
     26 O           1.2505   -0.9459   20.1707 O.2     1  UNL1       -0.1686
     27 O           3.1013    0.7089   18.4866 O.2     1  UNL1       -0.1686
     28 C           1.0112    0.6961   18.8491 C.3     1  UNL1        0.1560
     29 C           1.1969    2.1470   18.5169 C.3     1  UNL1        0.0276
     30 O           4.4393   -4.7383   20.0598 O.3     1  UNL1       -0.4714
     31 C           4.6549   -5.3939   18.7280 C.3     1  UNL1        0.2525
@<TRIPOS>BOND
     1    17    18    1
     2    18     8    1
     3     8     9   ar
     4     9    10   ar
     5    10    11   ar
     6    11    12   ar
     7    12     1    1
     8     1     2   ar
     9     2     3   ar
    10     3     4   ar
    11     4     5    1
    12     4     6   ar
    13     6    19    1
    14    19    20   ar
    15    20    21   ar
    16    21    22   ar
    17    22    25    1
    18    25    26    2
    19    25    27    2
    20    25    28    1
    21    28    29    1
    22    22    23   ar
    23    23    24   ar
    24    24    30    1
    25    30    31    1
    26     6     7   ar
    27    12    13   ar
    28    13    14   ar
    29    14    15   ar
    30    15    16   ar
    31    16     8   ar
    32    16    11   ar
    33     7     1   ar
    34    24    19   ar
@<TRIPOS>MOLECULE
*****
 31 34 0 0 0
SMALL
GASTEIGER

@<TRIPOS>ATOM
      1 C           4.0224    2.0439   18.1916 C.ar    1  UNL1        0.0033
      2 C           4.8215    3.3063   18.0584 C.ar    1  UNL1        0.0024
      3 C           4.1459    4.6390   18.1906 C.ar    1  UNL1        0.0296
      4 C           2.6712    4.7093   18.4558 C.ar    1  UNL1        0.1402
      5 F           1.9956    6.0420   18.5880 F       1  UNL1       -0.2042
      6 C           1.8722    3.4468   18.5890 C.ar    1  UNL1        0.0304
      7 C           2.5478    2.1142   18.4568 C.ar    1  UNL1        0.0024
      8 N           4.2829   -2.7205   19.7458 N.ar    1  UNL1       -0.2931
      9 C           3.2067   -1.9725   20.4754 C.ar    1  UNL1        0.1797
     10 N           3.1898   -0.5641   19.9595 N.ar    1  UNL1       -0.2222
     11 C           4.2555   -0.4417   18.9110 C.ar    1  UNL1        0.1203
     12 C           4.6980    0.7111   18.0594 C.ar    1  UNL1        0.0417
     13 C           5.8161    0.5313   17.0758 C.ar    1  UNL1        0.1238
     14 N           6.4916   -0.8015   16.9437 N.ar    1  UNL1       -0.1449
     15 N           6.0491   -1.9543   17.7953 N.ar    1  UNL1       -0.1285
     16 C           4.9310   -1.7744   18.7789 C.ar    1  UNL1        0.1843
     17 C           4.5478   -5.1274   18.8041 C.3     1  UNL1        0.0266
     18 C           4.6469   -4.1616   19.9475 C.3     1  UNL1        0.1091
     19 C           0.3975    3.5171   18.8542 C.ar    1  UNL1        0.0362
     20 C          -0.5382    3.9717   17.7734 C.ar    1  UNL1        0.0044
     21 C          -2.0128    4.0419   18.0387 C.ar    1  UNL1        0.0185
     22 C          -2.5519    3.6576   19.3847 C.ar    1  UNL1        0.1087
     23 C          -1.6163    3.2031   20.4654 C.ar    1  UNL1        0.0552
     24 C          -0.1416    3.1328   20.2002 C.ar    1  UNL1        0.1400
     25 S          -4.0266    3.7279   19.6500 S.O2    1  UNL1        0.0088
     26 O          -4.1947    4.6427   18.4731 O.2     1  UNL1       -0.1686
     27 O          -3.8585    2.8132   20.8268 O.2     1  UNL1       -0.1686
     28 C          -5.5013    3.7982   19.9152 C.3     1  UNL1        0.1560
     29 C          -6.4731    3.3067   18.8838 C.3     1  UNL1        0.0276
     30 O           0.7940    2.6783   21.2810 O.3     1  UNL1       -0.4714
     31 C           0.6615    1.2996   21.8568 C.3     1  UNL1        0.2525
@<TRIPOS>BOND
     1    17    18    1
     2    18     8    1
     3     8     9   ar
     4     9    10   ar
     5    10    11   ar
     6    11    12   ar
     7    12     1    1
     8     1     2   ar
     9     2     3   ar
    10     3     4   ar
    11     4     5    1
    12     4     6   ar
    13     6    19    1
    14    19    20   ar
    15    20    21   ar
    16    21    22   ar
    17    22    25    1
    18    25    26    2
    19    25    27    2
    20    25    28    1
    21    28    29    1
    22    22    23   ar
    23    23    24   ar
    24    24    30    1
    25    30    31    1
    26     6     7   ar
    27    12    13   ar
    28    13    14   ar
    29    14    15   ar
    30    15    16   ar
    31    16     8   ar
    32    16    11   ar
    33     7     1   ar
    34    24    19   ar
@<TRIPOS>MOLECULE
*****
 31 34 0 0 0
SMALL
GASTEIGER

@<TRIPOS>ATOM
      1 C          -0.1614    3.7678   18.1607 C.ar    1  UNL1        0.0033
      2 C           0.6761    5.0031   18.0103 C.ar    1  UNL1        0.0024
      3 C           2.1720    4.9061   18.0629 C.ar    1  UNL1        0.0296
      4 C           2.8305    3.5737   18.2660 C.ar    1  UNL1        0.1402
      5 F           4.3264    3.4767   18.3186 F       1  UNL1       -0.2042
      6 C           1.9930    2.3384   18.4163 C.ar    1  UNL1        0.0304
      7 C           0.4971    2.4354   18.3637 C.ar    1  UNL1        0.0024
      8 N          -4.4652    3.9475   20.7350 N.ar    1  UNL1       -0.2931
      9 C          -3.2879    3.8390   21.6581 C.ar    1  UNL1        0.1797
     10 N          -2.0447    3.7906   20.8202 N.ar    1  UNL1       -0.2222
     11 C          -2.4538    3.8691   19.3791 C.ar    1  UNL1        0.1203
     12 C          -1.6574    3.8648   18.1080 C.ar    1  UNL1        0.0417
     13 C          -2.3568    3.9575   16.7844 C.ar    1  UNL1        0.1238
     14 N          -3.8527    4.0545   16.7318 N.ar    1  UNL1       -0.1449
     15 N          -4.6492    4.0588   18.0028 N.ar    1  UNL1       -0.1285
     16 C          -3.9497    3.9661   19.3265 C.ar    1  UNL1        0.1843
     17 C          -6.2746    3.9429   22.5994 C.3     1  UNL1        0.0266
     18 C          -5.9052    4.0240   21.1479 C.3     1  UNL1        0.1091
     19 C           2.6515    1.0060   18.6193 C.ar    1  UNL1        0.0362
     20 C           3.2313    0.2698   17.4481 C.ar    1  UNL1        0.0044
     21 C           3.8898   -1.0626   17.6511 C.ar    1  UNL1        0.0185
     22 C           3.9684   -1.6587   19.0254 C.ar    1  UNL1        0.1087
     23 C           3.3886   -0.9225   20.1965 C.ar    1  UNL1        0.0552
     24 C           2.7301    0.4099   19.9935 C.ar    1  UNL1        0.1400
     25 S           4.6269   -2.9911   19.2284 S.O2    1  UNL1        0.0088
     26 O           3.9701   -3.1110   20.5716 O.2     1  UNL1       -0.1686
     27 O           5.2837   -2.8711   17.8852 O.2     1  UNL1       -0.1686
     28 C           5.2854   -4.3234   19.4314 C.3     1  UNL1        0.1560
     29 C           4.7002   -5.5529   18.8021 C.3     1  UNL1        0.0276
     30 O           2.1502    1.1461   21.1648 O.3     1  UNL1       -0.4714
     31 C           0.7580    0.8376   21.6300 C.3     1  UNL1        0.2525
@<TRIPOS>BOND
     1    17    18    1
     2    18     8    1
     3     8     9   ar
     4     9    10   ar
     5    10    11   ar
     6    11    12   ar
     7    12     1    1
     8     1     2   ar
     9     2     3   ar
    10     3     4   ar
    11     4     5    1
    12     4     6   ar
    13     6    19    1
    14    19    20   ar
    15    20    21   ar
    16    21    22   ar
    17    22    25    1
    18    25    26    2
    19    25    27    2
    20    25    28    1
    21    28    29    1
    22    22    23   ar
    23    23    24   ar
    24    24    30    1
    25    30    31    1
    26     6     7   ar
    27    12    13   ar
    28    13    14   ar
    29    14    15   ar
    30    15    16   ar
    31    16     8   ar
    32    16    11   ar
    33     7     1   ar
    34    24    19   ar
@<TRIPOS>MOLECULE
*****
 31 34 0 0 0
SMALL
GASTEIGER

@<TRIPOS>ATOM
      1 C          -0.1216    1.6975   25.7492 C.ar    1  UNL1        0.0033
      2 C          -0.9999    2.8822   25.4753 C.ar    1  UNL1        0.0024
      3 C          -1.1063    3.4311   24.0833 C.ar    1  UNL1        0.0296
      4 C          -0.3342    2.7954   22.9654 C.ar    1  UNL1        0.1402
      5 F          -0.4405    3.3443   21.5735 F       1  UNL1       -0.2042
      6 C           0.5442    1.6107   23.2394 C.ar    1  UNL1        0.0304
      7 C           0.6505    1.0618   24.6313 C.ar    1  UNL1        0.0024
      8 N           2.8784   -0.0614   29.3671 N.ar    1  UNL1       -0.2931
      9 C           3.6662    0.3125   28.1466 C.ar    1  UNL1        0.1797
     10 N           2.7063    0.8268   27.1150 N.ar    1  UNL1       -0.2222
     11 C           1.3254    0.7707   27.6980 C.ar    1  UNL1        0.1203
     12 C          -0.0152    1.1486   27.1412 C.ar    1  UNL1        0.0417
     13 C          -1.2495    0.9775   27.9763 C.ar    1  UNL1        0.1238
     14 N          -1.1431    0.4286   29.3681 N.ar    1  UNL1       -0.1449
     15 N           0.1975    0.0508   29.9249 N.ar    1  UNL1       -0.1285
     16 C           1.4317    0.2218   29.0898 C.ar    1  UNL1        0.1843
     17 C           3.2461    0.1177   31.9328 C.3     1  UNL1        0.0266
     18 C           3.4389   -0.6203   30.6412 C.3     1  UNL1        0.1091
     19 C           1.3163    0.9750   22.1215 C.ar    1  UNL1        0.0362
     20 C           0.6304    0.0323   21.1776 C.ar    1  UNL1        0.0044
     21 C           1.4025   -0.6034   20.0596 C.ar    1  UNL1        0.0185
     22 C           2.8605   -0.2965   19.8857 C.ar    1  UNL1        0.1087
     23 C           3.5463    0.6462   20.8296 C.ar    1  UNL1        0.0552
     24 C           2.7742    1.2819   21.9476 C.ar    1  UNL1        0.1400
     25 S           3.6326   -0.9322   18.7678 S.O2    1  UNL1        0.0088
     26 O           3.4272   -2.2803   19.3926 O.2     1  UNL1       -0.1686
     27 O           3.8380    0.4159   18.1430 O.2     1  UNL1       -0.1686
     28 C           4.4047   -1.5679   17.6499 C.3     1  UNL1        0.1560
     29 C           5.4624   -2.5872   17.9537 C.3     1  UNL1        0.0276
     30 O           3.4601    2.2246   22.8915 O.3     1  UNL1       -0.4714
     31 C           4.3260    1.6863   23.9917 C.3     1  UNL1        0.2525
@<TRIPOS>BOND
     1    17    18    1
     2    18     8    1
     3     8     9   ar
     4     9    10   ar
     5    10    11   ar
     6    11    12   ar
     7    12     1    1
     8     1     2   ar
     9     2     3   ar
    10     3     4   ar
    11     4     5    1
    12     4     6   ar
    13     6    19    1
    14    19    20   ar
    15    20    21   ar
    16    21    22   ar
    17    22    25    1
    18    25    26    2
    19    25    27    2
    20    25    28    1
    21    28    29    1
    22    22    23   ar
    23    23    24   ar
    24    24    30    1
    25    30    31    1
    26     6     7   ar
    27    12    13   ar
    28    13    14   ar
    29    14    15   ar
    30    15    16   ar
    31    16     8   ar
    32    16    11   ar
    33     7     1   ar
    34    24    19   ar
@<TRIPOS>MOLECULE
*****
 31 34 0 0 0
SMALL
GASTEIGER

@<TRIPOS>ATOM
      1 C          -5.8005  -19.0366   20.9244 C.ar    1  UNL1        0.0033
      2 C          -5.8619  -19.6826   19.5721 C.ar    1  UNL1        0.0024
      3 C          -7.1827  -20.1116   19.0051 C.ar    1  UNL1        0.0296
      4 C          -8.4421  -19.8946   19.7905 C.ar    1  UNL1        0.1402
      5 F          -9.7629  -20.3236   19.2235 F       1  UNL1       -0.2042
      6 C          -8.3807  -19.2485   21.1429 C.ar    1  UNL1        0.0304
      7 C          -7.0599  -18.8196   21.7098 C.ar    1  UNL1        0.0024
      8 N          -1.1522  -17.3888   19.9966 N.ar    1  UNL1       -0.2931
      9 C          -1.9173  -17.5926   18.7226 C.ar    1  UNL1        0.1797
     10 N          -3.2893  -18.0829   19.0792 N.ar    1  UNL1       -0.2222
     11 C          -3.3722  -18.1821   20.5737 C.ar    1  UNL1        0.1203
     12 C          -4.4797  -18.6076   21.4915 C.ar    1  UNL1        0.0417
     13 C          -4.2664  -18.6041   22.9762 C.ar    1  UNL1        0.1238
     14 N          -2.9456  -18.1751   23.5431 N.ar    1  UNL1       -0.1449
     15 N          -1.8381  -17.7496   22.6253 N.ar    1  UNL1       -0.1285
     16 C          -2.0514  -17.7531   21.1406 C.ar    1  UNL1        0.1843
     17 C           1.3496  -17.8539   20.5203 C.3     1  UNL1        0.0266
     18 C           0.2634  -16.9055   20.1072 C.3     1  UNL1        0.1091
     19 C          -9.6401  -19.0315   21.9283 C.ar    1  UNL1        0.0362
     20 C          -9.8821  -19.8098   23.1876 C.ar    1  UNL1        0.0044
     21 C         -11.1415  -19.5928   23.9730 C.ar    1  UNL1        0.0185
     22 C         -12.1588  -18.5975   23.4991 C.ar    1  UNL1        0.1087
     23 C         -11.9167  -17.8192   22.2399 C.ar    1  UNL1        0.0552
     24 C         -10.6573  -18.0363   21.4545 C.ar    1  UNL1        0.1400
     25 S         -13.4182  -18.3805   24.2845 S.O2    1  UNL1        0.0088
     26 O         -12.7210  -18.8418   25.5299 O.2     1  UNL1       -0.1686
     27 O         -14.1154  -17.9192   23.0390 O.2     1  UNL1       -0.1686
     28 C         -14.6776  -18.1635   25.0699 C.3     1  UNL1        0.1560
     29 C         -14.7026  -18.4513   26.5418 C.3     1  UNL1        0.0276
     30 O         -10.4153  -17.2580   20.1952 O.3     1  UNL1       -0.4714
     31 C         -11.4130  -16.2332   19.7434 C.3     1  UNL1        0.2525
@<TRIPOS>BOND
     1    17    18    1
     2    18     8    1
     3     8     9   ar
     4     9    10   ar
     5    10    11   ar
     6    11    12   ar
     7    12     1    1
     8     1     2   ar
     9     2     3   ar
    10     3     4   ar
    11     4     5    1
    12     4     6   ar
    13     6    19    1
    14    19    20   ar
    15    20    21   ar
    16    21    22   ar
    17    22    25    1
    18    25    26    2
    19    25    27    2
    20    25    28    1
    21    28    29    1
    22    22    23   ar
    23    23    24   ar
    24    24    30    1
    25    30    31    1
    26     6     7   ar
    27    12    13   ar
    28    13    14   ar
    29    14    15   ar
    30    15    16   ar
    31    16     8   ar
    32    16    11   ar
    33     7     1   ar
    34    24    19   ar
@<TRIPOS>MOLECULE
*****
 31 34 0 0 0
SMALL
GASTEIGER

@<TRIPOS>ATOM
      1 C          -0.4774    3.2810   23.1506 C.ar    1  UNL1        0.0033
      2 C           0.3801    4.2883   23.8576 C.ar    1  UNL1        0.0024
      3 C           1.8739    4.1545   23.8277 C.ar    1  UNL1        0.0296
      4 C           2.5100    3.0133   23.0908 C.ar    1  UNL1        0.1402
      5 F           4.0037    2.8794   23.0609 F       1  UNL1       -0.2042
      6 C           1.6523    2.0060   22.3838 C.ar    1  UNL1        0.0304
      7 C           0.1587    2.1399   22.4137 C.ar    1  UNL1        0.0024
      8 N          -4.7183    3.7619   20.5113 N.ar    1  UNL1       -0.2931
      9 C          -3.5245    3.6876   19.6062 C.ar    1  UNL1        0.1797
     10 N          -2.3015    3.5454   20.4629 N.ar    1  UNL1       -0.2222
     11 C          -2.7395    3.5318   21.8975 C.ar    1  UNL1        0.1203
     12 C          -1.9712    3.4149   23.1805 C.ar    1  UNL1        0.0417
     13 C          -2.6966    3.4318   24.4933 C.ar    1  UNL1        0.1238
     14 N          -4.1903    3.5657   24.5232 N.ar    1  UNL1       -0.1449
     15 N          -4.9586    3.6826   23.2402 N.ar    1  UNL1       -0.1285
     16 C          -4.2332    3.6657   21.9274 C.ar    1  UNL1        0.1843
     17 C          -6.5856    3.3632   18.7494 C.3     1  UNL1        0.0266
     18 C          -6.1466    3.9071   20.0766 C.3     1  UNL1        0.1091
     19 C           2.2885    0.8648   21.6468 C.ar    1  UNL1        0.0362
     20 C           2.8065   -0.3216   22.4046 C.ar    1  UNL1        0.0044
     21 C           3.4426   -1.4628   21.6677 C.ar    1  UNL1        0.0185
     22 C           3.5607   -1.4176   20.1730 C.ar    1  UNL1        0.1087
     23 C           3.0427   -0.2312   19.4153 C.ar    1  UNL1        0.0552
     24 C           2.4066    0.9100   20.1522 C.ar    1  UNL1        0.1400
     25 S           4.1968   -2.5588   19.4360 S.O2    1  UNL1        0.0088
     26 O           4.5153   -3.2245   20.7419 O.2     1  UNL1       -0.1686
     27 O           3.8783   -1.8930   18.1301 O.2     1  UNL1       -0.1686
     28 C           4.8329   -3.6999   18.6991 C.3     1  UNL1        0.1560
     29 C           4.3382   -5.0997   18.9130 C.3     1  UNL1        0.0276
     30 O           1.8886    2.0964   19.3944 O.3     1  UNL1       -0.4714
     31 C           0.7219    1.9413   18.4645 C.3     1  UNL1        0.2525
@<TRIPOS>BOND
     1    17    18    1
     2    18     8    1
     3     8     9   ar
     4     9    10   ar
     5    10    11   ar
     6    11    12   ar
     7    12     1    1
     8     1     2   ar
     9     2     3   ar
    10     3     4   ar
    11     4     5    1
    12     4     6   ar
    13     6    19    1
    14    19    20   ar
    15    20    21   ar
    16    21    22   ar
    17    22    25    1
    18    25    26    2
    19    25    27    2
    20    25    28    1
    21    28    29    1
    22    22    23   ar
    23    23    24   ar
    24    24    30    1
    25    30    31    1
    26     6     7   ar
    27    12    13   ar
    28    13    14   ar
    29    14    15   ar
    30    15    16   ar
    31    16     8   ar
    32    16    11   ar
    33     7     1   ar
    34    24    19   ar
@<TRIPOS>MOLECULE
*****
 31 34 0 0 0
SMALL
GASTEIGER

@<TRIPOS>ATOM
      1 C          -1.3645    3.1868   20.1221 C.ar    1  UNL1        0.0033
      2 C          -0.8761    4.0972   19.0347 C.ar    1  UNL1        0.0024
      3 C           0.4807    3.8845   18.4314 C.ar    1  UNL1        0.0296
      4 C           1.3491    2.7614   18.9156 C.ar    1  UNL1        0.1402
      5 F           2.7058    2.5486   18.3123 F       1  UNL1       -0.2042
      6 C           0.8606    1.8509   20.0031 C.ar    1  UNL1        0.0304
      7 C          -0.4961    2.0637   20.6063 C.ar    1  UNL1        0.0024
      8 N          -4.0590    3.8573   24.3022 N.ar    1  UNL1       -0.2931
      9 C          -2.6001    3.7088   24.6180 C.ar    1  UNL1        0.1797
     10 N          -1.8637    3.5131   23.3260 N.ar    1  UNL1       -0.2222
     11 C          -2.8675    3.5407   22.2116 C.ar    1  UNL1        0.1203
     12 C          -2.7213    3.3995   20.7254 C.ar    1  UNL1        0.0417
     13 C          -3.9318    3.4711   19.8426 C.ar    1  UNL1        0.1238
     14 N          -5.2885    3.6838   20.4459 N.ar    1  UNL1       -0.1449
     15 N          -5.4347    3.8249   21.9321 N.ar    1  UNL1       -0.1285
     16 C          -4.2242    3.7534   22.8149 C.ar    1  UNL1        0.1843
     17 C          -4.8591    4.7126   26.6213 C.3     1  UNL1        0.0266
     18 C          -5.1594    4.0720   25.2986 C.3     1  UNL1        0.1091
     19 C           1.7290    0.7278   20.4873 C.ar    1  UNL1        0.0362
     20 C           1.8467   -0.5310   19.6798 C.ar    1  UNL1        0.0044
     21 C           2.7151   -1.6541   20.1640 C.ar    1  UNL1        0.0185
     22 C           3.4657   -1.5186   21.4556 C.ar    1  UNL1        0.1087
     23 C           3.3480   -0.2599   22.2630 C.ar    1  UNL1        0.0552
     24 C           2.4796    0.8632   21.7788 C.ar    1  UNL1        0.1400
     25 S           4.3341   -2.6417   21.9398 S.O2    1  UNL1        0.0088
     26 O           4.4471   -3.1593   20.5365 O.2     1  UNL1       -0.1686
     27 O           4.2211   -2.1242   23.3432 O.2     1  UNL1       -0.1686
     28 C           5.2025   -3.7649   22.4240 C.3     1  UNL1        0.1560
     29 C           6.6111   -3.4896   22.8597 C.3     1  UNL1        0.0276
     30 O           2.3619    2.1219   22.5862 O.3     1  UNL1       -0.4714
     31 C           1.5106    2.1441   23.8210 C.3     1  UNL1        0.2525
@<TRIPOS>BOND
     1    17    18    1
     2    18     8    1
     3     8     9   ar
     4     9    10   ar
     5    10    11   ar
     6    11    12   ar
     7    12     1    1
     8     1     2   ar
     9     2     3   ar
    10     3     4   ar
    11     4     5    1
    12     4     6   ar
    13     6    19    1
    14    19    20   ar
    15    20    21   ar
    16    21    22   ar
    17    22    25    1
    18    25    26    2
    19    25    27    2
    20    25    28    1
    21    28    29    1
    22    22    23   ar
    23    23    24   ar
    24    24    30    1
    25    30    31    1
    26     6     7   ar
    27    12    13   ar
    28    13    14   ar
    29    14    15   ar
    30    15    16   ar
    31    16     8   ar
    32    16    11   ar
    33     7     1   ar
    34    24    19   ar
@<TRIPOS>MOLECULE
*****
 31 34 0 0 0
SMALL
GASTEIGER

@<TRIPOS>ATOM
      1 C          -0.2165    3.6133   18.3890 C.ar    1  UNL1        0.0033
      2 C           0.6815    4.6548   17.7899 C.ar    1  UNL1        0.0024
      3 C           2.1711    4.5005   17.8767 C.ar    1  UNL1        0.0296
      4 C           2.7626    3.3048   18.5625 C.ar    1  UNL1        0.1402
      5 F           4.2521    3.1506   18.6492 F       1  UNL1       -0.2042
      6 C           1.8645    2.2633   19.1616 C.ar    1  UNL1        0.0304
      7 C           0.3750    2.4176   19.0749 C.ar    1  UNL1        0.0024
      8 N          -4.5675    3.9629   20.8648 N.ar    1  UNL1       -0.2931
      9 C          -3.4164    3.8110   21.8145 C.ar    1  UNL1        0.1797
     10 N          -2.1574    3.7133   21.0050 N.ar    1  UNL1       -0.2222
     11 C          -2.5304    3.8048   19.5550 C.ar    1  UNL1        0.1203
     12 C          -1.7060    3.7676   18.3023 C.ar    1  UNL1        0.0417
     13 C          -2.3712    3.8846   16.9630 C.ar    1  UNL1        0.1238
     14 N          -3.8607    4.0388   16.8764 N.ar    1  UNL1       -0.1449
     15 N          -4.6850    4.0760   18.1290 N.ar    1  UNL1       -0.1285
     16 C          -4.0199    3.9590   19.4683 C.ar    1  UNL1        0.1843
     17 C          -6.4061    4.1454   22.6913 C.3     1  UNL1        0.0266
     18 C          -6.0125    4.0953   21.2447 C.3     1  UNL1        0.1091
     19 C           2.4560    1.0676   19.8475 C.ar    1  UNL1        0.0362
     20 C           2.3956    0.9541   21.3420 C.ar    1  UNL1        0.0044
     21 C           2.9871   -0.2416   22.0278 C.ar    1  UNL1        0.0185
     22 C           3.6391   -1.3238   21.2191 C.ar    1  UNL1        0.1087
     23 C           3.6995   -1.2103   19.7247 C.ar    1  UNL1        0.0552
     24 C           3.1079   -0.0145   19.0389 C.ar    1  UNL1        0.1400
     25 S           4.2306   -2.5195   21.9050 S.O2    1  UNL1        0.0088
     26 O           3.9926   -3.3432   20.6742 O.2     1  UNL1       -0.1686
     27 O           4.4686   -1.6958   23.1358 O.2     1  UNL1       -0.1686
     28 C           4.8221   -3.7152   22.5908 C.3     1  UNL1        0.1560
     29 C           5.7805   -3.5288   23.7295 C.3     1  UNL1        0.0276
     30 O           3.1684    0.0990   17.5443 O.3     1  UNL1       -0.4714
     31 C           3.9801   -0.8808   16.7500 C.3     1  UNL1        0.2525
@<TRIPOS>BOND
     1    17    18    1
     2    18     8    1
     3     8     9   ar
     4     9    10   ar
     5    10    11   ar
     6    11    12   ar
     7    12     1    1
     8     1     2   ar
     9     2     3   ar
    10     3     4   ar
    11     4     5    1
    12     4     6   ar
    13     6    19    1
    14    19    20   ar
    15    20    21   ar
    16    21    22   ar
    17    22    25    1
    18    25    26    2
    19    25    27    2
    20    25    28    1
    21    28    29    1
    22    22    23   ar
    23    23    24   ar
    24    24    30    1
    25    30    31    1
    26     6     7   ar
    27    12    13   ar
    28    13    14   ar
    29    14    15   ar
    30    15    16   ar
    31    16     8   ar
    32    16    11   ar
    33     7     1   ar
    34    24    19   ar
@<TRIPOS>MOLECULE
*****
 31 34 0 0 0
SMALL
GASTEIGER

@<TRIPOS>ATOM
      1 C           3.4853    2.1563   18.5865 C.ar    1  UNL1        0.0033
      2 C           4.2943    3.4111   18.7307 C.ar    1  UNL1        0.0024
      3 C           3.6093    4.7188   18.9970 C.ar    1  UNL1        0.0296
      4 C           2.1152    4.7715   19.1191 C.ar    1  UNL1        0.1402
      5 F           1.4301    6.0790   19.3854 F       1  UNL1       -0.2042
      6 C           1.3061    3.5165   18.9749 C.ar    1  UNL1        0.0304
      7 C           1.9912    2.2090   18.7086 C.ar    1  UNL1        0.0024
      8 N           4.1359   -2.6203   19.9807 N.ar    1  UNL1       -0.2931
      9 C           3.1697   -1.9194   20.8891 C.ar    1  UNL1        0.1797
     10 N           3.0275   -0.5045   20.4116 N.ar    1  UNL1       -0.2222
     11 C           3.9059   -0.3311   19.2080 C.ar    1  UNL1        0.1203
     12 C           4.1704    0.8487   18.3202 C.ar    1  UNL1        0.0417
     13 C           5.1199    0.7208   17.1661 C.ar    1  UNL1        0.1238
     14 N           5.8049   -0.5868   16.8998 N.ar    1  UNL1       -0.1449
     15 N           5.5404   -1.7665   17.7876 N.ar    1  UNL1       -0.1285
     16 C           4.5909   -1.6387   18.9417 C.ar    1  UNL1        0.1843
     17 C           4.4238   -4.9733   18.9176 C.3     1  UNL1        0.0266
     18 C           4.5708   -4.0515   20.0917 C.3     1  UNL1        0.1091
     19 C          -0.1879    3.5692   19.0970 C.ar    1  UNL1        0.0362
     20 C          -0.8477    3.2059   20.3943 C.ar    1  UNL1        0.0044
     21 C          -2.3418    3.2586   20.5164 C.ar    1  UNL1        0.0185
     22 C          -3.1761    3.6746   19.3412 C.ar    1  UNL1        0.1087
     23 C          -2.5164    4.0379   18.0441 C.ar    1  UNL1        0.0552
     24 C          -1.0223    3.9852   17.9220 C.ar    1  UNL1        0.1400
     25 S          -4.6702    3.7274   19.4634 S.O2    1  UNL1        0.0088
     26 O          -4.5737    3.2101   20.8680 O.2     1  UNL1       -0.1686
     27 O          -4.7668    4.2446   18.0587 O.2     1  UNL1       -0.1686
     28 C          -6.1643    3.7801   19.5855 C.3     1  UNL1        0.1560
     29 C          -6.7989    4.5650   20.6950 C.3     1  UNL1        0.0276
     30 O          -0.3625    4.3485   16.6247 O.3     1  UNL1       -0.4714
     31 C          -0.1355    5.7897   16.2765 C.3     1  UNL1        0.2525
@<TRIPOS>BOND
     1    17    18    1
     2    18     8    1
     3     8     9   ar
     4     9    10   ar
     5    10    11   ar
     6    11    12   ar
     7    12     1    1
     8     1     2   ar
     9     2     3   ar
    10     3     4   ar
    11     4     5    1
    12     4     6   ar
    13     6    19    1
    14    19    20   ar
    15    20    21   ar
    16    21    22   ar
    17    22    25    1
    18    25    26    2
    19    25    27    2
    20    25    28    1
    21    28    29    1
    22    22    23   ar
    23    23    24   ar
    24    24    30    1
    25    30    31    1
    26     6     7   ar
    27    12    13   ar
    28    13    14   ar
    29    14    15   ar
    30    15    16   ar
    31    16     8   ar
    32    16    11   ar
    33     7     1   ar
    34    24    19   ar
