@<TRIPOS>MOLECULE
*****
 44 49 0 0 0
SMALL
GASTEIGER

@<TRIPOS>ATOM
      1 N           2.8732    0.8940   31.4790 N.am    1  UNL1       -0.2222
      2 C           2.3077    0.8652   30.0899 C.2     1  UNL1        0.3219
      3 O           2.6974   -0.0877   28.9989 O.2     1  UNL1       -0.2512
      4 N           1.2842    1.9566   29.9833 N.am    1  UNL1       -0.1907
      5 C           1.2171    2.6599   31.3065 C.2     1  UNL1        0.2529
      6 O           0.3247    3.8168   31.6459 O.2     1  UNL1       -0.2724
      7 C           2.1991    2.0031   32.2310 C.3     1  UNL1        0.1391
      8 C           3.2164    1.2504   33.0362 C.3     1  UNL1        0.0449
      9 C           3.4784    1.6353   34.4621 C.3     1  UNL1        0.0746
     10 N           2.7230    2.7729   35.0827 N.3     1  UNL1       -0.2676
     11 C           1.7057    3.5256   34.2775 C.3     1  UNL1        0.0746
     12 C           1.4437    3.1408   32.8516 C.3     1  UNL1        0.0449
     13 C           6.4309   -0.5746   32.4463 C.ar    1  UNL1        0.2293
     14 C           5.3766    0.3444   31.9043 C.ar    1  UNL1        0.0924
     15 C           3.9275   -0.0251   32.0210 C.ar    1  UNL1        0.1453
     16 N           3.5327   -1.3137   32.6796 N.ar    1  UNL1       -0.2084
     17 C           4.5870   -2.2327   33.2215 C.ar    1  UNL1        0.2027
     18 N           6.0361   -1.8632   33.1049 N.ar    1  UNL1       -0.1892
     19 C           8.8823   -0.7922   33.2787 C.3     1  UNL1        0.2542
     20 O           7.8800   -0.2052   32.3296 O.3     1  UNL1       -0.4560
     21 C           0.4707    2.2867   28.7672 C.ar    1  UNL1        0.0622
     22 C           0.2545    3.7184   28.3755 C.ar    1  UNL1        0.0154
     23 C          -0.5590    4.0486   27.1592 C.ar    1  UNL1        0.0014
     24 C          -1.1563    2.9470   26.3347 C.ar    1  UNL1        0.0022
     25 C          -0.9401    1.5152   26.7265 C.ar    1  UNL1        0.0014
     26 C          -0.1266    1.1852   27.9427 C.ar    1  UNL1        0.0154
     27 C          -1.9699    3.2772   25.1185 C.ar    1  UNL1        0.0275
     28 C          -1.3228    3.2945   23.7654 C.ar    1  UNL1        0.0023
     29 C          -2.1363    3.6247   22.5491 C.ar    1  UNL1        0.0013
     30 C          -3.5969    3.9374   22.6862 C.ar    1  UNL1        0.0162
     31 C          -4.2440    3.9201   24.0393 C.ar    1  UNL1        0.0308
     32 C          -3.4306    3.5899   25.2554 C.ar    1  UNL1        0.1401
     33 F          -4.0776    3.5726   26.6086 F       1  UNL1       -0.2042
     34 C          -4.4105    4.2676   21.4699 C.2     1  UNL1        0.0729
     35 O          -4.7680    5.6934   21.1711 O.co2   1  UNL1       -0.5446
     36 O          -4.8664    3.1719   20.5525 O.co2   1  UNL1       -0.5446
     37 C           2.9850    3.1578   36.5087 C.3     1  UNL1        0.1183
     38 C           2.2209    2.4957   37.6167 C.ar    1  UNL1        0.0712
     39 N           0.9428    3.1033   38.1138 N.ar    1  UNL1       -0.2471
     40 C           0.1787    2.4412   39.2219 C.ar    1  UNL1        0.0985
     41 C           0.6928    1.1714   39.8329 C.ar    1  UNL1        0.0203
     42 C           1.9709    0.5637   39.3358 C.ar    1  UNL1       -0.0015
     43 C           2.7350    1.2258   38.2278 C.ar    1  UNL1       -0.0069
     44 C           4.0132    0.6182   37.7308 C.3     1  UNL1        0.0323
@<TRIPOS>UNITY_ATOM_ATTR
35 1
charge -1
@<TRIPOS>BOND
     1    19    20    1
     2    20    13    1
     3    13    14   ar
     4    14    15   ar
     5    15     1    1
     6     1     2   am
     7     2     3    2
     8     2     4   am
     9     4    21    1
    10    21    22   ar
    11    22    23   ar
    12    23    24   ar
    13    24    27    1
    14    27    28   ar
    15    28    29   ar
    16    29    30   ar
    17    30    34    1
    18    34    35   ar
    19    34    36   ar
    20    30    31   ar
    21    31    32   ar
    22    32    33    1
    23    24    25   ar
    24    25    26   ar
    25     4     5   am
    26     5     6    2
    27     5     7    1
    28     7     8    1
    29     8     9    1
    30     9    10    1
    31    10    37    1
    32    37    38    1
    33    38    39   ar
    34    39    40   ar
    35    40    41   ar
    36    41    42   ar
    37    42    43   ar
    38    43    44    1
    39    10    11    1
    40    11    12    1
    41    15    16   ar
    42    16    17   ar
    43    17    18   ar
    44    18    13   ar
    45     7     1    1
    46    43    38   ar
    47    26    21   ar
    48    12     7    1
    49    32    27   ar
@<TRIPOS>MOLECULE
*****
 44 49 0 0 0
SMALL
GASTEIGER

@<TRIPOS>ATOM
      1 N           3.1051    0.3525   31.4988 N.am    1  UNL1       -0.2222
      2 C           2.4292    0.4635   30.1642 C.2     1  UNL1        0.3219
      3 O           2.7213   -0.3753   28.9555 O.2     1  UNL1       -0.2512
      4 N           1.4099    1.5606   30.2507 N.am    1  UNL1       -0.1907
      5 C           1.4558    2.1276   31.6387 C.2     1  UNL1        0.2529
      6 O           0.6038    3.2451   32.1633 O.2     1  UNL1       -0.2724
      7 C           2.5036    1.3810   32.4101 C.3     1  UNL1        0.1391
      8 C           3.5760    0.5508   33.0508 C.3     1  UNL1        0.0449
      9 C           3.9555    0.7905   34.4820 C.3     1  UNL1        0.0746
     10 N           3.2625    1.8605   35.2725 N.3     1  UNL1       -0.2676
     11 C           2.1900    2.6907   34.6318 C.3     1  UNL1        0.0746
     12 C           1.8106    2.4509   33.2006 C.3     1  UNL1        0.0449
     13 C           6.7077   -1.2636   31.8977 C.ar    1  UNL1        0.2293
     14 C           5.6211   -0.2943   31.5377 C.ar    1  UNL1        0.0924
     15 C           4.1918   -0.6168   31.8588 C.ar    1  UNL1        0.1453
     16 N           3.8492   -1.9086   32.5400 N.ar    1  UNL1       -0.2084
     17 C           4.9357   -2.8779   32.9000 C.ar    1  UNL1        0.2027
     18 N           6.3651   -2.5554   32.5788 N.ar    1  UNL1       -0.1892
     19 C           8.5195   -0.5341   30.1845 C.3     1  UNL1        0.2542
     20 O           8.1370   -0.9412   31.5766 O.3     1  UNL1       -0.4560
     21 C           0.5038    2.0115   29.1437 C.ar    1  UNL1        0.0622
     22 C          -0.4548    1.0426   28.5175 C.ar    1  UNL1        0.0154
     23 C          -1.3609    1.4935   27.4104 C.ar    1  UNL1        0.0014
     24 C          -1.3084    2.9134   26.9296 C.ar    1  UNL1        0.0022
     25 C          -0.3498    3.8824   27.5558 C.ar    1  UNL1        0.0014
     26 C           0.5563    3.4314   28.6629 C.ar    1  UNL1        0.0154
     27 C          -2.2146    3.3643   25.8225 C.ar    1  UNL1        0.0275
     28 C          -3.5905    3.8710   26.1388 C.ar    1  UNL1        0.0023
     29 C          -4.4966    4.3219   25.0317 C.ar    1  UNL1        0.0013
     30 C          -4.0267    4.2661   23.6083 C.ar    1  UNL1        0.0162
     31 C          -2.6508    3.7594   23.2920 C.ar    1  UNL1        0.0308
     32 C          -1.7447    3.3085   24.3990 C.ar    1  UNL1        0.1401
     33 F          -0.3688    2.8017   24.0826 F       1  UNL1       -0.2042
     34 C          -4.9329    4.7170   22.5012 C.2     1  UNL1        0.0729
     35 O          -4.5894    5.9387   21.7016 O.co2   1  UNL1       -0.5446
     36 O          -6.1825    3.9462   22.1938 O.co2   1  UNL1       -0.5446
     37 C           3.6420    2.1002   36.7038 C.3     1  UNL1        0.1183
     38 C           2.6437    1.8535   37.7959 C.ar    1  UNL1        0.0712
     39 N           2.5695    0.5078   38.4543 N.ar    1  UNL1       -0.2471
     40 C           1.5712    0.2611   39.5464 C.ar    1  UNL1        0.0985
     41 C           0.6471    1.3602   39.9800 C.ar    1  UNL1        0.0203
     42 C           0.7212    2.7059   39.3215 C.ar    1  UNL1       -0.0015
     43 C           1.7195    2.9526   38.2295 C.ar    1  UNL1       -0.0069
     44 C           1.7937    4.2983   37.5711 C.3     1  UNL1        0.0323
@<TRIPOS>UNITY_ATOM_ATTR
35 1
charge -1
@<TRIPOS>BOND
     1    19    20    1
     2    20    13    1
     3    13    14   ar
     4    14    15   ar
     5    15     1    1
     6     1     2   am
     7     2     3    2
     8     2     4   am
     9     4    21    1
    10    21    22   ar
    11    22    23   ar
    12    23    24   ar
    13    24    27    1
    14    27    28   ar
    15    28    29   ar
    16    29    30   ar
    17    30    34    1
    18    34    35   ar
    19    34    36   ar
    20    30    31   ar
    21    31    32   ar
    22    32    33    1
    23    24    25   ar
    24    25    26   ar
    25     4     5   am
    26     5     6    2
    27     5     7    1
    28     7     8    1
    29     8     9    1
    30     9    10    1
    31    10    37    1
    32    37    38    1
    33    38    39   ar
    34    39    40   ar
    35    40    41   ar
    36    41    42   ar
    37    42    43   ar
    38    43    44    1
    39    10    11    1
    40    11    12    1
    41    15    16   ar
    42    16    17   ar
    43    17    18   ar
    44    18    13   ar
    45     7     1    1
    46    43    38   ar
    47    26    21   ar
    48    12     7    1
    49    32    27   ar
@<TRIPOS>MOLECULE
*****
 44 49 0 0 0
SMALL
GASTEIGER

@<TRIPOS>ATOM
      1 N           3.4681   -0.9631   21.7532 N.am    1  UNL1       -0.2222
      2 C           2.2431   -0.1020   21.8438 C.2     1  UNL1        0.3219
      3 O           1.3654    0.3058   20.6978 O.2     1  UNL1       -0.2512
      4 N           2.0500    0.2796   23.2816 N.am    1  UNL1       -0.1907
      5 C           3.1556   -0.3456   24.0796 C.2     1  UNL1        0.2529
      6 O           3.3506   -0.2241   25.5618 O.2     1  UNL1       -0.2724
      7 C           4.0320   -1.1136   23.1350 C.3     1  UNL1        0.1391
      8 C           4.8118   -1.8348   22.0759 C.3     1  UNL1        0.0449
      9 C           6.0370   -2.6161   22.4478 C.3     1  UNL1        0.0746
     10 N           6.4824   -2.6763   23.8789 N.3     1  UNL1       -0.2676
     11 C           5.7026   -1.9552   24.9381 C.3     1  UNL1        0.0746
     12 C           4.4774   -1.1738   24.5661 C.3     1  UNL1        0.0449
     13 C           5.5796   -1.4021   18.4218 C.ar    1  UNL1        0.2293
     14 C           5.0173   -0.7977   19.6742 C.ar    1  UNL1        0.0924
     15 C           4.0303   -1.5675   20.5008 C.ar    1  UNL1        0.1453
     16 N           3.6056   -2.9416   20.0750 N.ar    1  UNL1       -0.2084
     17 C           4.1677   -3.5460   18.8226 C.ar    1  UNL1        0.2027
     18 N           5.1548   -2.7762   17.9959 N.ar    1  UNL1       -0.1892
     19 C           6.1108    0.5474   16.7887 C.3     1  UNL1        0.2542
     20 O           6.5665   -0.6324   17.5951 O.3     1  UNL1       -0.4560
     21 C           0.9454    1.1360   23.8257 C.ar    1  UNL1        0.0622
     22 C           0.3530    2.2234   22.9792 C.ar    1  UNL1        0.0154
     23 C          -0.7517    3.0799   23.5234 C.ar    1  UNL1        0.0014
     24 C          -1.2640    2.8489   24.9141 C.ar    1  UNL1        0.0022
     25 C          -0.6716    1.7615   25.7607 C.ar    1  UNL1        0.0014
     26 C           0.4331    0.9051   25.2165 C.ar    1  UNL1        0.0154
     27 C          -2.3687    3.7054   25.4583 C.ar    1  UNL1        0.0275
     28 C          -2.1226    4.5763   26.6545 C.ar    1  UNL1        0.0023
     29 C          -3.2273    5.4328   27.1987 C.ar    1  UNL1        0.0013
     30 C          -4.5781    5.4182   26.5466 C.ar    1  UNL1        0.0162
     31 C          -4.8242    4.5473   25.3505 C.ar    1  UNL1        0.0308
     32 C          -3.7196    3.6909   24.8063 C.ar    1  UNL1        0.1401
     33 F          -3.9657    2.8199   23.6101 F       1  UNL1       -0.2042
     34 C          -5.6828    6.2747   27.0908 C.2     1  UNL1        0.0729
     35 O          -6.0350    7.5652   26.4123 O.co2   1  UNL1       -0.5446
     36 O          -6.4354    5.8405   28.3137 O.co2   1  UNL1       -0.5446
     37 C           7.7076   -3.4578   24.2509 C.3     1  UNL1        0.1183
     38 C           7.5719   -4.8354   24.8285 C.ar    1  UNL1        0.0712
     39 N           6.8739   -5.0327   26.1414 N.ar    1  UNL1       -0.2471
     40 C           6.7382   -6.4105   26.7190 C.ar    1  UNL1        0.0985
     41 C           7.3005   -7.5907   25.9837 C.ar    1  UNL1        0.0203
     42 C           7.9985   -7.3934   24.6707 C.ar    1  UNL1       -0.0015
     43 C           8.1342   -6.0157   24.0931 C.ar    1  UNL1       -0.0069
     44 C           8.8322   -5.8184   22.7802 C.3     1  UNL1        0.0323
@<TRIPOS>UNITY_ATOM_ATTR
35 1
charge -1
@<TRIPOS>BOND
     1    19    20    1
     2    20    13    1
     3    13    14   ar
     4    14    15   ar
     5    15     1    1
     6     1     2   am
     7     2     3    2
     8     2     4   am
     9     4    21    1
    10    21    22   ar
    11    22    23   ar
    12    23    24   ar
    13    24    27    1
    14    27    28   ar
    15    28    29   ar
    16    29    30   ar
    17    30    34    1
    18    34    35   ar
    19    34    36   ar
    20    30    31   ar
    21    31    32   ar
    22    32    33    1
    23    24    25   ar
    24    25    26   ar
    25     4     5   am
    26     5     6    2
    27     5     7    1
    28     7     8    1
    29     8     9    1
    30     9    10    1
    31    10    37    1
    32    37    38    1
    33    38    39   ar
    34    39    40   ar
    35    40    41   ar
    36    41    42   ar
    37    42    43   ar
    38    43    44    1
    39    10    11    1
    40    11    12    1
    41    15    16   ar
    42    16    17   ar
    43    17    18   ar
    44    18    13   ar
    45     7     1    1
    46    43    38   ar
    47    26    21   ar
    48    12     7    1
    49    32    27   ar
@<TRIPOS>MOLECULE
*****
 44 49 0 0 0
SMALL
GASTEIGER

@<TRIPOS>ATOM
      1 N           3.5921   -0.5998   22.3317 N.am    1  UNL1       -0.2222
      2 C           2.3375    0.2223   22.3530 C.2     1  UNL1        0.3219
      3 O           1.5470    0.6559   21.1542 O.2     1  UNL1       -0.2512
      4 N           2.0123    0.5346   23.7837 N.am    1  UNL1       -0.1907
      5 C           3.0657   -0.0944   24.6465 C.2     1  UNL1        0.2529
      6 O           3.1314   -0.0331   26.1438 O.2     1  UNL1       -0.2724
      7 C           4.0422   -0.7955   23.7492 C.3     1  UNL1        0.1391
      8 C           4.9305   -1.4474   22.7314 C.3     1  UNL1        0.0449
      9 C           6.1438   -2.2103   23.1739 C.3     1  UNL1        0.0746
     10 N           6.4689   -2.3212   24.6340 N.3     1  UNL1       -0.2676
     11 C           5.5805   -1.6693   25.6518 C.3     1  UNL1        0.0746
     12 C           4.3672   -0.9065   25.2093 C.3     1  UNL1        0.0449
     13 C           4.5751   -3.0061   19.3329 C.ar    1  UNL1        0.2293
     14 C           3.8908   -2.4733   20.5568 C.ar    1  UNL1        0.0924
     15 C           4.2764   -1.1325   21.1078 C.ar    1  UNL1        0.1453
     16 N           5.3462   -0.3245   20.4350 N.ar    1  UNL1       -0.2084
     17 C           6.0304   -0.8572   19.2112 C.ar    1  UNL1        0.2027
     18 N           5.6449   -2.1981   18.6601 N.ar    1  UNL1       -0.1892
     19 C           3.5024   -5.3495   19.6606 C.3     1  UNL1        0.2542
     20 O           4.1897   -4.3468   18.7818 O.3     1  UNL1       -0.4560
     21 C           0.8395    1.3353   24.2667 C.ar    1  UNL1        0.0622
     22 C           0.2621    1.0745   25.6263 C.ar    1  UNL1        0.0154
     23 C          -0.9108    1.8753   26.1092 C.ar    1  UNL1        0.0014
     24 C          -1.5062    2.9369   25.2326 C.ar    1  UNL1        0.0022
     25 C          -0.9288    3.1978   23.8730 C.ar    1  UNL1        0.0014
     26 C           0.2441    2.3970   23.3901 C.ar    1  UNL1        0.0154
     27 C          -2.6790    3.7377   25.7156 C.ar    1  UNL1        0.0275
     28 C          -4.0377    3.5107   25.1220 C.ar    1  UNL1        0.0023
     29 C          -5.2105    4.3114   25.6050 C.ar    1  UNL1        0.0013
     30 C          -5.0246    5.3392   26.6816 C.ar    1  UNL1        0.0162
     31 C          -3.6659    5.5662   27.2753 C.ar    1  UNL1        0.0308
     32 C          -2.4931    4.7655   26.7923 C.ar    1  UNL1        0.1401
     33 F          -1.1344    4.9924   27.3860 F       1  UNL1       -0.2042
     34 C          -6.1974    6.1399   27.1646 C.2     1  UNL1        0.0729
     35 O          -6.7945    7.1997   26.2869 O.co2   1  UNL1       -0.5446
     36 O          -6.7731    5.8809   28.5254 O.co2   1  UNL1       -0.5446
     37 C           7.6823   -3.0841   25.0764 C.3     1  UNL1        0.1183
     38 C           7.6124   -4.5731   25.2433 C.ar    1  UNL1        0.0712
     39 N           6.9806   -5.1616   26.4699 N.ar    1  UNL1       -0.2471
     40 C           6.9108   -6.6507   26.6368 C.ar    1  UNL1        0.0985
     41 C           7.4727   -7.5513   25.5770 C.ar    1  UNL1        0.0203
     42 C           8.1045   -6.9628   24.3504 C.ar    1  UNL1       -0.0015
     43 C           8.1744   -5.4738   24.1835 C.ar    1  UNL1       -0.0069
     44 C           8.8062   -4.8854   22.9569 C.3     1  UNL1        0.0323
@<TRIPOS>UNITY_ATOM_ATTR
35 1
charge -1
@<TRIPOS>BOND
     1    19    20    1
     2    20    13    1
     3    13    14   ar
     4    14    15   ar
     5    15     1    1
     6     1     2   am
     7     2     3    2
     8     2     4   am
     9     4    21    1
    10    21    22   ar
    11    22    23   ar
    12    23    24   ar
    13    24    27    1
    14    27    28   ar
    15    28    29   ar
    16    29    30   ar
    17    30    34    1
    18    34    35   ar
    19    34    36   ar
    20    30    31   ar
    21    31    32   ar
    22    32    33    1
    23    24    25   ar
    24    25    26   ar
    25     4     5   am
    26     5     6    2
    27     5     7    1
    28     7     8    1
    29     8     9    1
    30     9    10    1
    31    10    37    1
    32    37    38    1
    33    38    39   ar
    34    39    40   ar
    35    40    41   ar
    36    41    42   ar
    37    42    43   ar
    38    43    44    1
    39    10    11    1
    40    11    12    1
    41    15    16   ar
    42    16    17   ar
    43    17    18   ar
    44    18    13   ar
    45     7     1    1
    46    43    38   ar
    47    26    21   ar
    48    12     7    1
    49    32    27   ar
@<TRIPOS>MOLECULE
*****
 44 49 0 0 0
SMALL
GASTEIGER

@<TRIPOS>ATOM
      1 N           6.0440   -2.3722   26.2401 N.am    1  UNL1       -0.2222
      2 C           6.1065   -2.0610   27.7062 C.2     1  UNL1        0.3219
      3 O           7.1421   -2.5596   28.6699 O.2     1  UNL1       -0.2512
      4 N           4.9516   -1.1636   28.0392 N.am    1  UNL1       -0.1907
      5 C           4.1753   -0.9202   26.7790 C.2     1  UNL1        0.2529
      6 O           2.9407   -0.0778   26.6528 O.2     1  UNL1       -0.2724
      7 C           4.8504   -1.6672   25.6670 C.3     1  UNL1        0.1391
      8 C           5.6301   -2.4622   24.6620 C.3     1  UNL1        0.0449
      9 C           5.1891   -2.4978   23.2288 C.3     1  UNL1        0.0746
     10 N           3.9684   -1.7385   22.8006 N.3     1  UNL1       -0.2676
     11 C           3.1887   -0.9435   23.8056 C.3     1  UNL1        0.0746
     12 C           3.6298   -0.9079   25.2388 C.3     1  UNL1        0.0449
     13 C           7.8127   -5.5930   24.7406 C.ar    1  UNL1        0.2293
     14 C           6.8506   -4.7285   25.5003 C.ar    1  UNL1        0.0924
     15 C           7.0061   -3.2367   25.4804 C.ar    1  UNL1        0.1453
     16 N           8.1237   -2.6094   24.7010 N.ar    1  UNL1       -0.2084
     17 C           9.0857   -3.4738   23.9414 C.ar    1  UNL1        0.2027
     18 N           8.9303   -4.9657   23.9612 N.ar    1  UNL1       -0.1892
     19 C           7.3319   -7.7879   26.0449 C.3     1  UNL1        0.2542
     20 O           7.6573   -7.0847   24.7604 O.3     1  UNL1       -0.4560
     21 C           4.6296   -0.6073   29.3944 C.ar    1  UNL1        0.0622
     22 C           5.6653    0.1698   30.1516 C.ar    1  UNL1        0.0154
     23 C           5.3432    0.7261   31.5069 C.ar    1  UNL1        0.0014
     24 C           3.9854    0.5053   32.1050 C.ar    1  UNL1        0.0022
     25 C           2.9496   -0.2718   31.3477 C.ar    1  UNL1        0.0014
     26 C           3.2718   -0.8281   29.9924 C.ar    1  UNL1        0.0154
     27 C           3.6633    1.0617   33.4603 C.ar    1  UNL1        0.0275
     28 C           2.6293    2.1389   33.6024 C.ar    1  UNL1        0.0023
     29 C           2.3072    2.6953   34.9577 C.ar    1  UNL1        0.0013
     30 C           3.0193    2.1742   36.1708 C.ar    1  UNL1        0.0162
     31 C           4.0533    1.0969   36.0286 C.ar    1  UNL1        0.0308
     32 C           4.3754    0.5406   34.6734 C.ar    1  UNL1        0.1401
     33 F           5.4094   -0.5366   34.5313 F       1  UNL1       -0.2042
     34 C           2.6972    2.7305   37.5261 C.2     1  UNL1        0.0729
     35 O           3.7936    2.9536   38.5252 O.co2   1  UNL1       -0.5446
     36 O           1.2787    3.0639   37.8823 O.co2   1  UNL1       -0.5446
     37 C           3.5274   -1.7741   21.3673 C.3     1  UNL1        0.1183
     38 C           4.5485   -1.8042   20.2689 C.ar    1  UNL1        0.0712
     39 N           5.5656   -0.7071   20.1602 N.ar    1  UNL1       -0.2471
     40 C           6.5868   -0.7372   19.0618 C.ar    1  UNL1        0.0985
     41 C           6.5908   -1.8644   18.0722 C.ar    1  UNL1        0.0203
     42 C           5.5736   -2.9615   18.1809 C.ar    1  UNL1       -0.0015
     43 C           4.5525   -2.9314   19.2792 C.ar    1  UNL1       -0.0069
     44 C           3.5354   -4.0285   19.3879 C.3     1  UNL1        0.0323
@<TRIPOS>UNITY_ATOM_ATTR
35 1
charge -1
@<TRIPOS>BOND
     1    19    20    1
     2    20    13    1
     3    13    14   ar
     4    14    15   ar
     5    15     1    1
     6     1     2   am
     7     2     3    2
     8     2     4   am
     9     4    21    1
    10    21    22   ar
    11    22    23   ar
    12    23    24   ar
    13    24    27    1
    14    27    28   ar
    15    28    29   ar
    16    29    30   ar
    17    30    34    1
    18    34    35   ar
    19    34    36   ar
    20    30    31   ar
    21    31    32   ar
    22    32    33    1
    23    24    25   ar
    24    25    26   ar
    25     4     5   am
    26     5     6    2
    27     5     7    1
    28     7     8    1
    29     8     9    1
    30     9    10    1
    31    10    37    1
    32    37    38    1
    33    38    39   ar
    34    39    40   ar
    35    40    41   ar
    36    41    42   ar
    37    42    43   ar
    38    43    44    1
    39    10    11    1
    40    11    12    1
    41    15    16   ar
    42    16    17   ar
    43    17    18   ar
    44    18    13   ar
    45     7     1    1
    46    43    38   ar
    47    26    21   ar
    48    12     7    1
    49    32    27   ar
@<TRIPOS>MOLECULE
*****
 44 49 0 0 0
SMALL
GASTEIGER

@<TRIPOS>ATOM
      1 N           1.5377    1.8987   24.2825 N.am    1  UNL1       -0.2222
      2 C           1.6567    2.1541   25.7559 C.2     1  UNL1        0.3219
      3 O           1.0863    3.3273   26.4963 O.2     1  UNL1       -0.2512
      4 N           2.4463    1.0302   26.3588 N.am    1  UNL1       -0.1907
      5 C           2.8153    0.0803   25.2581 C.2     1  UNL1        0.2529
      6 O           3.6068   -1.1844   25.4133 O.2     1  UNL1       -0.2724
      7 C           2.2538    0.6171   23.9749 C.3     1  UNL1        0.1391
      8 C           1.6357    1.2736   22.7761 C.3     1  UNL1        0.0449
      9 C           1.7672    0.6399   21.4229 C.3     1  UNL1        0.0746
     10 N           2.5167   -0.6502   21.2685 N.3     1  UNL1       -0.2676
     11 C           3.1347   -1.3067   22.4672 C.3     1  UNL1        0.0746
     12 C           3.0032   -0.6731   23.8204 C.3     1  UNL1        0.0449
     13 C          -1.3355    3.4161   22.0040 C.ar    1  UNL1        0.2293
     14 C          -0.6253    2.5430   22.9956 C.ar    1  UNL1        0.0924
     15 C           0.8274    2.7718   23.2909 C.ar    1  UNL1        0.1453
     16 N           1.5699    3.8737   22.5948 N.ar    1  UNL1       -0.2084
     17 C           0.8597    4.7468   21.6032 C.ar    1  UNL1        0.2027
     18 N          -0.5931    4.5180   21.3078 N.ar    1  UNL1       -0.1892
     19 C          -3.2944    3.3020   20.3012 C.3     1  UNL1        0.2542
     20 O          -2.7882    3.1873   21.7085 O.3     1  UNL1       -0.4560
     21 C           2.8040    0.8822   27.8079 C.ar    1  UNL1        0.0622
     22 C           2.0306   -0.0632   28.6786 C.ar    1  UNL1        0.0154
     23 C           2.3884   -0.2112   30.1278 C.ar    1  UNL1        0.0014
     24 C           3.5195    0.5862   30.7063 C.ar    1  UNL1        0.0022
     25 C           4.2930    1.5316   29.8356 C.ar    1  UNL1        0.0014
     26 C           3.9351    1.6796   28.3864 C.ar    1  UNL1        0.0154
     27 C           3.8773    0.4382   32.1555 C.ar    1  UNL1        0.0275
     28 C           3.6762    1.5870   33.0988 C.ar    1  UNL1        0.0023
     29 C           4.0339    1.4390   34.5480 C.ar    1  UNL1        0.0013
     30 C           4.5928    0.1421   35.0538 C.ar    1  UNL1        0.0162
     31 C           4.7939   -1.0067   34.1105 C.ar    1  UNL1        0.0308
     32 C           4.4362   -0.8587   32.6614 C.ar    1  UNL1        0.1401
     33 F           4.6373   -2.0075   31.7181 F       1  UNL1       -0.2042
     34 C           4.9506   -0.0059   36.5030 C.2     1  UNL1        0.0729
     35 O           3.9935    0.4539   37.5625 O.co2   1  UNL1       -0.5446
     36 O           6.2655   -0.6137   36.8926 O.co2   1  UNL1       -0.5446
     37 C           2.6481   -1.2838   19.9152 C.3     1  UNL1        0.1183
     38 C           4.0071   -1.5125   19.3229 C.ar    1  UNL1        0.0712
     39 N           4.9463   -0.3584   19.1329 N.ar    1  UNL1       -0.2471
     40 C           6.3053   -0.5871   18.5406 C.ar    1  UNL1        0.0985
     41 C           6.7251   -1.9698   18.1383 C.ar    1  UNL1        0.0203
     42 C           5.7859   -3.1239   18.3283 C.ar    1  UNL1       -0.0015
     43 C           4.4269   -2.8952   18.9206 C.ar    1  UNL1       -0.0069
     44 C           3.4877   -4.0493   19.1105 C.3     1  UNL1        0.0323
@<TRIPOS>UNITY_ATOM_ATTR
35 1
charge -1
@<TRIPOS>BOND
     1    19    20    1
     2    20    13    1
     3    13    14   ar
     4    14    15   ar
     5    15     1    1
     6     1     2   am
     7     2     3    2
     8     2     4   am
     9     4    21    1
    10    21    22   ar
    11    22    23   ar
    12    23    24   ar
    13    24    27    1
    14    27    28   ar
    15    28    29   ar
    16    29    30   ar
    17    30    34    1
    18    34    35   ar
    19    34    36   ar
    20    30    31   ar
    21    31    32   ar
    22    32    33    1
    23    24    25   ar
    24    25    26   ar
    25     4     5   am
    26     5     6    2
    27     5     7    1
    28     7     8    1
    29     8     9    1
    30     9    10    1
    31    10    37    1
    32    37    38    1
    33    38    39   ar
    34    39    40   ar
    35    40    41   ar
    36    41    42   ar
    37    42    43   ar
    38    43    44    1
    39    10    11    1
    40    11    12    1
    41    15    16   ar
    42    16    17   ar
    43    17    18   ar
    44    18    13   ar
    45     7     1    1
    46    43    38   ar
    47    26    21   ar
    48    12     7    1
    49    32    27   ar
@<TRIPOS>MOLECULE
*****
 44 49 0 0 0
SMALL
GASTEIGER

@<TRIPOS>ATOM
      1 N           5.5374   -0.4924   32.6034 N.am    1  UNL1       -0.2222
      2 C           5.9819   -0.0373   33.9619 C.2     1  UNL1        0.3219
      3 O           7.2728   -0.3994   34.6344 O.2     1  UNL1       -0.2512
      4 N           4.9087    0.8436   34.5297 N.am    1  UNL1       -0.1907
      5 C           3.8010    0.9329   33.5223 C.2     1  UNL1        0.2529
      6 O           2.5282    1.7112   33.6779 O.2     1  UNL1       -0.2724
      7 C           4.1895    0.1071   32.3317 C.3     1  UNL1        0.1391
      8 C           4.7108   -0.7519   31.2181 C.3     1  UNL1        0.0449
      9 C           3.8948   -0.9442   29.9743 C.3     1  UNL1        0.0746
     10 N           2.5574   -0.2775   29.8442 N.3     1  UNL1       -0.2676
     11 C           2.0361    0.5815   30.9578 C.3     1  UNL1        0.0746
     12 C           2.8521    0.7738   32.2016 C.3     1  UNL1        0.0449
     13 C           6.9522   -3.7764   30.8820 C.ar    1  UNL1        0.2293
     14 C           6.1837   -2.8792   31.8064 C.ar    1  UNL1        0.0924
     15 C           6.3058   -1.3897   31.6791 C.ar    1  UNL1        0.1453
     16 N           7.1963   -0.7973   30.6273 N.ar    1  UNL1       -0.2084
     17 C           7.9647   -1.6944   29.7030 C.ar    1  UNL1        0.2027
     18 N           7.8427   -3.1841   29.8303 N.ar    1  UNL1       -0.1892
     19 C           7.9132   -6.1556   30.4746 C.3     1  UNL1        0.2542
     20 O           6.8302   -5.2660   31.0093 O.3     1  UNL1       -0.4560
     21 C           4.9381    1.5170   35.8697 C.ar    1  UNL1        0.0622
     22 C           5.6415    2.8317   36.0331 C.ar    1  UNL1        0.0154
     23 C           5.6710    3.5051   37.3732 C.ar    1  UNL1        0.0014
     24 C           4.9969    2.8638   38.5498 C.ar    1  UNL1        0.0022
     25 C           4.2934    1.5490   38.3864 C.ar    1  UNL1        0.0014
     26 C           4.2641    0.8757   37.0463 C.ar    1  UNL1        0.0154
     27 C           5.0263    3.5372   39.8898 C.ar    1  UNL1        0.0275
     28 C           3.8845    4.4123   40.3147 C.ar    1  UNL1        0.0023
     29 C           3.9139    5.0857   41.6547 C.ar    1  UNL1        0.0013
     30 C           5.0852    4.8839   42.5698 C.ar    1  UNL1        0.0162
     31 C           6.2270    4.0089   42.1450 C.ar    1  UNL1        0.0308
     32 C           6.1976    3.3355   40.8050 C.ar    1  UNL1        0.1401
     33 F           7.3394    2.4604   40.3802 F       1  UNL1       -0.2042
     34 C           5.1146    5.5573   43.9099 C.2     1  UNL1        0.0729
     35 O           5.4143    4.7591   45.1440 O.co2   1  UNL1       -0.5446
     36 O           4.8443    7.0290   44.0158 O.co2   1  UNL1       -0.5446
     37 C           1.7414   -0.4699   28.6003 C.3     1  UNL1        0.1183
     38 C           0.9399    0.6700   28.0454 C.ar    1  UNL1        0.0712
     39 N           1.6365    1.8445   27.4245 N.ar    1  UNL1       -0.2471
     40 C           0.8349    2.9845   26.8696 C.ar    1  UNL1        0.0985
     41 C          -0.6632    2.9500   26.9355 C.ar    1  UNL1        0.0203
     42 C          -1.3598    1.7756   27.5563 C.ar    1  UNL1       -0.0015
     43 C          -0.5583    0.6356   28.1112 C.ar    1  UNL1       -0.0069
     44 C          -1.2550   -0.5388   28.7320 C.3     1  UNL1        0.0323
@<TRIPOS>UNITY_ATOM_ATTR
35 1
charge -1
@<TRIPOS>BOND
     1    19    20    1
     2    20    13    1
     3    13    14   ar
     4    14    15   ar
     5    15     1    1
     6     1     2   am
     7     2     3    2
     8     2     4   am
     9     4    21    1
    10    21    22   ar
    11    22    23   ar
    12    23    24   ar
    13    24    27    1
    14    27    28   ar
    15    28    29   ar
    16    29    30   ar
    17    30    34    1
    18    34    35   ar
    19    34    36   ar
    20    30    31   ar
    21    31    32   ar
    22    32    33    1
    23    24    25   ar
    24    25    26   ar
    25     4     5   am
    26     5     6    2
    27     5     7    1
    28     7     8    1
    29     8     9    1
    30     9    10    1
    31    10    37    1
    32    37    38    1
    33    38    39   ar
    34    39    40   ar
    35    40    41   ar
    36    41    42   ar
    37    42    43   ar
    38    43    44    1
    39    10    11    1
    40    11    12    1
    41    15    16   ar
    42    16    17   ar
    43    17    18   ar
    44    18    13   ar
    45     7     1    1
    46    43    38   ar
    47    26    21   ar
    48    12     7    1
    49    32    27   ar
@<TRIPOS>MOLECULE
*****
 44 49 0 0 0
SMALL
GASTEIGER

@<TRIPOS>ATOM
      1 N           6.0198   -2.0223   26.2100 N.am    1  UNL1       -0.2222
      2 C           6.1673   -1.8256   27.6898 C.2     1  UNL1        0.3219
      3 O           7.2891   -2.3431   28.5406 O.2     1  UNL1       -0.2512
      4 N           4.9959   -1.0206   28.1695 N.am    1  UNL1       -0.1907
      5 C           4.1246   -0.7198   26.9862 C.2     1  UNL1        0.2529
      6 O           2.8451    0.0627   27.0096 O.2     1  UNL1       -0.2724
      7 C           4.7573   -1.3389   25.7751 C.3     1  UNL1        0.1391
      8 C           5.5039   -2.0086   24.6598 C.3     1  UNL1        0.0449
      9 C           4.9683   -1.9538   23.2598 C.3     1  UNL1        0.0746
     10 N           3.6860   -1.2293   22.9752 N.3     1  UNL1       -0.2676
     11 C           2.9395   -0.5596   24.0905 C.3     1  UNL1        0.0746
     12 C           3.4751   -0.6144   25.4905 C.3     1  UNL1        0.0449
     13 C           7.7565   -4.9988   24.2417 C.ar    1  UNL1        0.2293
     14 C           6.8081   -4.2501   25.1305 C.ar    1  UNL1        0.0924
     15 C           6.9683   -2.7709   25.3213 C.ar    1  UNL1        0.1453
     16 N           8.0769   -2.0404   24.6233 N.ar    1  UNL1       -0.2084
     17 C           9.0254   -2.7890   23.7345 C.ar    1  UNL1        0.2027
     18 N           8.8652   -4.2682   23.5437 N.ar    1  UNL1       -0.1892
     19 C           8.6942   -7.2746   23.4106 C.3     1  UNL1        0.2542
     20 O           7.5964   -6.4779   24.0509 O.3     1  UNL1       -0.4560
     21 C           4.7408   -0.5918   29.5839 C.ar    1  UNL1        0.0622
     22 C           3.4235   -0.8958   30.2338 C.ar    1  UNL1        0.0154
     23 C           3.1684   -0.4669   31.6484 C.ar    1  UNL1        0.0014
     24 C           4.2305    0.2659   32.4131 C.ar    1  UNL1        0.0022
     25 C           5.5479    0.5699   31.7633 C.ar    1  UNL1        0.0014
     26 C           5.8030    0.1410   30.3487 C.ar    1  UNL1        0.0154
     27 C           3.9754    0.6948   33.8277 C.ar    1  UNL1        0.0275
     28 C           3.0530    1.8439   34.1082 C.ar    1  UNL1        0.0023
     29 C           2.7979    2.2728   35.5228 C.ar    1  UNL1        0.0013
     30 C           3.4652    1.5524   36.6568 C.ar    1  UNL1        0.0162
     31 C           4.3875    0.4033   36.3762 C.ar    1  UNL1        0.0308
     32 C           4.6427   -0.0256   34.9617 C.ar    1  UNL1        0.1401
     33 F           5.5650   -1.1747   34.6812 F       1  UNL1       -0.2042
     34 C           3.2100    1.9812   38.0714 C.2     1  UNL1        0.0729
     35 O           3.5679    1.0697   39.2076 O.co2   1  UNL1       -0.5446
     36 O           2.5970    3.3218   38.3497 O.co2   1  UNL1       -0.5446
     37 C           3.1504   -1.1746   21.5751 C.3     1  UNL1        0.1183
     38 C           3.9401   -1.7678   20.4462 C.ar    1  UNL1        0.0712
     39 N           3.7563   -3.2106   20.0792 N.ar    1  UNL1       -0.2471
     40 C           4.5461   -3.8038   18.9503 C.ar    1  UNL1        0.0985
     41 C           5.5196   -2.9543   18.1884 C.ar    1  UNL1        0.0203
     42 C           5.7034   -1.5115   18.5554 C.ar    1  UNL1       -0.0015
     43 C           4.9137   -0.9183   19.6842 C.ar    1  UNL1       -0.0069
     44 C           5.0975    0.5245   20.0512 C.3     1  UNL1        0.0323
@<TRIPOS>UNITY_ATOM_ATTR
35 1
charge -1
@<TRIPOS>BOND
     1    19    20    1
     2    20    13    1
     3    13    14   ar
     4    14    15   ar
     5    15     1    1
     6     1     2   am
     7     2     3    2
     8     2     4   am
     9     4    21    1
    10    21    22   ar
    11    22    23   ar
    12    23    24   ar
    13    24    27    1
    14    27    28   ar
    15    28    29   ar
    16    29    30   ar
    17    30    34    1
    18    34    35   ar
    19    34    36   ar
    20    30    31   ar
    21    31    32   ar
    22    32    33    1
    23    24    25   ar
    24    25    26   ar
    25     4     5   am
    26     5     6    2
    27     5     7    1
    28     7     8    1
    29     8     9    1
    30     9    10    1
    31    10    37    1
    32    37    38    1
    33    38    39   ar
    34    39    40   ar
    35    40    41   ar
    36    41    42   ar
    37    42    43   ar
    38    43    44    1
    39    10    11    1
    40    11    12    1
    41    15    16   ar
    42    16    17   ar
    43    17    18   ar
    44    18    13   ar
    45     7     1    1
    46    43    38   ar
    47    26    21   ar
    48    12     7    1
    49    32    27   ar
@<TRIPOS>MOLECULE
*****
 44 49 0 0 0
SMALL
GASTEIGER

@<TRIPOS>ATOM
      1 N           3.4819   -0.1043   30.5908 N.am    1  UNL1       -0.2222
      2 C           2.2237    0.6747   30.3454 C.2     1  UNL1        0.3219
      3 O           1.3520    1.2957   31.3964 O.2     1  UNL1       -0.2512
      4 N           1.9902    0.7237   28.8644 N.am    1  UNL1       -0.1907
      5 C           3.1041   -0.0250   28.1946 C.2     1  UNL1        0.2529
      6 O           3.2675   -0.2267   26.7173 O.2     1  UNL1       -0.2724
      7 C           4.0260   -0.5368   29.2616 C.3     1  UNL1        0.1391
      8 C           4.8517   -0.9807   30.4325 C.3     1  UNL1        0.0449
      9 C           6.0988   -1.7838   30.2093 C.3     1  UNL1        0.0746
     10 N           6.5201   -2.1430   28.8152 N.3     1  UNL1       -0.2676
     11 C           5.6944   -1.6991   27.6443 C.3     1  UNL1        0.0746
     12 C           4.4474   -0.8959   27.8675 C.3     1  UNL1        0.0449
     13 C           5.6352    0.2916   33.9008 C.ar    1  UNL1        0.2293
     14 C           5.0278    0.5863   32.5614 C.ar    1  UNL1        0.0924
     15 C           4.0893   -0.3990   31.9303 C.ar    1  UNL1        0.1453
     16 N           3.7582   -1.6791   32.6387 N.ar    1  UNL1       -0.2084
     17 C           4.3655   -1.9739   33.9781 C.ar    1  UNL1        0.2027
     18 N           5.3041   -0.9885   34.6092 N.ar    1  UNL1       -0.1892
     19 C           7.5580    0.8181   35.5667 C.3     1  UNL1        0.2542
     20 O           6.5737    1.2769   34.5320 O.3     1  UNL1       -0.4560
     21 C           0.8442    1.4021   28.1745 C.ar    1  UNL1        0.0622
     22 C           1.0936    2.6019   27.3095 C.ar    1  UNL1        0.0154
     23 C          -0.0526    3.2804   26.6196 C.ar    1  UNL1        0.0014
     24 C          -1.4481    2.7592   26.7946 C.ar    1  UNL1        0.0022
     25 C          -1.6976    1.5594   27.6597 C.ar    1  UNL1        0.0014
     26 C          -0.5514    0.8809   28.3496 C.ar    1  UNL1        0.0154
     27 C          -2.5943    3.4377   26.1047 C.ar    1  UNL1        0.0275
     28 C          -3.7371    3.9829   26.9088 C.ar    1  UNL1        0.0023
     29 C          -4.8833    4.6614   26.2189 C.ar    1  UNL1        0.0013
     30 C          -4.8864    4.7947   24.7248 C.ar    1  UNL1        0.0162
     31 C          -3.7436    4.2495   23.9207 C.ar    1  UNL1        0.0308
     32 C          -2.5975    3.5710   24.6106 C.ar    1  UNL1        0.1401
     33 F          -1.4546    3.0258   23.8065 F       1  UNL1       -0.2042
     34 C          -6.0326    5.4732   24.0348 C.2     1  UNL1        0.0729
     35 O          -7.3444    4.7618   23.8839 O.co2   1  UNL1       -0.5446
     36 O          -5.8668    6.8633   23.4958 O.co2   1  UNL1       -0.5446
     37 C           7.7672   -2.9462   28.5921 C.3     1  UNL1        0.1183
     38 C           7.7557   -4.0977   27.6310 C.ar    1  UNL1        0.0712
     39 N           8.1977   -3.8948   26.2120 N.ar    1  UNL1       -0.2471
     40 C           8.1862   -5.0465   25.2509 C.ar    1  UNL1        0.0985
     41 C           7.7328   -6.4009   25.7088 C.ar    1  UNL1        0.0203
     42 C           7.2908   -6.6039   27.1278 C.ar    1  UNL1       -0.0015
     43 C           7.3023   -5.4523   28.0889 C.ar    1  UNL1       -0.0069
     44 C           6.8604   -5.6553   29.5079 C.3     1  UNL1        0.0323
@<TRIPOS>UNITY_ATOM_ATTR
35 1
charge -1
@<TRIPOS>BOND
     1    19    20    1
     2    20    13    1
     3    13    14   ar
     4    14    15   ar
     5    15     1    1
     6     1     2   am
     7     2     3    2
     8     2     4   am
     9     4    21    1
    10    21    22   ar
    11    22    23   ar
    12    23    24   ar
    13    24    27    1
    14    27    28   ar
    15    28    29   ar
    16    29    30   ar
    17    30    34    1
    18    34    35   ar
    19    34    36   ar
    20    30    31   ar
    21    31    32   ar
    22    32    33    1
    23    24    25   ar
    24    25    26   ar
    25     4     5   am
    26     5     6    2
    27     5     7    1
    28     7     8    1
    29     8     9    1
    30     9    10    1
    31    10    37    1
    32    37    38    1
    33    38    39   ar
    34    39    40   ar
    35    40    41   ar
    36    41    42   ar
    37    42    43   ar
    38    43    44    1
    39    10    11    1
    40    11    12    1
    41    15    16   ar
    42    16    17   ar
    43    17    18   ar
    44    18    13   ar
    45     7     1    1
    46    43    38   ar
    47    26    21   ar
    48    12     7    1
    49    32    27   ar
