@<TRIPOS>MOLECULE
*****
 42 47 0 0 0
SMALL
GASTEIGER

@<TRIPOS>ATOM
      1 C           8.1875   -5.7847   25.3487 C.ar    1  UNL1        0.2400
      2 N           8.8087   -6.2269   26.6404 N.ar    1  UNL1       -0.2090
      3 C           8.3666   -5.6111   27.9348 C.ar    1  UNL1        0.1036
      4 C           7.3278   -4.5294   28.2922 C.ar    1  UNL1        0.0383
      5 C           7.4106   -4.8117   26.8214 C.ar    1  UNL1        0.0236
      6 C           7.1241   -4.7267   25.3515 C.ar    1  UNL1        0.1179
      7 N           6.5028   -4.2844   24.0597 N.pl3   1  UNL1       -0.2104
      8 S           5.6217   -3.5384   23.1021 S.O2    1  UNL1        0.0759
      9 O           5.4567   -3.5770   21.6117 O.2     1  UNL1       -0.1499
     10 O           6.5256   -4.5288   22.4296 O.2     1  UNL1       -0.1499
     11 C           4.5871   -2.5785   22.5940 C.ar    1  UNL1        0.1527
     12 C           3.5238   -1.5206   22.5966 C.ar    1  UNL1        0.0293
     13 C           2.5600   -0.4921   23.1098 C.ar    1  UNL1        0.0822
     14 C           2.5180   -0.6587   21.5777 C.ar    1  UNL1        0.1468
     15 F           1.4834    0.3012   21.0695 F       1  UNL1       -0.2039
     16 C           3.2660   -1.5336   20.6158 C.ar    1  UNL1        0.0608
     17 C           4.3006   -2.4935   21.1240 C.ar    1  UNL1        0.1611
     18 F           5.0487   -3.3683   20.1622 F       1  UNL1       -0.2027
     19 C           1.8119    0.3827   24.0716 C.2     1  UNL1        0.2483
     20 O           0.9308    1.1287   23.1139 O.2     1  UNL1       -0.2701
     21 N           1.3698    0.9984   25.3659 N.am    1  UNL1       -0.2968
     22 C           1.2870    1.2808   26.8368 C.3     1  UNL1        0.1181
     23 C           1.5735    1.1958   28.3067 C.ar    1  UNL1        0.0166
     24 C           0.8255    2.0706   29.2685 C.ar    1  UNL1        0.0962
     25 N           1.1120    1.9855   30.7384 N.ar    1  UNL1       -0.2426
     26 C           2.1466    1.0256   31.2465 C.ar    1  UNL1        0.0989
     27 C           2.8947    0.1508   30.2848 C.ar    1  UNL1        0.0205
     28 C           2.6081    0.2359   28.8149 C.ar    1  UNL1        0.0005
     29 C           4.1104   -0.9524   31.0642 C.ar    1  UNL1        0.0222
     30 C           3.6683   -0.3366   32.3586 C.ar    1  UNL1        0.0222
     31 C           4.2896   -0.7789   33.6503 C.ar    1  UNL1        0.0989
     32 N           5.3529   -1.8368   33.6476 N.ar    1  UNL1       -0.2423
     33 C           5.7951   -2.4526   32.3532 C.ar    1  UNL1        0.0989
     34 C           6.9656   -3.6418   32.1692 C.ar    1  UNL1        0.0222
     35 C           7.4594   -4.3033   30.9167 C.ar    1  UNL1        0.0207
     36 C           6.8857   -3.9136   29.5866 C.ar    1  UNL1        0.0829
     37 N           6.1376   -3.0388   30.5484 N.ar    1  UNL1       -0.2438
     38 C           5.1738   -2.0103   31.0615 C.ar    1  UNL1        0.0989
     39 H           6.9938   -4.8586   23.4285 H       1  UNL1        0.1739
     40 H           0.6907    1.6285   25.0324 H       1  UNL1        0.1501
     41 C           9.4681   -7.6441   24.0633 C.3     1  UNL1        0.2543
     42 O           8.6295   -6.4004   24.0543 O.3     1  UNL1       -0.4553
@<TRIPOS>BOND
     1    41    42    1
     2    42     1    1
     3     1     2   ar
     4     2     3   ar
     5     3     4   ar
     6     4     5   ar
     7     5     6   ar
     8     6     7    1
     9     7     8    1
    10     8     9    2
    11     8    10    2
    12     8    11    1
    13    11    12   ar
    14    12    13   ar
    15    13    14   ar
    16    14    15    1
    17    14    16   ar
    18    16    17   ar
    19    17    18    1
    20    13    19    1
    21    19    20    2
    22    19    21   am
    23    21    22    1
    24    22    23    1
    25    23    24   ar
    26    24    25   ar
    27    25    26   ar
    28    26    27   ar
    29    27    28   ar
    30    27    29    1
    31    29    30   ar
    32    30    31   ar
    33    31    32   ar
    34    32    33   ar
    35    33    34   ar
    36    34    35   ar
    37    35    36   ar
    38    36    37   ar
    39    37    38   ar
    40     6     1   ar
    41    17    11   ar
    42    28    23   ar
    43    38    29   ar
    44    36     4    1
    45    38    33   ar
    46     7    39    1
    47    21    40    1
@<TRIPOS>MOLECULE
*****
 42 47 0 0 0
SMALL
GASTEIGER

@<TRIPOS>ATOM
      1 C           7.5619   -5.1707   24.6531 C.ar    1  UNL1        0.2400
      2 N           7.2890   -5.0394   23.1841 N.ar    1  UNL1       -0.2090
      3 C           6.2632   -4.0596   22.6964 C.ar    1  UNL1        0.1036
      4 C           5.3323   -3.0586   23.4093 C.ar    1  UNL1        0.0383
      5 C           6.2013   -3.8377   24.3515 C.ar    1  UNL1        0.0236
      6 C           6.8089   -4.3220   25.6345 C.ar    1  UNL1        0.1179
      7 N           7.0818   -4.4533   27.1037 N.pl3   1  UNL1       -0.2104
      8 S           6.9870   -4.2156   28.5817 S.O2    1  UNL1        0.0759
      9 O           7.6918   -4.8067   29.7666 O.2     1  UNL1       -0.1499
     10 O           7.9963   -5.2618   28.2117 O.2     1  UNL1       -0.1499
     11 C           6.5360   -3.6376   29.8903 C.ar    1  UNL1        0.1527
     12 C           5.7832   -2.7890   30.8717 C.ar    1  UNL1        0.0293
     13 C           4.8193   -1.7722   31.4075 C.ar    1  UNL1        0.0822
     14 C           5.6339   -2.4816   32.5075 C.ar    1  UNL1        0.1468
     15 F           5.1829   -1.9036   33.8162 F       1  UNL1       -0.2039
     16 C           6.6926   -3.5440   32.4820 C.ar    1  UNL1        0.0608
     17 C           7.1436   -4.1220   31.1734 C.ar    1  UNL1        0.1611
     18 F           8.2023   -5.1843   31.1478 F       1  UNL1       -0.2027
     19 C           3.7606   -0.7099   31.4331 C.2     1  UNL1        0.2483
     20 O           3.6658   -0.4722   32.9111 O.2     1  UNL1       -0.2701
     21 N           2.7349    0.2699   30.9454 N.am    1  UNL1       -0.2968
     22 C           1.8659    1.0490   30.0032 C.3     1  UNL1        0.1181
     23 C           1.2582    1.5334   28.7201 C.ar    1  UNL1        0.0166
     24 C           0.1996    2.5957   28.7457 C.ar    1  UNL1        0.0962
     25 N          -0.4080    3.0801   27.4627 N.ar    1  UNL1       -0.2426
     26 C           0.0430    2.5021   26.1541 C.ar    1  UNL1        0.0989
     27 C           1.1016    1.4397   26.1285 C.ar    1  UNL1        0.0205
     28 C           1.7092    0.9554   27.4115 C.ar    1  UNL1        0.0005
     29 C           1.5312    0.8489   24.4644 C.ar    1  UNL1        0.0222
     30 C           0.5054    1.8287   23.9767 C.ar    1  UNL1        0.0222
     31 C           0.2326    1.9600   22.5075 C.ar    1  UNL1        0.0989
     32 N           0.9855    1.1114   21.5262 N.ar    1  UNL1       -0.2423
     33 C           2.0112    0.1316   22.0139 C.ar    1  UNL1        0.0989
     34 C           2.9397   -0.8903   21.0590 C.ar    1  UNL1        0.0222
     35 C           3.9789   -1.8910   21.4699 C.ar    1  UNL1        0.0207
     36 C           4.3066   -2.0788   22.9216 C.ar    1  UNL1        0.0829
     37 N           3.2479   -1.0164   22.9472 N.ar    1  UNL1       -0.2438
     38 C           2.2840    0.0003   23.4830 C.ar    1  UNL1        0.0989
     39 H           7.7766   -5.1505   27.0869 H       1  UNL1        0.1739
     40 H           2.4389    0.6493   31.8043 H       1  UNL1        0.1501
     41 C           8.2136   -7.5888   25.3442 C.3     1  UNL1        0.2543
     42 O           8.5875   -6.1504   25.1409 O.3     1  UNL1       -0.4553
@<TRIPOS>BOND
     1    41    42    1
     2    42     1    1
     3     1     2   ar
     4     2     3   ar
     5     3     4   ar
     6     4     5   ar
     7     5     6   ar
     8     6     7    1
     9     7     8    1
    10     8     9    2
    11     8    10    2
    12     8    11    1
    13    11    12   ar
    14    12    13   ar
    15    13    14   ar
    16    14    15    1
    17    14    16   ar
    18    16    17   ar
    19    17    18    1
    20    13    19    1
    21    19    20    2
    22    19    21   am
    23    21    22    1
    24    22    23    1
    25    23    24   ar
    26    24    25   ar
    27    25    26   ar
    28    26    27   ar
    29    27    28   ar
    30    27    29    1
    31    29    30   ar
    32    30    31   ar
    33    31    32   ar
    34    32    33   ar
    35    33    34   ar
    36    34    35   ar
    37    35    36   ar
    38    36    37   ar
    39    37    38   ar
    40     6     1   ar
    41    17    11   ar
    42    28    23   ar
    43    38    29   ar
    44    36     4    1
    45    38    33   ar
    46     7    39    1
    47    21    40    1
@<TRIPOS>MOLECULE
*****
 42 47 0 0 0
SMALL
GASTEIGER

@<TRIPOS>ATOM
      1 C           0.6642    1.6556   30.0208 C.ar    1  UNL1        0.2400
      2 N          -0.1520    2.3624   28.9796 N.ar    1  UNL1       -0.2090
      3 C           0.0944    2.0948   27.5244 C.ar    1  UNL1        0.1036
      4 C           1.0788    1.1807   26.7679 C.ar    1  UNL1        0.0383
      5 C           1.2184    1.1002   28.2592 C.ar    1  UNL1        0.0236
      6 C           1.7269    0.6813   29.6067 C.ar    1  UNL1        0.1179
      7 N           2.5433   -0.0256   30.6480 N.pl3   1  UNL1       -0.2104
      8 S           3.5688   -0.9349   31.2572 S.O2    1  UNL1        0.0759
      9 O           3.9590   -1.2447   32.6721 O.2     1  UNL1       -0.1499
     10 O           2.7668   -0.1780   32.2741 O.2     1  UNL1       -0.1499
     11 C           4.6799   -1.9373   31.3612 C.ar    1  UNL1        0.1527
     12 C           5.7425   -2.9116   30.9472 C.ar    1  UNL1        0.0293
     13 C           6.6286   -3.7404   30.0651 C.ar    1  UNL1        0.0822
     14 C           6.9021   -3.9419   31.5690 C.ar    1  UNL1        0.1468
     15 F           8.0132   -4.9442   31.6729 F       1  UNL1       -0.2039
     16 C           6.2995   -3.3585   32.8127 C.ar    1  UNL1        0.0608
     17 C           5.1884   -2.3562   32.7088 C.ar    1  UNL1        0.1611
     18 F           4.5859   -1.7728   33.9523 F       1  UNL1       -0.2027
     19 C           7.2311   -4.3238   28.8215 C.2     1  UNL1        0.2483
     20 O           8.2566   -5.2332   29.4308 O.2     1  UNL1       -0.2701
     21 N           7.4775   -4.5914   27.3663 N.am    1  UNL1       -0.2968
     22 C           7.3380   -4.5109   25.8750 C.3     1  UNL1        0.1181
     23 C           6.8294   -4.0919   24.5274 C.ar    1  UNL1        0.0166
     24 C           7.4319   -4.6753   23.2838 C.ar    1  UNL1        0.0962
     25 N           6.9234   -4.2564   21.9363 N.ar    1  UNL1       -0.2426
     26 C           5.8122   -3.2541   21.8324 C.ar    1  UNL1        0.0989
     27 C           5.2097   -2.6707   23.0760 C.ar    1  UNL1        0.0205
     28 C           5.7183   -3.0896   24.4235 C.ar    1  UNL1        0.0005
     29 C           3.8765   -1.4734   22.7730 C.ar    1  UNL1        0.0222
     30 C           4.1229   -1.7410   21.3178 C.ar    1  UNL1        0.0222
     31 C           3.3065   -1.0342   20.2765 C.ar    1  UNL1        0.0989
     32 N           2.2439   -0.0599   20.6906 N.ar    1  UNL1       -0.2423
     33 C           1.9975    0.2077   22.1458 C.ar    1  UNL1        0.0989
     34 C           0.8551    1.2610   22.7812 C.ar    1  UNL1        0.0222
     35 C           0.5507    1.5804   24.2149 C.ar    1  UNL1        0.0207
     36 C           1.3252    0.9132   25.3127 C.ar    1  UNL1        0.0829
     37 N           1.9278    0.3298   24.0690 N.ar    1  UNL1       -0.2438
     38 C           2.8138   -0.4991   23.1871 C.ar    1  UNL1        0.0989
     39 H           2.1478    0.3573   31.4642 H       1  UNL1        0.1739
     40 H           8.2067   -5.2493   27.4345 H       1  UNL1        0.1501
     41 C           1.1599    3.0256   32.1719 C.3     1  UNL1        0.2543
     42 O           0.4179    1.9232   31.4760 O.3     1  UNL1       -0.4553
@<TRIPOS>BOND
     1    41    42    1
     2    42     1    1
     3     1     2   ar
     4     2     3   ar
     5     3     4   ar
     6     4     5   ar
     7     5     6   ar
     8     6     7    1
     9     7     8    1
    10     8     9    2
    11     8    10    2
    12     8    11    1
    13    11    12   ar
    14    12    13   ar
    15    13    14   ar
    16    14    15    1
    17    14    16   ar
    18    16    17   ar
    19    17    18    1
    20    13    19    1
    21    19    20    2
    22    19    21   am
    23    21    22    1
    24    22    23    1
    25    23    24   ar
    26    24    25   ar
    27    25    26   ar
    28    26    27   ar
    29    27    28   ar
    30    27    29    1
    31    29    30   ar
    32    30    31   ar
    33    31    32   ar
    34    32    33   ar
    35    33    34   ar
    36    34    35   ar
    37    35    36   ar
    38    36    37   ar
    39    37    38   ar
    40     6     1   ar
    41    17    11   ar
    42    28    23   ar
    43    38    29   ar
    44    36     4    1
    45    38    33   ar
    46     7    39    1
    47    21    40    1
@<TRIPOS>MOLECULE
*****
 42 47 0 0 0
SMALL
GASTEIGER

@<TRIPOS>ATOM
      1 C           4.3231   -0.7636   33.0595 C.ar    1  UNL1        0.2400
      2 N           3.3429    0.3621   33.2074 N.ar    1  UNL1       -0.2090
      3 C           2.6758    0.9400   31.9945 C.ar    1  UNL1        0.1036
      4 C           2.7630    0.6258   30.4877 C.ar    1  UNL1        0.0383
      5 C           3.6452   -0.2477   31.3294 C.ar    1  UNL1        0.0236
      6 C           4.6362   -1.3115   31.6986 C.ar    1  UNL1        0.1179
      7 N           5.6164   -2.4372   31.5507 N.pl3   1  UNL1       -0.2104
      8 S           6.4676   -3.4891   30.9034 S.O2    1  UNL1        0.0759
      9 O           7.4353   -4.5029   31.4382 O.2     1  UNL1       -0.1499
     10 O           6.6146   -3.4410   32.3955 O.2     1  UNL1       -0.1499
     11 C           7.0871   -4.3404   29.8350 C.ar    1  UNL1        0.1527
     12 C           7.4003   -4.8882   28.4742 C.ar    1  UNL1        0.0293
     13 C           7.3692   -5.0667   26.9852 C.ar    1  UNL1        0.0822
     14 C           8.3262   -6.0428   27.6981 C.ar    1  UNL1        0.1468
     15 F           8.9457   -6.8941   26.6297 F       1  UNL1       -0.2039
     16 C           8.6977   -6.2554   29.1358 C.ar    1  UNL1        0.0608
     17 C           8.0782   -5.4042   30.2042 C.ar    1  UNL1        0.1611
     18 F           8.4496   -5.6167   31.6419 F       1  UNL1       -0.2027
     19 C           6.9978   -4.8541   25.5476 C.2     1  UNL1        0.2483
     20 O           7.8490   -5.9060   24.9003 O.2     1  UNL1       -0.2701
     21 N           6.3307   -4.2763   24.3347 N.am    1  UNL1       -0.2968
     22 C           5.4485   -3.4028   23.4929 C.3     1  UNL1        0.1181
     23 C           4.4575   -2.3389   23.1236 C.ar    1  UNL1        0.0166
     24 C           4.0860   -2.1264   21.6860 C.ar    1  UNL1        0.0962
     25 N           3.0951   -1.0627   21.3168 N.ar    1  UNL1       -0.2426
     26 C           2.4755   -0.2114   22.3853 C.ar    1  UNL1        0.0989
     27 C           2.8470   -0.4239   23.8229 C.ar    1  UNL1        0.0205
     28 C           3.8379   -1.4877   24.1921 C.ar    1  UNL1        0.0005
     29 C           2.0065    0.6900   24.9873 C.ar    1  UNL1        0.0222
     30 C           1.3395    1.2678   23.7744 C.ar    1  UNL1        0.0222
     31 C           0.3592    2.3936   23.9223 C.ar    1  UNL1        0.0989
     32 N           0.0461    2.9414   25.2831 N.ar    1  UNL1       -0.2423
     33 C           0.7132    2.3635   26.4960 C.ar    1  UNL1        0.0989
     34 C           0.4802    2.8538   28.0846 C.ar    1  UNL1        0.0222
     35 C           1.1061    2.3288   29.3426 C.ar    1  UNL1        0.0207
     36 C           2.0959    1.2037   29.2748 C.ar    1  UNL1        0.0829
     37 N           1.7244    1.4163   27.8371 N.ar    1  UNL1       -0.2438
     38 C           1.6934    1.2378   26.3481 C.ar    1  UNL1        0.0989
     39 H           5.8602   -2.5767   32.4942 H       1  UNL1        0.1739
     40 H           6.7373   -4.8350   23.6334 H       1  UNL1        0.1501
     41 C           5.0536   -0.5474   35.5433 C.3     1  UNL1        0.2543
     42 O           4.9902   -1.3415   34.2723 O.3     1  UNL1       -0.4553
@<TRIPOS>BOND
     1    41    42    1
     2    42     1    1
     3     1     2   ar
     4     2     3   ar
     5     3     4   ar
     6     4     5   ar
     7     5     6   ar
     8     6     7    1
     9     7     8    1
    10     8     9    2
    11     8    10    2
    12     8    11    1
    13    11    12   ar
    14    12    13   ar
    15    13    14   ar
    16    14    15    1
    17    14    16   ar
    18    16    17   ar
    19    17    18    1
    20    13    19    1
    21    19    20    2
    22    19    21   am
    23    21    22    1
    24    22    23    1
    25    23    24   ar
    26    24    25   ar
    27    25    26   ar
    28    26    27   ar
    29    27    28   ar
    30    27    29    1
    31    29    30   ar
    32    30    31   ar
    33    31    32   ar
    34    32    33   ar
    35    33    34   ar
    36    34    35   ar
    37    35    36   ar
    38    36    37   ar
    39    37    38   ar
    40     6     1   ar
    41    17    11   ar
    42    28    23   ar
    43    38    29   ar
    44    36     4    1
    45    38    33   ar
    46     7    39    1
    47    21    40    1
@<TRIPOS>MOLECULE
*****
 42 47 0 0 0
SMALL
GASTEIGER

@<TRIPOS>ATOM
      1 C           7.4673   -3.9253   26.0612 C.ar    1  UNL1        0.2400
      2 N           8.2043   -4.5038   24.8898 N.ar    1  UNL1       -0.2090
      3 C           7.7923   -4.1449   23.4929 C.ar    1  UNL1        0.1036
      4 C           6.6878   -3.2377   22.9150 C.ar    1  UNL1        0.0383
      5 C           6.7025   -3.2756   24.4144 C.ar    1  UNL1        0.0236
      6 C           6.3181   -2.9879   25.8355 C.ar    1  UNL1        0.1179
      7 N           5.5810   -2.4094   27.0069 N.pl3   1  UNL1       -0.2104
      8 S           4.5801   -1.6099   27.7871 S.O2    1  UNL1        0.0759
      9 O           4.3259   -1.4289   29.2544 O.2     1  UNL1       -0.1499
     10 O           5.5227   -2.3907   28.6542 O.2     1  UNL1       -0.1499
     11 C           3.4361   -0.6857   28.0823 C.ar    1  UNL1        0.1527
     12 C           2.2870    0.2516   27.8567 C.ar    1  UNL1        0.0293
     13 C           1.2713    1.0891   27.1375 C.ar    1  UNL1        0.0822
     14 C           1.1480    1.1627   28.6725 C.ar    1  UNL1        0.1468
     15 F           0.0040    2.0868   28.9677 F       1  UNL1       -0.2039
     16 C           1.9077    0.5261   29.7986 C.ar    1  UNL1        0.0608
     17 C           3.0517   -0.3981   29.5034 C.ar    1  UNL1        0.1611
     18 F           3.8113   -1.0346   30.6293 F       1  UNL1       -0.2027
     19 C           0.5117    1.7256   26.0116 C.2     1  UNL1        0.2483
     20 O          -0.4892    2.5252   26.7918 O.2     1  UNL1       -0.2701
     21 N           0.0997    2.0845   24.6147 N.am    1  UNL1       -0.2968
     22 C           0.0850    2.1224   23.1152 C.3     1  UNL1        0.1181
     23 C           0.4694    1.8348   21.6941 C.ar    1  UNL1        0.0166
     24 C          -0.2902    2.4713   20.5681 C.ar    1  UNL1        0.0962
     25 N           0.0942    2.1837   19.1471 N.ar    1  UNL1       -0.2426
     26 C           1.2382    1.2595   18.8519 C.ar    1  UNL1        0.0989
     27 C           1.9978    0.6230   19.9779 C.ar    1  UNL1        0.0205
     28 C           1.6134    0.9106   21.3989 C.ar    1  UNL1        0.0005
     29 C           3.3515   -0.4674   19.4473 C.ar    1  UNL1        0.0222
     30 C           2.9394   -0.1085   18.0504 C.ar    1  UNL1        0.0222
     31 C           3.6766   -0.6870   16.8790 C.ar    1  UNL1        0.0989
     32 N           4.8257   -1.6244   17.1047 N.ar    1  UNL1       -0.2423
     33 C           5.2377   -1.9833   18.5016 C.ar    1  UNL1        0.0989
     34 C           6.4934   -3.0108   18.9324 C.ar    1  UNL1        0.0222
     35 C           6.9634   -3.4162   20.2980 C.ar    1  UNL1        0.0207
     36 C           6.2758   -2.8788   21.5181 C.ar    1  UNL1        0.0829
     37 N           5.5162   -2.2422   20.3921 N.ar    1  UNL1       -0.2438
     38 C           4.5006   -1.4048   19.6730 C.ar    1  UNL1        0.0989
     39 H           6.0795   -2.8272   27.7459 H       1  UNL1        0.1739
     40 H          -0.6512    2.6911   24.8084 H       1  UNL1        0.1501
     41 C           7.2774   -5.4808   28.1335 C.3     1  UNL1        0.2543
     42 O           7.8792   -4.2842   27.4581 O.3     1  UNL1       -0.4553
@<TRIPOS>BOND
     1    41    42    1
     2    42     1    1
     3     1     2   ar
     4     2     3   ar
     5     3     4   ar
     6     4     5   ar
     7     5     6   ar
     8     6     7    1
     9     7     8    1
    10     8     9    2
    11     8    10    2
    12     8    11    1
    13    11    12   ar
    14    12    13   ar
    15    13    14   ar
    16    14    15    1
    17    14    16   ar
    18    16    17   ar
    19    17    18    1
    20    13    19    1
    21    19    20    2
    22    19    21   am
    23    21    22    1
    24    22    23    1
    25    23    24   ar
    26    24    25   ar
    27    25    26   ar
    28    26    27   ar
    29    27    28   ar
    30    27    29    1
    31    29    30   ar
    32    30    31   ar
    33    31    32   ar
    34    32    33   ar
    35    33    34   ar
    36    34    35   ar
    37    35    36   ar
    38    36    37   ar
    39    37    38   ar
    40     6     1   ar
    41    17    11   ar
    42    28    23   ar
    43    38    29   ar
    44    36     4    1
    45    38    33   ar
    46     7    39    1
    47    21    40    1
@<TRIPOS>MOLECULE
*****
 42 47 0 0 0
SMALL
GASTEIGER

@<TRIPOS>ATOM
      1 C         -10.6053   -5.7587   17.3714 C.ar    1  UNL1        0.2400
      2 N          -9.7100   -4.6036   17.0335 N.ar    1  UNL1       -0.2090
      3 C         -10.2438   -3.2025   17.0791 C.ar    1  UNL1        0.1036
      4 C         -11.6234   -2.6059   17.4225 C.ar    1  UNL1        0.0383
      5 C         -11.5808   -4.1020   17.5221 C.ar    1  UNL1        0.0236
      6 C         -12.0345   -5.5126   17.7548 C.ar    1  UNL1        0.1179
      7 N         -12.9299   -6.6677   18.0927 N.pl3   1  UNL1       -0.2104
      8 S         -14.1588   -7.4279   18.4948 S.O2    1  UNL1        0.0759
      9 O         -14.4503   -8.8870   18.6856 O.2     1  UNL1       -0.1499
     10 O         -12.9753   -8.3101   18.2279 O.2     1  UNL1       -0.1499
     11 C         -15.5732   -7.7015   18.9128 C.ar    1  UNL1        0.1527
     12 C         -17.0023   -7.4555   19.2963 C.ar    1  UNL1        0.0293
     13 C         -18.2739   -6.7196   19.5989 C.ar    1  UNL1        0.0822
     14 C         -18.4019   -8.2487   19.7489 C.ar    1  UNL1        0.1468
     15 F         -19.8162   -8.5223   20.1669 F       1  UNL1       -0.2039
     16 C         -17.4413   -9.3858   19.5636 C.ar    1  UNL1        0.0608
     17 C         -16.0269   -9.1122   19.1456 C.ar    1  UNL1        0.1611
     18 F         -15.0663  -10.2492   18.9603 F       1  UNL1       -0.2027
     19 C         -19.2345   -5.5826   19.7841 C.2     1  UNL1        0.2483
     20 O         -20.4634   -6.3428   20.1863 O.2     1  UNL1       -0.2701
     21 N         -19.7683   -4.1816   19.8298 N.am    1  UNL1       -0.2968
     22 C         -19.8109   -2.6855   19.7302 C.3     1  UNL1        0.1181
     23 C         -19.3572   -1.2748   19.4974 C.ar    1  UNL1        0.0166
     24 C         -20.3178   -0.1378   19.6827 C.ar    1  UNL1        0.0962
     25 N         -19.8641    1.2728   19.4499 N.ar    1  UNL1       -0.2426
     26 C         -18.4497    1.5465   19.0319 C.ar    1  UNL1        0.0989
     27 C         -17.4891    0.4094   18.8466 C.ar    1  UNL1        0.0205
     28 C         -17.9428   -1.0012   19.0794 C.ar    1  UNL1        0.0005
     29 C         -15.8185    0.9141   18.3394 C.ar    1  UNL1        0.0222
     30 C         -16.3524    2.3151   18.3850 C.ar    1  UNL1        0.0222
     31 C         -15.4570    3.4702   18.0471 C.ar    1  UNL1        0.0989
     32 N         -14.0279    3.2242   17.6637 N.ar    1  UNL1       -0.2423
     33 C         -13.4940    1.8231   17.6181 C.ar    1  UNL1        0.0989
     34 C         -11.9293    1.3705   17.2120 C.ar    1  UNL1        0.0222
     35 C         -11.3240   -0.0003   17.1440 C.ar    1  UNL1        0.0207
     36 C         -12.1572   -1.2049   17.4681 C.ar    1  UNL1        0.0829
     37 N         -13.1178   -0.0678   17.6533 N.ar    1  UNL1       -0.2438
     38 C         -14.3894    0.6680   17.9560 C.ar    1  UNL1        0.0989
     39 H         -12.2994   -7.4140   17.9711 H       1  UNL1        0.1739
     40 H         -20.6966   -4.3612   20.1041 H       1  UNL1        0.1501
     41 C          -9.4569   -7.7683   18.5513 C.3     1  UNL1        0.2543
     42 O         -10.0716   -7.1597   17.3258 O.3     1  UNL1       -0.4553
@<TRIPOS>BOND
     1    41    42    1
     2    42     1    1
     3     1     2   ar
     4     2     3   ar
     5     3     4   ar
     6     4     5   ar
     7     5     6   ar
     8     6     7    1
     9     7     8    1
    10     8     9    2
    11     8    10    2
    12     8    11    1
    13    11    12   ar
    14    12    13   ar
    15    13    14   ar
    16    14    15    1
    17    14    16   ar
    18    16    17   ar
    19    17    18    1
    20    13    19    1
    21    19    20    2
    22    19    21   am
    23    21    22    1
    24    22    23    1
    25    23    24   ar
    26    24    25   ar
    27    25    26   ar
    28    26    27   ar
    29    27    28   ar
    30    27    29    1
    31    29    30   ar
    32    30    31   ar
    33    31    32   ar
    34    32    33   ar
    35    33    34   ar
    36    34    35   ar
    37    35    36   ar
    38    36    37   ar
    39    37    38   ar
    40     6     1   ar
    41    17    11   ar
    42    28    23   ar
    43    38    29   ar
    44    36     4    1
    45    38    33   ar
    46     7    39    1
    47    21    40    1
@<TRIPOS>MOLECULE
*****
 42 47 0 0 0
SMALL
GASTEIGER

@<TRIPOS>ATOM
      1 C           8.3194   -5.6253   26.8521 C.ar    1  UNL1        0.2400
      2 N           8.5216   -5.9678   25.4059 N.ar    1  UNL1       -0.2090
      3 C           7.7087   -5.2777   24.3509 C.ar    1  UNL1        0.1036
      4 C           6.6099   -4.1974   24.3990 C.ar    1  UNL1        0.0383
      5 C           7.1333   -4.5742   25.7533 C.ar    1  UNL1        0.0236
      6 C           7.3042   -4.5925   27.2433 C.ar    1  UNL1        0.1179
      7 N           7.1020   -4.2498   28.6897 N.pl3   1  UNL1       -0.2104
      8 S           6.5510   -3.5877   29.9176 S.O2    1  UNL1        0.0759
      9 O           6.8439   -3.7279   31.3821 O.2     1  UNL1       -0.1499
     10 O           7.6163   -4.6006   30.2161 O.2     1  UNL1       -0.1499
     11 C           5.7177   -2.6858   30.7792 C.ar    1  UNL1        0.1527
     12 C           4.7026   -1.6531   31.1704 C.ar    1  UNL1        0.0293
     13 C           3.6282   -0.6140   31.0442 C.ar    1  UNL1        0.0822
     14 C           4.0511   -0.8822   32.5023 C.ar    1  UNL1        0.1468
     15 F           3.2178    0.0197   33.3639 F       1  UNL1       -0.2039
     16 C           5.0553   -1.8022   33.1309 C.ar    1  UNL1        0.0608
     17 C           5.8886   -2.7041   32.2693 C.ar    1  UNL1        0.1611
     18 F           6.8928   -3.6241   32.8978 F       1  UNL1       -0.2027
     19 C           2.6240    0.3060   30.4156 C.2     1  UNL1        0.2483
     20 O           2.0730    0.9682   31.6436 O.2     1  UNL1       -0.2701
     21 N           1.8112    0.9961   29.3607 N.am    1  UNL1       -0.2968
     22 C           1.2878    1.3730   28.0064 C.3     1  UNL1        0.1181
     23 C           1.1168    1.3913   26.5162 C.ar    1  UNL1        0.0166
     24 C           0.1126    2.3113   25.8877 C.ar    1  UNL1        0.0962
     25 N          -0.0582    2.3295   24.3976 N.ar    1  UNL1       -0.2426
     26 C           0.7751    1.4277   23.5361 C.ar    1  UNL1        0.0989
     27 C           1.7792    0.5076   24.1646 C.ar    1  UNL1        0.0205
     28 C           1.9501    0.4894   25.6547 C.ar    1  UNL1        0.0005
     29 C           2.7034   -0.5154   22.9804 C.ar    1  UNL1        0.0222
     30 C           1.8905    0.1747   21.9254 C.ar    1  UNL1        0.0222
     31 C           2.0928   -0.1679   20.4791 C.ar    1  UNL1        0.0989
     32 N           3.1079   -1.2006   20.0879 N.ar    1  UNL1       -0.2423
     33 C           3.9207   -1.8908   21.1429 C.ar    1  UNL1        0.0989
     34 C           5.0928   -3.0641   20.8828 C.ar    1  UNL1        0.0222
     35 C           5.9423   -3.7959   21.8792 C.ar    1  UNL1        0.0207
     36 C           5.7971   -3.5073   23.3440 C.ar    1  UNL1        0.0829
     37 N           4.7929   -2.5872   22.7154 N.ar    1  UNL1       -0.2438
     38 C           3.7185   -1.5481   22.5892 C.ar    1  UNL1        0.0989
     39 H           7.7611   -4.8537   29.1022 H       1  UNL1        0.1739
     40 H           1.2642    1.5880   29.9261 H       1  UNL1        0.1501
     41 C           8.7360   -7.6807   28.3855 C.3     1  UNL1        0.2543
     42 O           9.1322   -6.3153   27.9072 O.3     1  UNL1       -0.4553
@<TRIPOS>BOND
     1    41    42    1
     2    42     1    1
     3     1     2   ar
     4     2     3   ar
     5     3     4   ar
     6     4     5   ar
     7     5     6   ar
     8     6     7    1
     9     7     8    1
    10     8     9    2
    11     8    10    2
    12     8    11    1
    13    11    12   ar
    14    12    13   ar
    15    13    14   ar
    16    14    15    1
    17    14    16   ar
    18    16    17   ar
    19    17    18    1
    20    13    19    1
    21    19    20    2
    22    19    21   am
    23    21    22    1
    24    22    23    1
    25    23    24   ar
    26    24    25   ar
    27    25    26   ar
    28    26    27   ar
    29    27    28   ar
    30    27    29    1
    31    29    30   ar
    32    30    31   ar
    33    31    32   ar
    34    32    33   ar
    35    33    34   ar
    36    34    35   ar
    37    35    36   ar
    38    36    37   ar
    39    37    38   ar
    40     6     1   ar
    41    17    11   ar
    42    28    23   ar
    43    38    29   ar
    44    36     4    1
    45    38    33   ar
    46     7    39    1
    47    21    40    1
@<TRIPOS>MOLECULE
*****
 42 47 0 0 0
SMALL
GASTEIGER

@<TRIPOS>ATOM
      1 C           8.3909   -5.0676   29.4200 C.ar    1  UNL1        0.2400
      2 N           8.9404   -5.7562   28.2060 N.ar    1  UNL1       -0.2090
      3 C           8.4134   -5.4107   26.8448 C.ar    1  UNL1        0.1036
      4 C           7.3399   -4.4237   26.3444 C.ar    1  UNL1        0.0383
      5 C           7.5141   -4.4082   27.8341 C.ar    1  UNL1        0.0236
      6 C           7.3143   -4.0335   29.2728 C.ar    1  UNL1        0.1179
      7 N           6.7647   -3.3448   30.4868 N.pl3   1  UNL1       -0.2104
      8 S           5.9317   -2.4254   31.3297 S.O2    1  UNL1        0.0759
      9 O           5.8562   -2.1675   32.8055 O.2     1  UNL1       -0.1499
     10 O           6.8880   -3.2606   32.1285 O.2     1  UNL1       -0.1499
     11 C           4.9156   -1.3859   31.6999 C.ar    1  UNL1        0.1527
     12 C           3.8391   -0.3519   31.5527 C.ar    1  UNL1        0.0293
     13 C           2.8318    0.5521   30.9059 C.ar    1  UNL1        0.0822
     14 C           2.8834    0.6930   32.4403 C.ar    1  UNL1        0.1468
     15 F           1.8673    1.7325   32.8105 F       1  UNL1       -0.2039
     16 C           3.6998    0.0282   33.5088 C.ar    1  UNL1        0.0608
     17 C           4.7159   -1.0112   33.1386 C.ar    1  UNL1        0.1611
     18 F           5.5322   -1.6760   34.2070 F       1  UNL1       -0.2027
     19 C           2.0155    1.2169   29.8374 C.2     1  UNL1        0.2483
     20 O           1.1824    2.1364   30.6803 O.2     1  UNL1       -0.2701
     21 N           1.4884    1.5624   28.4762 N.am    1  UNL1       -0.2968
     22 C           1.3143    1.5468   26.9865 C.3     1  UNL1        0.1181
     23 C           1.5140    1.1721   25.5478 C.ar    1  UNL1        0.0166
     24 C           0.6977    1.8369   24.4793 C.ar    1  UNL1        0.0962
     25 N           0.8974    1.4623   23.0407 N.ar    1  UNL1       -0.2426
     26 C           1.9135    0.4228   22.6705 C.ar    1  UNL1        0.0989
     27 C           2.7299   -0.2420   23.7390 C.ar    1  UNL1        0.0205
     28 C           2.5301    0.1327   25.1776 C.ar    1  UNL1        0.0005
     29 C           3.9127   -1.4754   23.1206 C.ar    1  UNL1        0.0222
     30 C           3.3857   -1.1299   21.7594 C.ar    1  UNL1        0.0222
     31 C           3.9352   -1.8186   20.5454 C.ar    1  UNL1        0.0989
     32 N           5.0118   -2.8526   20.6927 N.ar    1  UNL1       -0.2423
     33 C           5.5388   -3.1981   22.0539 C.ar    1  UNL1        0.0989
     34 C           6.7350   -4.3246   22.3979 C.ar    1  UNL1        0.0222
     35 C           7.3119   -4.7231   23.7241 C.ar    1  UNL1        0.0207
     36 C           6.8129   -4.0782   24.9832 C.ar    1  UNL1        0.0829
     37 N           5.9965   -3.4134   23.9147 N.ar    1  UNL1       -0.2438
     38 C           4.9893   -2.5095   23.2679 C.ar    1  UNL1        0.0989
     39 H           7.3005   -3.7812   31.1881 H       1  UNL1        0.1739
     40 H           0.8215    2.2446   28.7192 H       1  UNL1        0.1501
     41 C           9.2015   -6.8429   31.1350 C.3     1  UNL1        0.2543
     42 O           8.9179   -5.4130   30.7812 O.3     1  UNL1       -0.4553
@<TRIPOS>BOND
     1    41    42    1
     2    42     1    1
     3     1     2   ar
     4     2     3   ar
     5     3     4   ar
     6     4     5   ar
     7     5     6   ar
     8     6     7    1
     9     7     8    1
    10     8     9    2
    11     8    10    2
    12     8    11    1
    13    11    12   ar
    14    12    13   ar
    15    13    14   ar
    16    14    15    1
    17    14    16   ar
    18    16    17   ar
    19    17    18    1
    20    13    19    1
    21    19    20    2
    22    19    21   am
    23    21    22    1
    24    22    23    1
    25    23    24   ar
    26    24    25   ar
    27    25    26   ar
    28    26    27   ar
    29    27    28   ar
    30    27    29    1
    31    29    30   ar
    32    30    31   ar
    33    31    32   ar
    34    32    33   ar
    35    33    34   ar
    36    34    35   ar
    37    35    36   ar
    38    36    37   ar
    39    37    38   ar
    40     6     1   ar
    41    17    11   ar
    42    28    23   ar
    43    38    29   ar
    44    36     4    1
    45    38    33   ar
    46     7    39    1
    47    21    40    1
@<TRIPOS>MOLECULE
*****
 42 47 0 0 0
SMALL
GASTEIGER

@<TRIPOS>ATOM
      1 C           7.5896   -4.4463   26.8359 C.ar    1  UNL1        0.2400
      2 N           7.7071   -4.3412   28.3276 N.ar    1  UNL1       -0.2090
      3 C           6.7976   -3.4228   29.0887 C.ar    1  UNL1        0.1036
      4 C           5.6620   -2.4690   28.6672 C.ar    1  UNL1        0.0383
      5 C           6.2906   -3.1922   27.5131 C.ar    1  UNL1        0.0236
      6 C           6.5625   -3.6329   26.1054 C.ar    1  UNL1        0.1179
      7 N           6.4450   -3.7379   24.6137 N.pl3   1  UNL1       -0.2104
      8 S           5.9522   -3.4947   23.2180 S.O2    1  UNL1        0.0759
      9 O           6.3490   -4.0374   21.8770 O.2     1  UNL1       -0.1499
     10 O           7.0752   -4.4868   23.2871 O.2     1  UNL1       -0.1499
     11 C           5.1435   -2.9325   22.0867 C.ar    1  UNL1        0.1527
     12 C           4.1165   -2.1192   21.3561 C.ar    1  UNL1        0.0293
     13 C           2.9951   -1.1527   21.1145 C.ar    1  UNL1        0.0822
     14 C           3.5261   -1.8081   19.8240 C.ar    1  UNL1        0.1468
     15 F           2.7174   -1.2459   18.6926 F       1  UNL1       -0.2039
     16 C           4.6068   -2.8110   19.5475 C.ar    1  UNL1        0.0608
     17 C           5.4155   -3.3732   20.6789 C.ar    1  UNL1        0.1611
     18 F           6.4961   -4.3761   20.4025 F       1  UNL1       -0.2027
     19 C           1.9144   -0.1498   21.3909 C.2     1  UNL1        0.2483
     20 O           1.4216    0.0934   19.9952 O.2     1  UNL1       -0.2701
     21 N           1.0050    0.7686   22.1520 N.am    1  UNL1       -0.2968
     22 C           0.3764    1.4918   23.3061 C.3     1  UNL1        0.1181
     23 C           0.1044    1.9325   24.7139 C.ar    1  UNL1        0.0166
     24 C          -0.9762    2.9354   24.9903 C.ar    1  UNL1        0.0962
     25 N          -1.2481    3.3761   26.3980 N.ar    1  UNL1       -0.2426
     26 C          -0.4395    2.8139   27.5294 C.ar    1  UNL1        0.0989
     27 C           0.6412    1.8110   27.2530 C.ar    1  UNL1        0.0205
     28 C           0.9131    1.3703   25.8452 C.ar    1  UNL1        0.0005
     29 C           1.5234    1.2321   28.7326 C.ar    1  UNL1        0.0222
     30 C           0.6140    2.1506   29.4937 C.ar    1  UNL1        0.0222
     31 C           0.7315    2.2556   30.9854 C.ar    1  UNL1        0.0989
     32 N           1.7585    1.4423   31.7159 N.ar    1  UNL1       -0.2423
     33 C           2.6680    0.5238   30.9548 C.ar    1  UNL1        0.0989
     34 C           3.8661   -0.4528   31.6099 C.ar    1  UNL1        0.0222
     35 C           4.8098   -1.3919   30.9189 C.ar    1  UNL1        0.0207
     36 C           4.7525   -1.5506   29.4283 C.ar    1  UNL1        0.0829
     37 N           3.6719   -0.5476   29.7048 N.ar    1  UNL1       -0.2438
     38 C           2.5505    0.4187   29.4631 C.ar    1  UNL1        0.0989
     39 H           7.1543   -4.3962   24.4322 H       1  UNL1        0.1739
     40 H           0.4742    1.1376   21.4095 H       1  UNL1        0.1501
     41 C           8.1006   -6.7922   25.8433 C.3     1  UNL1        0.2543
     42 O           8.4990   -5.3647   26.0747 O.3     1  UNL1       -0.4553
@<TRIPOS>BOND
     1    41    42    1
     2    42     1    1
     3     1     2   ar
     4     2     3   ar
     5     3     4   ar
     6     4     5   ar
     7     5     6   ar
     8     6     7    1
     9     7     8    1
    10     8     9    2
    11     8    10    2
    12     8    11    1
    13    11    12   ar
    14    12    13   ar
    15    13    14   ar
    16    14    15    1
    17    14    16   ar
    18    16    17   ar
    19    17    18    1
    20    13    19    1
    21    19    20    2
    22    19    21   am
    23    21    22    1
    24    22    23    1
    25    23    24   ar
    26    24    25   ar
    27    25    26   ar
    28    26    27   ar
    29    27    28   ar
    30    27    29    1
    31    29    30   ar
    32    30    31   ar
    33    31    32   ar
    34    32    33   ar
    35    33    34   ar
    36    34    35   ar
    37    35    36   ar
    38    36    37   ar
    39    37    38   ar
    40     6     1   ar
    41    17    11   ar
    42    28    23   ar
    43    38    29   ar
    44    36     4    1
    45    38    33   ar
    46     7    39    1
    47    21    40    1
