@<TRIPOS>MOLECULE
*****
 29 33 0 0 0
SMALL
GASTEIGER

@<TRIPOS>ATOM
      1 N          -9.1141  -18.5088   21.2156 N.am    1  UNL1       -0.2334
      2 C          -7.7209  -18.2560   21.7108 C.3     1  UNL1        0.2104
      3 N          -6.8024  -19.2228   21.0241 N.ar    1  UNL1       -0.3057
      4 C          -7.6278  -20.0731   20.1045 C.ar    1  UNL1        0.1158
      5 C          -6.7093  -21.0399   19.4178 C.ar    1  UNL1        0.0234
      6 C          -5.3161  -20.7871   19.9130 C.ar    1  UNL1        0.0189
      7 C          -5.3736  -19.6641   20.9057 C.ar    1  UNL1        0.0614
      8 C          -9.0565  -19.6318   20.2229 C.2     1  UNL1        0.2701
      9 O         -10.2230  -20.2117   19.4791 O.2     1  UNL1       -0.2679
     10 C         -10.2308  -16.4078   22.2591 C.ar    1  UNL1        0.0673
     11 C         -11.4648  -15.6675   22.6824 C.ar    1  UNL1        0.0058
     12 C         -12.8162  -16.2879   22.4854 C.ar    1  UNL1        0.0002
     13 C         -12.9335  -17.6488   21.8652 C.ar    1  UNL1        0.0013
     14 C         -11.6996  -18.3890   21.4420 C.ar    1  UNL1        0.0151
     15 C         -10.3481  -17.7685   21.6389 C.ar    1  UNL1        0.0603
     16 O          -8.1555  -15.1808   21.2906 O.2     1  UNL1       -0.2699
     17 C          -8.8794  -15.7874   22.4560 C.2     1  UNL1        0.2502
     18 N          -8.2518  -15.7734   23.8184 N.am    1  UNL1       -0.2760
     19 C          -6.9004  -15.1529   24.0152 C.3     1  UNL1        0.0937
     20 C          -6.2729  -15.1389   25.3776 C.3     1  UNL1        0.0216
     21 C          -6.9967  -15.7454   26.5430 C.3     1  UNL1        0.0035
     22 C          -8.3481  -16.3659   26.3461 C.3     1  UNL1        0.0216
     23 C          -8.9756  -16.3799   24.9838 C.3     1  UNL1        0.0937
     24 C          -4.2072  -19.0843   21.6495 C.ar    1  UNL1        0.0158
     25 C          -2.8103  -19.3249   21.1589 C.ar    1  UNL1        0.0014
     26 C          -1.6438  -18.7450   21.9027 C.ar    1  UNL1        0.0000
     27 C          -1.8743  -17.9246   23.1370 C.ar    1  UNL1        0.0000
     28 C          -3.2713  -17.6840   23.6276 C.ar    1  UNL1        0.0000
     29 C          -4.4377  -18.2638   22.8839 C.ar    1  UNL1        0.0014
@<TRIPOS>BOND
     1    16    17    2
     2    17    10    1
     3    10    11   ar
     4    11    12   ar
     5    12    13   ar
     6    13    14   ar
     7    14    15   ar
     8    15     1    1
     9     1     2    1
    10     2     3    1
    11     3     4   ar
    12     4     5   ar
    13     5     6   ar
    14     6     7   ar
    15     7    24    1
    16    24    25   ar
    17    25    26   ar
    18    26    27   ar
    19    27    28   ar
    20    28    29   ar
    21     4     8    1
    22     8     9    2
    23    17    18   am
    24    18    19    1
    25    19    20    1
    26    20    21    1
    27    21    22    1
    28    22    23    1
    29    15    10   ar
    30     8     1   am
    31    23    18    1
    32     7     3   ar
    33    29    24   ar
@<TRIPOS>MOLECULE
*****
 29 33 0 0 0
SMALL
GASTEIGER

@<TRIPOS>ATOM
      1 N          -8.6632  -16.6198   23.6539 N.am    1  UNL1       -0.2334
      2 C          -7.3538  -16.9907   23.0230 C.3     1  UNL1        0.2104
      3 N          -6.2551  -16.3842   23.8445 N.ar    1  UNL1       -0.3057
      4 C          -6.8852  -15.6384   24.9832 C.ar    1  UNL1        0.1158
      5 C          -5.7865  -15.0319   25.8047 C.ar    1  UNL1        0.0234
      6 C          -4.4772  -15.4029   25.1737 C.ar    1  UNL1        0.0189
      7 C          -4.7668  -16.2387   23.9622 C.ar    1  UNL1        0.0614
      8 C          -8.3735  -15.7840   24.8654 C.2     1  UNL1        0.2701
      9 O          -9.3932  -15.1969   25.7958 O.2     1  UNL1       -0.2679
     10 C         -10.3475  -18.4620   22.9335 C.ar    1  UNL1        0.0673
     11 C         -11.7076  -18.8574   22.4397 C.ar    1  UNL1        0.0058
     12 C         -12.7434  -17.8059   22.1726 C.ar    1  UNL1        0.0002
     13 C         -12.4191  -16.3589   22.3993 C.ar    1  UNL1        0.0013
     14 C         -11.0591  -15.9636   22.8931 C.ar    1  UNL1        0.0151
     15 C         -10.0232  -17.0151   23.1602 C.ar    1  UNL1        0.0603
     16 O          -9.3614  -20.3097   24.4708 O.2     1  UNL1       -0.2699
     17 C          -9.3116  -19.5135   23.2006 C.2     1  UNL1        0.2502
     18 N          -8.2260  -19.7688   22.1974 N.am    1  UNL1       -0.2760
     19 C          -7.1902  -20.8203   22.4646 C.3     1  UNL1        0.0937
     20 C          -6.1046  -21.0757   21.4614 C.3     1  UNL1        0.0216
     21 C          -6.0548  -20.2794   20.1911 C.3     1  UNL1        0.0035
     22 C          -7.0907  -19.2279   19.9240 C.3     1  UNL1        0.0216
     23 C          -8.1762  -18.9726   20.9272 C.3     1  UNL1        0.0937
     24 C          -3.7471  -16.8258   23.0319 C.ar    1  UNL1        0.0158
     25 C          -3.6589  -18.3130   22.8579 C.ar    1  UNL1        0.0014
     26 C          -2.6392  -18.9002   21.9276 C.ar    1  UNL1        0.0000
     27 C          -1.7078  -18.0002   21.1712 C.ar    1  UNL1        0.0000
     28 C          -1.7960  -16.5128   21.3452 C.ar    1  UNL1        0.0000
     29 C          -2.8156  -15.9257   22.2755 C.ar    1  UNL1        0.0014
@<TRIPOS>BOND
     1    16    17    2
     2    17    10    1
     3    10    11   ar
     4    11    12   ar
     5    12    13   ar
     6    13    14   ar
     7    14    15   ar
     8    15     1    1
     9     1     2    1
    10     2     3    1
    11     3     4   ar
    12     4     5   ar
    13     5     6   ar
    14     6     7   ar
    15     7    24    1
    16    24    25   ar
    17    25    26   ar
    18    26    27   ar
    19    27    28   ar
    20    28    29   ar
    21     4     8    1
    22     8     9    2
    23    17    18   am
    24    18    19    1
    25    19    20    1
    26    20    21    1
    27    21    22    1
    28    22    23    1
    29    15    10   ar
    30     8     1   am
    31    23    18    1
    32     7     3   ar
    33    29    24   ar
@<TRIPOS>MOLECULE
*****
 29 33 0 0 0
SMALL
GASTEIGER

@<TRIPOS>ATOM
      1 N          -9.2227  -18.3772   20.6855 N.am    1  UNL1       -0.2334
      2 C          -7.8908  -18.0756   21.3062 C.3     1  UNL1        0.2104
      3 N          -6.9378  -19.1644   20.9106 N.ar    1  UNL1       -0.3057
      4 C          -7.6806  -20.1388   20.0453 C.ar    1  UNL1        0.1158
      5 C          -6.7277  -21.2275   19.6497 C.ar    1  UNL1        0.0234
      6 C          -5.3959  -20.9260   20.2704 C.ar    1  UNL1        0.0189
      7 C          -5.5258  -19.6509   21.0497 C.ar    1  UNL1        0.0614
      8 C          -9.0927  -19.6523   19.9062 C.2     1  UNL1        0.2701
      9 O         -10.1834  -20.3231   19.1249 O.2     1  UNL1       -0.2679
     10 C         -11.1624  -17.4519   22.1453 C.ar    1  UNL1        0.0673
     11 C         -12.4058  -16.6237   22.2802 C.ar    1  UNL1        0.0058
     12 C         -12.9528  -15.8927   21.0900 C.ar    1  UNL1        0.0002
     13 C         -12.2563  -15.9899   19.7649 C.ar    1  UNL1        0.0013
     14 C         -11.0130  -16.8180   19.6301 C.ar    1  UNL1        0.0151
     15 C         -10.4660  -17.5491   20.8203 C.ar    1  UNL1        0.0603
     16 O         -10.8551  -19.6559   23.4861 O.2     1  UNL1       -0.2699
     17 C         -10.6154  -18.1829   23.3354 C.2     1  UNL1        0.2502
     18 N          -9.8287  -17.4408   24.3749 N.am    1  UNL1       -0.2760
     19 C          -9.2818  -18.1719   25.5650 C.3     1  UNL1        0.0937
     20 C          -8.4950  -17.4298   26.6046 C.3     1  UNL1        0.0216
     21 C          -8.2554  -15.9567   26.4539 C.3     1  UNL1        0.0035
     22 C          -8.8023  -15.2257   25.2637 C.3     1  UNL1        0.0216
     23 C          -9.5890  -15.9678   24.2243 C.3     1  UNL1        0.0937
     24 C          -4.4350  -18.9801   21.8310 C.ar    1  UNL1        0.0158
     25 C          -3.0008  -19.1790   21.4393 C.ar    1  UNL1        0.0014
     26 C          -1.9100  -18.5082   22.2206 C.ar    1  UNL1        0.0000
     27 C          -2.2535  -17.6386   23.3934 C.ar    1  UNL1        0.0000
     28 C          -3.6878  -17.4397   23.7851 C.ar    1  UNL1        0.0000
     29 C          -4.7785  -18.1105   23.0039 C.ar    1  UNL1        0.0014
@<TRIPOS>BOND
     1    16    17    2
     2    17    10    1
     3    10    11   ar
     4    11    12   ar
     5    12    13   ar
     6    13    14   ar
     7    14    15   ar
     8    15     1    1
     9     1     2    1
    10     2     3    1
    11     3     4   ar
    12     4     5   ar
    13     5     6   ar
    14     6     7   ar
    15     7    24    1
    16    24    25   ar
    17    25    26   ar
    18    26    27   ar
    19    27    28   ar
    20    28    29   ar
    21     4     8    1
    22     8     9    2
    23    17    18   am
    24    18    19    1
    25    19    20    1
    26    20    21    1
    27    21    22    1
    28    22    23    1
    29    15    10   ar
    30     8     1   am
    31    23    18    1
    32     7     3   ar
    33    29    24   ar
@<TRIPOS>MOLECULE
*****
 29 33 0 0 0
SMALL
GASTEIGER

@<TRIPOS>ATOM
      1 N          -8.9072  -18.8740   20.8279 N.am    1  UNL1       -0.2334
      2 C          -8.0491  -18.2326   21.8779 C.3     1  UNL1        0.2104
      3 N          -8.8913  -17.2382   22.6209 N.ar    1  UNL1       -0.3057
      4 C         -10.2698  -17.2650   22.0302 C.ar    1  UNL1        0.1158
      5 C         -11.1119  -16.2706   22.7731 C.ar    1  UNL1        0.0234
      6 C         -10.2538  -15.6292   23.8230 C.ar    1  UNL1        0.0189
      7 C          -8.8814  -16.2272   23.7289 C.ar    1  UNL1        0.0614
      8 C         -10.2797  -18.2760   20.9221 C.2     1  UNL1        0.2701
      9 O         -11.4555  -18.6273   20.0596 O.2     1  UNL1       -0.2679
     10 C          -7.1920  -20.6790   20.0866 C.ar    1  UNL1        0.0673
     11 C          -6.7544  -21.7333   19.1135 C.ar    1  UNL1        0.0058
     12 C          -7.5946  -22.0368   17.9085 C.ar    1  UNL1        0.0002
     13 C          -8.8724  -21.2860   17.6767 C.ar    1  UNL1        0.0013
     14 C          -9.3099  -20.2318   18.6498 C.ar    1  UNL1        0.0151
     15 C          -8.4697  -19.9282   19.8548 C.ar    1  UNL1        0.0603
     16 O          -6.8001  -20.8241   22.6509 O.2     1  UNL1       -0.2699
     17 C          -6.3518  -20.3755   21.2915 C.2     1  UNL1        0.2502
     18 N          -5.0631  -19.6233   21.1372 N.am    1  UNL1       -0.2760
     19 C          -4.2230  -19.3199   22.3422 C.3     1  UNL1        0.0937
     20 C          -2.9343  -18.5677   22.1878 C.3     1  UNL1        0.0216
     21 C          -2.4859  -18.1191   20.8285 C.3     1  UNL1        0.0035
     22 C          -3.3262  -18.4226   19.6236 C.3     1  UNL1        0.0216
     23 C          -4.6147  -19.1747   19.7780 C.3     1  UNL1        0.0937
     24 C          -7.7056  -15.8759   24.5915 C.ar    1  UNL1        0.0158
     25 C          -7.8758  -15.7499   26.0764 C.ar    1  UNL1        0.0014
     26 C          -6.6999  -15.3985   26.9391 C.ar    1  UNL1        0.0000
     27 C          -5.3540  -15.1732   26.3167 C.ar    1  UNL1        0.0000
     28 C          -5.1838  -15.2992   24.8316 C.ar    1  UNL1        0.0000
     29 C          -6.3595  -15.6505   23.9691 C.ar    1  UNL1        0.0014
@<TRIPOS>BOND
     1    16    17    2
     2    17    10    1
     3    10    11   ar
     4    11    12   ar
     5    12    13   ar
     6    13    14   ar
     7    14    15   ar
     8    15     1    1
     9     1     2    1
    10     2     3    1
    11     3     4   ar
    12     4     5   ar
    13     5     6   ar
    14     6     7   ar
    15     7    24    1
    16    24    25   ar
    17    25    26   ar
    18    26    27   ar
    19    27    28   ar
    20    28    29   ar
    21     4     8    1
    22     8     9    2
    23    17    18   am
    24    18    19    1
    25    19    20    1
    26    20    21    1
    27    21    22    1
    28    22    23    1
    29    15    10   ar
    30     8     1   am
    31    23    18    1
    32     7     3   ar
    33    29    24   ar
@<TRIPOS>MOLECULE
*****
 29 33 0 0 0
SMALL
GASTEIGER

@<TRIPOS>ATOM
      1 N         -13.5551   -6.1562   17.8027 N.am    1  UNL1       -0.2334
      2 C         -14.7291   -6.8986   18.3692 C.3     1  UNL1        0.2104
      3 N         -15.9705   -6.3757   17.7092 N.ar    1  UNL1       -0.3057
      4 C         -15.5638   -5.3101   16.7349 C.ar    1  UNL1        0.1158
      5 C         -16.8052   -4.7872   16.0750 C.ar    1  UNL1        0.0234
      6 C         -17.9791   -5.5296   16.6415 C.ar    1  UNL1        0.0189
      7 C         -17.4632   -6.5113   17.6515 C.ar    1  UNL1        0.0614
      8 C         -14.0711   -5.1745   16.7927 C.2     1  UNL1        0.2701
      9 O         -13.2401   -4.2240   15.9827 O.2     1  UNL1       -0.2679
     10 C         -11.3742   -5.2814   18.9109 C.ar    1  UNL1        0.0673
     11 C          -9.9368   -5.4850   19.2883 C.ar    1  UNL1        0.0058
     12 C          -9.2429   -6.7669   18.9347 C.ar    1  UNL1        0.0002
     13 C          -9.9865   -7.8454   18.2037 C.ar    1  UNL1        0.0013
     14 C         -11.4238   -7.6418   17.8264 C.ar    1  UNL1        0.0151
     15 C         -12.1178   -6.3598   18.1800 C.ar    1  UNL1        0.0603
     16 O         -13.1017   -3.9811   20.3514 O.2     1  UNL1       -0.2699
     17 C         -12.0681   -3.9995   19.2645 C.2     1  UNL1        0.2502
     18 N         -11.7284   -2.7357   18.5312 N.am    1  UNL1       -0.2760
     19 C         -12.4223   -1.4538   18.8849 C.3     1  UNL1        0.0937
     20 C         -12.0826   -0.1900   18.1515 C.3     1  UNL1        0.0216
     21 C         -11.0490   -0.2084   17.0646 C.3     1  UNL1        0.0035
     22 C         -10.3551   -1.4903   16.7110 C.3     1  UNL1        0.0216
     23 C         -10.6948   -2.7540   17.4443 C.3     1  UNL1        0.0937
     24 C         -18.2942   -7.4618   18.4614 C.ar    1  UNL1        0.0158
     25 C         -18.8458   -7.0322   19.7885 C.ar    1  UNL1        0.0014
     26 C         -19.6768   -7.9827   20.5986 C.ar    1  UNL1        0.0000
     27 C         -19.9561   -9.3627   20.0815 C.ar    1  UNL1        0.0000
     28 C         -19.4044   -9.7923   18.7544 C.ar    1  UNL1        0.0000
     29 C         -18.5735   -8.8419   17.9444 C.ar    1  UNL1        0.0014
@<TRIPOS>BOND
     1    16    17    2
     2    17    10    1
     3    10    11   ar
     4    11    12   ar
     5    12    13   ar
     6    13    14   ar
     7    14    15   ar
     8    15     1    1
     9     1     2    1
    10     2     3    1
    11     3     4   ar
    12     4     5   ar
    13     5     6   ar
    14     6     7   ar
    15     7    24    1
    16    24    25   ar
    17    25    26   ar
    18    26    27   ar
    19    27    28   ar
    20    28    29   ar
    21     4     8    1
    22     8     9    2
    23    17    18   am
    24    18    19    1
    25    19    20    1
    26    20    21    1
    27    21    22    1
    28    22    23    1
    29    15    10   ar
    30     8     1   am
    31    23    18    1
    32     7     3   ar
    33    29    24   ar
@<TRIPOS>MOLECULE
*****
 29 33 0 0 0
SMALL
GASTEIGER

@<TRIPOS>ATOM
      1 N          -6.6757  -18.4677   21.8431 N.am    1  UNL1       -0.2334
      2 C          -7.9963  -18.3371   22.5424 C.3     1  UNL1        0.2104
      3 N          -9.0644  -18.8299   21.6117 N.ar    1  UNL1       -0.3057
      4 C          -8.4040  -19.2651   20.3371 C.ar    1  UNL1        0.1158
      5 C          -9.4721  -19.7579   19.4064 C.ar    1  UNL1        0.0234
      6 C         -10.7927  -19.6273   20.1058 C.ar    1  UNL1        0.0189
      7 C         -10.5407  -19.0538   21.4687 C.ar    1  UNL1        0.0614
      8 C          -6.9277  -19.0413   20.4801 C.2     1  UNL1        0.2701
      9 O          -5.8863  -19.3387   19.4424 O.2     1  UNL1       -0.2679
     10 C          -5.2001  -16.8581   23.2507 C.ar    1  UNL1        0.0673
     11 C          -3.8624  -16.4812   23.8152 C.ar    1  UNL1        0.0058
     12 C          -2.6627  -17.3374   23.5365 C.ar    1  UNL1        0.0002
     13 C          -2.8007  -18.5704   22.6934 C.ar    1  UNL1        0.0013
     14 C          -4.1383  -18.9472   22.1289 C.ar    1  UNL1        0.0151
     15 C          -5.3381  -18.0910   22.4075 C.ar    1  UNL1        0.0603
     16 O          -7.0702  -15.2629   22.4093 O.2     1  UNL1       -0.2699
     17 C          -6.3998  -16.0019   23.5293 C.2     1  UNL1        0.2502
     18 N          -6.9291  -15.8847   24.9280 N.am    1  UNL1       -0.2760
     19 C          -8.1288  -15.0285   25.2065 C.3     1  UNL1        0.0937
     20 C          -8.6581  -14.9113   26.6052 C.3     1  UNL1        0.0216
     21 C          -7.9876  -15.6503   27.7252 C.3     1  UNL1        0.0035
     22 C          -6.7879  -16.5065   27.4465 C.3     1  UNL1        0.0216
     23 C          -6.2587  -16.6237   26.0479 C.3     1  UNL1        0.0937
     24 C         -11.5822  -18.7563   22.5064 C.ar    1  UNL1        0.0158
     25 C         -12.8188  -17.9948   22.1311 C.ar    1  UNL1        0.0014
     26 C         -13.8603  -17.6973   23.1689 C.ar    1  UNL1        0.0000
     27 C         -13.6652  -18.1614   24.5818 C.ar    1  UNL1        0.0000
     28 C         -12.4285  -18.9230   24.9570 C.ar    1  UNL1        0.0000
     29 C         -11.3871  -19.2204   23.9194 C.ar    1  UNL1        0.0014
@<TRIPOS>BOND
     1    16    17    2
     2    17    10    1
     3    10    11   ar
     4    11    12   ar
     5    12    13   ar
     6    13    14   ar
     7    14    15   ar
     8    15     1    1
     9     1     2    1
    10     2     3    1
    11     3     4   ar
    12     4     5   ar
    13     5     6   ar
    14     6     7   ar
    15     7    24    1
    16    24    25   ar
    17    25    26   ar
    18    26    27   ar
    19    27    28   ar
    20    28    29   ar
    21     4     8    1
    22     8     9    2
    23    17    18   am
    24    18    19    1
    25    19    20    1
    26    20    21    1
    27    21    22    1
    28    22    23    1
    29    15    10   ar
    30     8     1   am
    31    23    18    1
    32     7     3   ar
    33    29    24   ar
@<TRIPOS>MOLECULE
*****
 29 33 0 0 0
SMALL
GASTEIGER

@<TRIPOS>ATOM
      1 N           4.5639    0.1158   18.6135 N.am    1  UNL1       -0.2334
      2 C           4.9251   -0.3881   19.9795 C.3     1  UNL1        0.2104
      3 N           4.8305   -1.8850   19.9613 N.ar    1  UNL1       -0.3057
      4 C           4.4108   -2.3063   18.5842 C.ar    1  UNL1        0.1158
      5 C           4.3162   -3.8032   18.5660 C.ar    1  UNL1        0.0234
      6 C           4.6774   -4.3070   19.9319 C.ar    1  UNL1        0.0189
      7 C           4.9952   -3.1215   20.7942 C.ar    1  UNL1        0.0614
      8 C           4.2461   -1.0697   17.7512 C.2     1  UNL1        0.2701
      9 O           3.8356   -1.0263   16.3092 O.2     1  UNL1       -0.2679
     10 C           3.2964    2.3759   18.4259 C.ar    1  UNL1        0.0673
     11 C           3.2594    3.8130   17.9975 C.ar    1  UNL1        0.0058
     12 C           4.4533    4.4270   17.3285 C.ar    1  UNL1        0.0002
     13 C           5.6841    3.6039   17.0878 C.ar    1  UNL1        0.0013
     14 C           5.7210    2.1669   17.5161 C.ar    1  UNL1        0.0151
     15 C           4.5271    1.5528   18.1852 C.ar    1  UNL1        0.0603
     16 O           1.0441    1.0900   18.2712 O.2     1  UNL1       -0.2699
     17 C           2.1025    1.7618   19.0949 C.2     1  UNL1        0.2502
     18 N           1.9670    1.8196   20.5877 N.am    1  UNL1       -0.2760
     19 C           0.7731    1.2055   21.2567 C.3     1  UNL1        0.0937
     20 C           0.6376    1.2633   22.7495 C.3     1  UNL1        0.0216
     21 C           1.6960    1.9351   23.5732 C.3     1  UNL1        0.0035
     22 C           2.8899    2.5491   22.9041 C.3     1  UNL1        0.0216
     23 C           3.0253    2.4914   21.4114 C.3     1  UNL1        0.0937
     24 C           5.4058   -3.1650   22.2363 C.ar    1  UNL1        0.0158
     25 C           4.6834   -2.3248   23.2473 C.ar    1  UNL1        0.0014
     26 C           5.0939   -2.3683   24.6895 C.ar    1  UNL1        0.0000
     27 C           6.2267   -3.2519   25.1205 C.ar    1  UNL1        0.0000
     28 C           6.9491   -4.0921   24.1093 C.ar    1  UNL1        0.0000
     29 C           6.5386   -4.0487   22.6673 C.ar    1  UNL1        0.0014
@<TRIPOS>BOND
     1    16    17    2
     2    17    10    1
     3    10    11   ar
     4    11    12   ar
     5    12    13   ar
     6    13    14   ar
     7    14    15   ar
     8    15     1    1
     9     1     2    1
    10     2     3    1
    11     3     4   ar
    12     4     5   ar
    13     5     6   ar
    14     6     7   ar
    15     7    24    1
    16    24    25   ar
    17    25    26   ar
    18    26    27   ar
    19    27    28   ar
    20    28    29   ar
    21     4     8    1
    22     8     9    2
    23    17    18   am
    24    18    19    1
    25    19    20    1
    26    20    21    1
    27    21    22    1
    28    22    23    1
    29    15    10   ar
    30     8     1   am
    31    23    18    1
    32     7     3   ar
    33    29    24   ar
@<TRIPOS>MOLECULE
*****
 29 33 0 0 0
SMALL
GASTEIGER

@<TRIPOS>ATOM
      1 N         -15.2654   -7.0029   18.6873 N.am    1  UNL1       -0.2334
      2 C         -14.5397   -5.6958   18.5651 C.3     1  UNL1        0.2104
      3 N         -13.1459   -5.9821   18.0905 N.ar    1  UNL1       -0.3057
      4 C         -13.0101   -7.4661   17.9193 C.ar    1  UNL1        0.1158
      5 C         -11.6163   -7.7524   17.4447 C.ar    1  UNL1        0.0234
      6 C         -10.8906   -6.4453   17.3225 C.ar    1  UNL1        0.0189
      7 C         -11.8360   -5.3512   17.7216 C.ar    1  UNL1        0.0614
      8 C         -14.3200   -8.0970   18.2882 C.2     1  UNL1        0.2701
      9 O         -14.6301   -9.5644   18.2625 O.2     1  UNL1       -0.2679
     10 C         -17.7717   -6.3354   18.5370 C.ar    1  UNL1        0.0673
     11 C         -19.1932   -6.5165   18.9804 C.ar    1  UNL1        0.0058
     12 C         -19.5298   -7.5465   20.0176 C.ar    1  UNL1        0.0002
     13 C         -18.4448   -8.3953   20.6114 C.ar    1  UNL1        0.0013
     14 C         -17.0234   -8.2141   20.1680 C.ar    1  UNL1        0.0151
     15 C         -16.6868   -7.1841   19.1307 C.ar    1  UNL1        0.0603
     16 O         -17.2131   -5.7201   16.0754 O.2     1  UNL1       -0.2699
     17 C         -17.4352   -5.3054   17.4997 C.2     1  UNL1        0.2502
     18 N         -17.3207   -3.8606   17.8868 N.am    1  UNL1       -0.2760
     19 C         -16.9841   -2.8308   16.8495 C.3     1  UNL1        0.0937
     20 C         -16.8697   -1.3860   17.2366 C.3     1  UNL1        0.0216
     21 C         -17.0917   -0.9713   18.6609 C.3     1  UNL1        0.0035
     22 C         -17.4283   -2.0013   19.6982 C.3     1  UNL1        0.0216
     23 C         -17.5428   -3.4460   19.3111 C.3     1  UNL1        0.0937
     24 C         -11.5258   -3.8838   17.7473 C.ar    1  UNL1        0.0158
     25 C         -10.7829   -3.2542   16.6064 C.ar    1  UNL1        0.0014
     26 C         -10.4728   -1.7868   16.6321 C.ar    1  UNL1        0.0000
     27 C         -10.9055   -0.9491   17.7986 C.ar    1  UNL1        0.0000
     28 C         -11.6484   -1.5788   18.9395 C.ar    1  UNL1        0.0000
     29 C         -11.9586   -3.0461   18.9139 C.ar    1  UNL1        0.0014
@<TRIPOS>BOND
     1    16    17    2
     2    17    10    1
     3    10    11   ar
     4    11    12   ar
     5    12    13   ar
     6    13    14   ar
     7    14    15   ar
     8    15     1    1
     9     1     2    1
    10     2     3    1
    11     3     4   ar
    12     4     5   ar
    13     5     6   ar
    14     6     7   ar
    15     7    24    1
    16    24    25   ar
    17    25    26   ar
    18    26    27   ar
    19    27    28   ar
    20    28    29   ar
    21     4     8    1
    22     8     9    2
    23    17    18   am
    24    18    19    1
    25    19    20    1
    26    20    21    1
    27    21    22    1
    28    22    23    1
    29    15    10   ar
    30     8     1   am
    31    23    18    1
    32     7     3   ar
    33    29    24   ar
@<TRIPOS>MOLECULE
*****
 29 33 0 0 0
SMALL
GASTEIGER

@<TRIPOS>ATOM
      1 N         -15.9278   -4.6585   18.4802 N.am    1  UNL1       -0.2334
      2 C         -15.0541   -3.5007   18.0976 C.3     1  UNL1        0.2104
      3 N         -15.6898   -2.2473   18.6219 N.ar    1  UNL1       -0.3057
      4 C         -16.9564   -2.6304   19.3284 C.ar    1  UNL1        0.1158
      5 C         -17.5921   -1.3770   19.8526 C.ar    1  UNL1        0.0234
      6 C         -16.7185   -0.2192   19.4701 C.ar    1  UNL1        0.0189
      7 C         -15.5428   -0.7571   18.7094 C.ar    1  UNL1        0.0614
      8 C         -17.1034   -4.1206   19.2408 C.2     1  UNL1        0.2701
      9 O         -18.2285   -4.9307   19.8134 O.2     1  UNL1       -0.2679
     10 C         -14.3551   -6.7262   18.5160 C.ar    1  UNL1        0.0673
     11 C         -14.0981   -8.1686   18.1943 C.ar    1  UNL1        0.0058
     12 C         -15.1570   -8.9857   17.5152 C.ar    1  UNL1        0.0002
     13 C         -16.4728   -8.3604   17.1578 C.ar    1  UNL1        0.0013
     14 C         -16.7297   -6.9180   17.4794 C.ar    1  UNL1        0.0151
     15 C         -15.6709   -6.1008   18.1585 C.ar    1  UNL1        0.0603
     16 O         -13.4603   -5.5147   20.6330 O.2     1  UNL1       -0.2699
     17 C         -13.2963   -5.9091   19.1951 C.2     1  UNL1        0.2502
     18 N         -12.0733   -5.4863   18.4362 N.am    1  UNL1       -0.2760
     19 C         -11.0145   -4.6692   19.1154 C.3     1  UNL1        0.0937
     20 C          -9.7916   -4.2464   18.3566 C.3     1  UNL1        0.0216
     21 C          -9.6275   -4.6408   16.9187 C.3     1  UNL1        0.0035
     22 C         -10.6864   -5.4578   16.2396 C.3     1  UNL1        0.0216
     23 C         -11.9093   -5.8806   16.9984 C.3     1  UNL1        0.0937
     24 C         -14.4177    0.0531   18.1369 C.ar    1  UNL1        0.0158
     25 C         -14.6832    1.4249   17.5915 C.ar    1  UNL1        0.0014
     26 C         -13.5581    2.2352   17.0189 C.ar    1  UNL1        0.0000
     27 C         -12.1676    1.6734   16.9918 C.ar    1  UNL1        0.0000
     28 C         -11.9021    0.3015   17.5372 C.ar    1  UNL1        0.0000
     29 C         -13.0271   -0.5087   18.1097 C.ar    1  UNL1        0.0014
@<TRIPOS>BOND
     1    16    17    2
     2    17    10    1
     3    10    11   ar
     4    11    12   ar
     5    12    13   ar
     6    13    14   ar
     7    14    15   ar
     8    15     1    1
     9     1     2    1
    10     2     3    1
    11     3     4   ar
    12     4     5   ar
    13     5     6   ar
    14     6     7   ar
    15     7    24    1
    16    24    25   ar
    17    25    26   ar
    18    26    27   ar
    19    27    28   ar
    20    28    29   ar
    21     4     8    1
    22     8     9    2
    23    17    18   am
    24    18    19    1
    25    19    20    1
    26    20    21    1
    27    21    22    1
    28    22    23    1
    29    15    10   ar
    30     8     1   am
    31    23    18    1
    32     7     3   ar
    33    29    24   ar
