@<TRIPOS>MOLECULE
*****
 28 31 0 0 0
SMALL
GASTEIGER

@<TRIPOS>ATOM
      1 C           7.5347   -3.5824   24.3157 C.3     1  UNL1        0.1572
      2 C           6.8667   -3.3528   22.9925 C.3     1  UNL1        0.1276
      3 N           6.8945   -1.9908   22.3646 N.pl3   1  UNL1       -0.2740
      4 C           7.5903   -0.8584   23.0599 C.3     1  UNL1        0.1257
      5 C           8.2583   -1.0880   24.3832 C.3     1  UNL1        0.1640
      6 O           8.2305   -2.4500   25.0111 O.3     1  UNL1       -0.3483
      7 C           6.2264   -1.7612   21.0413 C.ar    1  UNL1        0.2036
      8 N           4.8582   -1.1487   20.9881 N.ar    1  UNL1       -0.2133
      9 C           4.1901   -0.9192   19.6648 C.ar    1  UNL1        0.1065
     10 C           4.8903   -1.3021   18.3948 C.ar    1  UNL1        0.0815
     11 C           6.2586   -1.9146   18.4480 C.ar    1  UNL1        0.2646
     12 O           6.9588   -2.2975   17.1779 O.2     1  UNL1       -0.2668
     13 N           6.9266   -2.1441   19.7712 N.ar    1  UNL1       -0.2667
     14 C           8.2948   -2.7566   19.8244 C.3     1  UNL1        0.1363
     15 C           2.8219   -0.3067   19.6117 C.ar    1  UNL1        0.1024
     16 C           1.8538   -0.5350   20.7345 C.ar    1  UNL1        0.0414
     17 C           0.4856    0.0775   20.6813 C.ar    1  UNL1        0.1023
     18 N           0.0854    0.9183   19.5053 N.ar    1  UNL1       -0.2224
     19 C           1.0535    1.1466   18.3825 C.ar    1  UNL1        0.1989
     20 N           2.4218    0.5340   18.4357 N.ar    1  UNL1       -0.2224
     21 C           7.4514   -7.6683   26.1994 C.ar    1  UNL1        0.1387
     22 C           6.7976   -6.5096   26.8921 C.ar    1  UNL1        0.0367
     23 C           6.8254   -5.1476   26.2642 C.ar    1  UNL1        0.0012
     24 C           7.5069   -4.9443   24.9436 C.ar    1  UNL1        0.0064
     25 C           8.1607   -6.1030   24.2509 C.ar    1  UNL1        0.0012
     26 C           8.1330   -7.4650   24.8787 C.ar    1  UNL1        0.0367
     27 C           8.5806   -9.4956   27.6608 C.3     1  UNL1        0.2525
     28 O           7.4236   -9.0303   26.8272 O.3     1  UNL1       -0.4714
@<TRIPOS>BOND
     1    27    28    1
     2    28    21    1
     3    21    22   ar
     4    22    23   ar
     5    23    24   ar
     6     1    24    1
     7     1     2    1
     8     2     3    1
     9     3     7    1
    10     7     8   ar
    11     8     9   ar
    12     9    15    1
    13    15    16   ar
    14    16    17   ar
    15    17    18   ar
    16    18    19   ar
    17    19    20   ar
    18     9    10   ar
    19    10    11   ar
    20    11    12    2
    21    11    13   ar
    22    13    14    1
    23     3     4    1
    24     4     5    1
    25     5     6    1
    26    24    25   ar
    27    25    26   ar
    28    26    21   ar
    29     6     1    1
    30    13     7   ar
    31    20    15   ar
@<TRIPOS>MOLECULE
*****
 28 31 0 0 0
SMALL
GASTEIGER

@<TRIPOS>ATOM
      1 C           2.0928    1.9434   18.5064 C.3     1  UNL1        0.1572
      2 C           0.6098    2.1531   18.5880 C.3     1  UNL1        0.1276
      3 N           0.0411    3.5371   18.4828 N.pl3   1  UNL1       -0.2740
      4 C           0.9554    4.7114   18.2959 C.3     1  UNL1        0.1257
      5 C           2.4384    4.5017   18.2142 C.3     1  UNL1        0.1640
      6 O           3.0071    3.1177   18.3195 O.3     1  UNL1       -0.3483
      7 C          -1.4420    3.7467   18.5645 C.ar    1  UNL1        0.2036
      8 N          -2.1336    3.7022   19.8947 N.ar    1  UNL1       -0.2133
      9 C          -3.6167    3.9118   19.9764 C.ar    1  UNL1        0.1065
     10 C          -4.4081    4.1660   18.7278 C.ar    1  UNL1        0.0815
     11 C          -3.7164    4.2105   17.3975 C.ar    1  UNL1        0.2646
     12 O          -4.5078    4.4647   16.1488 O.2     1  UNL1       -0.2668
     13 N          -2.2334    4.0009   17.3158 N.ar    1  UNL1       -0.2667
     14 C          -1.5417    4.0454   15.9855 C.3     1  UNL1        0.1363
     15 C          -4.3083    3.8673   21.3067 C.ar    1  UNL1        0.1024
     16 C          -5.7799    4.1438   21.3965 C.ar    1  UNL1        0.0414
     17 C          -6.4715    4.0992   22.7268 C.ar    1  UNL1        0.1023
     18 N          -5.6915    3.7782   23.9673 N.ar    1  UNL1       -0.2224
     19 C          -4.2200    3.5018   23.8774 C.ar    1  UNL1        0.1989
     20 N          -3.5283    3.5463   22.5470 N.ar    1  UNL1       -0.2224
     21 C           3.7989   -2.2086   18.8221 C.ar    1  UNL1        0.1387
     22 C           4.1573   -1.3373   17.6550 C.ar    1  UNL1        0.0367
     23 C           3.5886    0.0467   17.5498 C.ar    1  UNL1        0.0012
     24 C           2.6615    0.5594   18.6116 C.ar    1  UNL1        0.0064
     25 C           2.3031   -0.3120   19.7788 C.ar    1  UNL1        0.0012
     26 C           2.8718   -1.6960   19.8840 C.ar    1  UNL1        0.0367
     27 C           3.4796   -4.7419   19.3022 C.3     1  UNL1        0.2525
     28 O           4.3677   -3.5926   18.9274 O.3     1  UNL1       -0.4714
@<TRIPOS>BOND
     1    27    28    1
     2    28    21    1
     3    21    22   ar
     4    22    23   ar
     5    23    24   ar
     6     1    24    1
     7     1     2    1
     8     2     3    1
     9     3     7    1
    10     7     8   ar
    11     8     9   ar
    12     9    15    1
    13    15    16   ar
    14    16    17   ar
    15    17    18   ar
    16    18    19   ar
    17    19    20   ar
    18     9    10   ar
    19    10    11   ar
    20    11    12    2
    21    11    13   ar
    22    13    14    1
    23     3     4    1
    24     4     5    1
    25     5     6    1
    26    24    25   ar
    27    25    26   ar
    28    26    21   ar
    29     6     1    1
    30    13     7   ar
    31    20    15   ar
@<TRIPOS>MOLECULE
*****
 28 31 0 0 0
SMALL
GASTEIGER

@<TRIPOS>ATOM
      1 C           6.3406   -3.0093   22.3335 C.3     1  UNL1        0.1572
      2 C           6.3113   -3.7852   23.6169 C.3     1  UNL1        0.1276
      3 N           7.5872   -4.3119   24.2041 N.pl3   1  UNL1       -0.2740
      4 C           8.8922   -4.0627   23.5080 C.3     1  UNL1        0.1257
      5 C           8.9215   -3.2868   22.2247 C.3     1  UNL1        0.1640
      6 O           7.6456   -2.7601   21.6374 O.3     1  UNL1       -0.3483
      7 C           7.5579   -5.0879   25.4876 C.ar    1  UNL1        0.2036
      8 N           7.2420   -4.3915   26.7780 N.ar    1  UNL1       -0.2133
      9 C           7.2128   -5.1674   28.0614 C.ar    1  UNL1        0.1065
     10 C           7.4994   -6.6398   28.0544 C.ar    1  UNL1        0.0815
     11 C           7.8153   -7.3362   26.7638 C.ar    1  UNL1        0.2646
     12 O           8.1019   -8.8085   26.7568 O.2     1  UNL1       -0.2668
     13 N           7.8445   -6.5602   25.4805 N.ar    1  UNL1       -0.2667
     14 C           8.1604   -7.2566   24.1900 C.3     1  UNL1        0.1363
     15 C           6.8969   -4.4710   29.3518 C.ar    1  UNL1        0.1024
     16 C           6.9994   -5.2150   30.6503 C.ar    1  UNL1        0.0414
     17 C           6.6835   -4.5186   31.9407 C.ar    1  UNL1        0.1023
     18 N           6.2651   -3.0781   31.9327 N.ar    1  UNL1       -0.2224
     19 C           6.1625   -2.3341   30.6343 C.ar    1  UNL1        0.1989
     20 N           6.4785   -3.0306   29.3438 N.ar    1  UNL1       -0.2224
     21 C           2.5130   -1.4293   20.5718 C.ar    1  UNL1        0.1387
     22 C           2.9083   -1.0508   21.9684 C.ar    1  UNL1        0.0367
     23 C           4.1841   -1.5775   22.5556 C.ar    1  UNL1        0.0012
     24 C           5.0647   -2.4827   21.7463 C.ar    1  UNL1        0.0064
     25 C           4.6695   -2.8612   20.3497 C.ar    1  UNL1        0.0012
     26 C           3.3937   -2.3345   19.7625 C.ar    1  UNL1        0.0367
     27 C           0.5319    0.2503   20.6351 C.3     1  UNL1        0.2525
     28 O           1.2372   -0.9027   19.9846 O.3     1  UNL1       -0.4714
@<TRIPOS>BOND
     1    27    28    1
     2    28    21    1
     3    21    22   ar
     4    22    23   ar
     5    23    24   ar
     6     1    24    1
     7     1     2    1
     8     2     3    1
     9     3     7    1
    10     7     8   ar
    11     8     9   ar
    12     9    15    1
    13    15    16   ar
    14    16    17   ar
    15    17    18   ar
    16    18    19   ar
    17    19    20   ar
    18     9    10   ar
    19    10    11   ar
    20    11    12    2
    21    11    13   ar
    22    13    14    1
    23     3     4    1
    24     4     5    1
    25     5     6    1
    26    24    25   ar
    27    25    26   ar
    28    26    21   ar
    29     6     1    1
    30    13     7   ar
    31    20    15   ar
@<TRIPOS>MOLECULE
*****
 28 31 0 0 0
SMALL
GASTEIGER

@<TRIPOS>ATOM
      1 C           0.3441    2.7540   19.2131 C.3     1  UNL1        0.1572
      2 C          -0.9864    2.7923   19.9046 C.3     1  UNL1        0.1276
      3 N          -1.8035    4.0501   19.8897 N.pl3   1  UNL1       -0.2740
      4 C          -1.2900    5.2697   19.1833 C.3     1  UNL1        0.1257
      5 C           0.0405    5.2314   18.4918 C.3     1  UNL1        0.1640
      6 O           0.8576    3.9735   18.5067 O.3     1  UNL1       -0.3483
      7 C          -3.1340    4.0884   20.5813 C.ar    1  UNL1        0.2036
      8 N          -3.1999    4.2182   22.0742 N.ar    1  UNL1       -0.2133
      9 C          -4.5305    4.2565   22.7657 C.ar    1  UNL1        0.1065
     10 C          -5.7951    4.1649   21.9643 C.ar    1  UNL1        0.0815
     11 C          -5.7292    4.0350   20.4714 C.ar    1  UNL1        0.2646
     12 O          -6.9939    3.9434   19.6699 O.2     1  UNL1       -0.2668
     13 N          -4.3987    3.9968   19.7799 N.ar    1  UNL1       -0.2667
     14 C          -4.3328    3.8669   18.2869 C.3     1  UNL1        0.1363
     15 C          -4.5963    4.3863   24.2586 C.ar    1  UNL1        0.1024
     16 C          -5.6895    5.1935   24.8937 C.ar    1  UNL1        0.0414
     17 C          -5.7554    5.3233   26.3866 C.ar    1  UNL1        0.1023
     18 N          -4.7280    4.6460   27.2445 N.ar    1  UNL1       -0.2224
     19 C          -3.6348    3.8388   26.6093 C.ar    1  UNL1        0.1989
     20 N          -3.5690    3.7090   25.1164 N.ar    1  UNL1       -0.2224
     21 C           2.7954   -1.0195   19.2579 C.ar    1  UNL1        0.1387
     22 C           3.2154    0.1376   18.4007 C.ar    1  UNL1        0.0367
     23 C           2.3983    1.3954   18.3858 C.ar    1  UNL1        0.0012
     24 C           1.1612    1.4962   19.2280 C.ar    1  UNL1        0.0064
     25 C           0.7413    0.3391   20.0852 C.ar    1  UNL1        0.0012
     26 C           1.5583   -0.9187   20.1001 C.ar    1  UNL1        0.0367
     27 C           4.8041   -2.4083   18.3713 C.3     1  UNL1        0.2525
     28 O           3.6125   -2.2773   19.2728 O.3     1  UNL1       -0.4714
@<TRIPOS>BOND
     1    27    28    1
     2    28    21    1
     3    21    22   ar
     4    22    23   ar
     5    23    24   ar
     6     1    24    1
     7     1     2    1
     8     2     3    1
     9     3     7    1
    10     7     8   ar
    11     8     9   ar
    12     9    15    1
    13    15    16   ar
    14    16    17   ar
    15    17    18   ar
    16    18    19   ar
    17    19    20   ar
    18     9    10   ar
    19    10    11   ar
    20    11    12    2
    21    11    13   ar
    22    13    14    1
    23     3     4    1
    24     4     5    1
    25     5     6    1
    26    24    25   ar
    27    25    26   ar
    28    26    21   ar
    29     6     1    1
    30    13     7   ar
    31    20    15   ar
@<TRIPOS>MOLECULE
*****
 28 31 0 0 0
SMALL
GASTEIGER

@<TRIPOS>ATOM
      1 C           1.0148    1.2945   19.1911 C.3     1  UNL1        0.1572
      2 C           0.4053    1.5759   20.5325 C.3     1  UNL1        0.1276
      3 N          -0.5521    2.7189   20.6963 N.pl3   1  UNL1       -0.2740
      4 C          -0.9000    3.5806   19.5189 C.3     1  UNL1        0.1257
      5 C          -0.2905    3.2992   18.1775 C.3     1  UNL1        0.1640
      6 O           0.6670    2.1562   18.0136 O.3     1  UNL1       -0.3483
      7 C          -1.1616    3.0002   22.0378 C.ar    1  UNL1        0.2036
      8 N          -2.6127    3.3658   22.1404 N.ar    1  UNL1       -0.2133
      9 C          -3.2223    3.6471   23.4819 C.ar    1  UNL1        0.1065
     10 C          -2.3806    3.5629   24.7206 C.ar    1  UNL1        0.0815
     11 C          -0.9294    3.1973   24.6179 C.ar    1  UNL1        0.2646
     12 O          -0.0877    3.1131   25.8567 O.2     1  UNL1       -0.2668
     13 N          -0.3200    2.9160   23.2765 N.ar    1  UNL1       -0.2667
     14 C           1.1312    2.5505   23.1738 C.3     1  UNL1        0.1363
     15 C          -4.6734    4.0127   23.5845 C.ar    1  UNL1        0.1024
     16 C          -5.2228    4.5474   24.8738 C.ar    1  UNL1        0.0414
     17 C          -6.6739    4.9129   24.9765 C.ar    1  UNL1        0.1023
     18 N          -7.5757    4.7437   23.7898 N.ar    1  UNL1       -0.2224
     19 C          -7.0264    4.2090   22.5005 C.ar    1  UNL1        0.1989
     20 N          -5.5751    3.8435   22.3979 N.ar    1  UNL1       -0.2224
     21 C           3.8871   -2.1346   18.6994 C.ar    1  UNL1        0.1387
     22 C           2.9676   -2.0903   19.8837 C.ar    1  UNL1        0.0367
     23 C           2.0102   -0.9473   20.0476 C.ar    1  UNL1        0.0012
     24 C           1.9722    0.1515   19.0272 C.ar    1  UNL1        0.0064
     25 C           2.8917    0.1072   17.8429 C.ar    1  UNL1        0.0012
     26 C           3.8491   -1.0358   17.6790 C.ar    1  UNL1        0.0367
     27 C           4.4220   -4.6686   18.9050 C.3     1  UNL1        0.2525
     28 O           4.8445   -3.2776   18.5355 O.3     1  UNL1       -0.4714
@<TRIPOS>BOND
     1    27    28    1
     2    28    21    1
     3    21    22   ar
     4    22    23   ar
     5    23    24   ar
     6     1    24    1
     7     1     2    1
     8     2     3    1
     9     3     7    1
    10     7     8   ar
    11     8     9   ar
    12     9    15    1
    13    15    16   ar
    14    16    17   ar
    15    17    18   ar
    16    18    19   ar
    17    19    20   ar
    18     9    10   ar
    19    10    11   ar
    20    11    12    2
    21    11    13   ar
    22    13    14    1
    23     3     4    1
    24     4     5    1
    25     5     6    1
    26    24    25   ar
    27    25    26   ar
    28    26    21   ar
    29     6     1    1
    30    13     7   ar
    31    20    15   ar
@<TRIPOS>MOLECULE
*****
 28 31 0 0 0
SMALL
GASTEIGER

@<TRIPOS>ATOM
      1 C          -2.3859    3.5736   20.0797 C.3     1  UNL1        0.1572
      2 C          -0.9304    3.2325   19.9575 C.3     1  UNL1        0.1276
      3 N          -0.2586    3.2814   18.6172 N.pl3   1  UNL1       -0.2740
      4 C          -1.0423    3.6714   17.3992 C.3     1  UNL1        0.1257
      5 C          -2.4979    4.0124   17.5214 C.3     1  UNL1        0.1640
      6 O          -3.1697    3.9635   18.8617 O.3     1  UNL1       -0.3483
      7 C           1.1971    2.9403   18.4950 C.ar    1  UNL1        0.2036
      8 N           1.6530    1.5229   18.6766 N.ar    1  UNL1       -0.2133
      9 C           3.1087    1.1818   18.5544 C.ar    1  UNL1        0.1065
     10 C           4.1083    2.2582   18.2506 C.ar    1  UNL1        0.0815
     11 C           3.6522    3.6757   18.0691 C.ar    1  UNL1        0.2646
     12 O           4.6518    4.7521   17.7654 O.2     1  UNL1       -0.2668
     13 N           2.1966    4.0167   18.1913 N.ar    1  UNL1       -0.2667
     14 C           1.7406    5.4342   18.0097 C.3     1  UNL1        0.1363
     15 C           3.5647   -0.2356   18.7359 C.ar    1  UNL1        0.1024
     16 C           4.4819   -0.8632   17.7286 C.ar    1  UNL1        0.0414
     17 C           4.9379   -2.2806   17.9101 C.ar    1  UNL1        0.1023
     18 N           4.4766   -3.0704   19.0991 N.ar    1  UNL1       -0.2224
     19 C           3.5594   -2.4428   20.1064 C.ar    1  UNL1        0.1989
     20 N           3.1034   -1.0253   19.9248 N.ar    1  UNL1       -0.2224
     21 C          -4.4014    3.4270   24.1005 C.ar    1  UNL1        0.1387
     22 C          -2.9278    3.6921   24.0094 C.ar    1  UNL1        0.0367
     23 C          -2.2560    3.7409   22.6691 C.ar    1  UNL1        0.0012
     24 C          -3.0577    3.5247   21.4200 C.ar    1  UNL1        0.0064
     25 C          -4.5313    3.2596   21.5111 C.ar    1  UNL1        0.0012
     26 C          -5.2031    3.2108   22.8513 C.ar    1  UNL1        0.0367
     27 C          -4.5363    4.1942   26.5790 C.3     1  UNL1        0.2525
     28 O          -5.0732    3.3781   25.4407 O.3     1  UNL1       -0.4714
@<TRIPOS>BOND
     1    27    28    1
     2    28    21    1
     3    21    22   ar
     4    22    23   ar
     5    23    24   ar
     6     1    24    1
     7     1     2    1
     8     2     3    1
     9     3     7    1
    10     7     8   ar
    11     8     9   ar
    12     9    15    1
    13    15    16   ar
    14    16    17   ar
    15    17    18   ar
    16    18    19   ar
    17    19    20   ar
    18     9    10   ar
    19    10    11   ar
    20    11    12    2
    21    11    13   ar
    22    13    14    1
    23     3     4    1
    24     4     5    1
    25     5     6    1
    26    24    25   ar
    27    25    26   ar
    28    26    21   ar
    29     6     1    1
    30    13     7   ar
    31    20    15   ar
@<TRIPOS>MOLECULE
*****
 28 31 0 0 0
SMALL
GASTEIGER

@<TRIPOS>ATOM
      1 C           0.5537    1.7378   19.1949 C.3     1  UNL1        0.1572
      2 C          -0.2452    1.9566   20.4454 C.3     1  UNL1        0.1276
      3 N          -1.2373    3.0795   20.5149 N.pl3   1  UNL1       -0.2740
      4 C          -1.4304    3.9837   19.3337 C.3     1  UNL1        0.1257
      5 C          -0.6315    3.7649   18.0832 C.3     1  UNL1        0.1640
      6 O           0.3605    2.6420   18.0138 O.3     1  UNL1       -0.3483
      7 C          -2.0362    3.2982   21.7655 C.ar    1  UNL1        0.2036
      8 N          -1.3385    3.4440   23.0853 N.ar    1  UNL1       -0.2133
      9 C          -2.1374    3.6628   24.3359 C.ar    1  UNL1        0.1065
     10 C          -3.6340    3.7357   24.2666 C.ar    1  UNL1        0.0815
     11 C          -4.3317    3.5898   22.9467 C.ar    1  UNL1        0.2646
     12 O          -5.8283    3.6627   22.8774 O.2     1  UNL1       -0.2668
     13 N          -3.5328    3.3711   21.6962 N.ar    1  UNL1       -0.2667
     14 C          -4.2305    3.2253   20.3763 C.3     1  UNL1        0.1363
     15 C          -1.4397    3.8086   25.6557 C.ar    1  UNL1        0.1024
     16 C          -0.8873    2.5990   26.3497 C.ar    1  UNL1        0.0414
     17 C          -0.1896    2.7448   27.6695 C.ar    1  UNL1        0.1023
     18 N          -0.0442    4.1003   28.2953 N.ar    1  UNL1       -0.2224
     19 C          -0.5966    5.3099   27.6013 C.ar    1  UNL1        0.1989
     20 N          -1.2944    5.1640   26.2814 N.ar    1  UNL1       -0.2224
     21 C           3.5299   -1.6310   18.9867 C.ar    1  UNL1        0.1387
     22 C           2.4907   -1.6141   20.0682 C.ar    1  UNL1        0.0367
     23 C           1.4986   -0.4912   20.1376 C.ar    1  UNL1        0.0012
     24 C           1.5458    0.6149   19.1255 C.ar    1  UNL1        0.0064
     25 C           2.5850    0.5980   18.0440 C.ar    1  UNL1        0.0012
     26 C           3.5770   -0.5250   17.9746 C.ar    1  UNL1        0.0367
     27 C           4.0537   -4.1756   19.0158 C.3     1  UNL1        0.2525
     28 O           4.5220   -2.7540   18.9173 O.3     1  UNL1       -0.4714
@<TRIPOS>BOND
     1    27    28    1
     2    28    21    1
     3    21    22   ar
     4    22    23   ar
     5    23    24   ar
     6     1    24    1
     7     1     2    1
     8     2     3    1
     9     3     7    1
    10     7     8   ar
    11     8     9   ar
    12     9    15    1
    13    15    16   ar
    14    16    17   ar
    15    17    18   ar
    16    18    19   ar
    17    19    20   ar
    18     9    10   ar
    19    10    11   ar
    20    11    12    2
    21    11    13   ar
    22    13    14    1
    23     3     4    1
    24     4     5    1
    25     5     6    1
    26    24    25   ar
    27    25    26   ar
    28    26    21   ar
    29     6     1    1
    30    13     7   ar
    31    20    15   ar
@<TRIPOS>MOLECULE
*****
 28 31 0 0 0
SMALL
GASTEIGER

@<TRIPOS>ATOM
      1 C           1.7900    0.3751   22.0409 C.3     1  UNL1        0.1572
      2 C           0.7826    1.0187   21.1349 C.3     1  UNL1        0.1276
      3 N          -0.0070    2.2017   21.6114 N.pl3   1  UNL1       -0.2740
      4 C           0.2108    2.7411   22.9940 C.3     1  UNL1        0.1257
      5 C           1.2182    2.0975   23.9000 C.3     1  UNL1        0.1640
      6 O           2.0078    0.9145   23.4234 O.3     1  UNL1       -0.3483
      7 C          -1.0144    2.8453   20.7053 C.ar    1  UNL1        0.2036
      8 N          -2.3754    3.1982   21.2277 N.ar    1  UNL1       -0.2133
      9 C          -3.3829    3.8418   20.3216 C.ar    1  UNL1        0.1065
     10 C          -3.0292    4.1324   18.8931 C.ar    1  UNL1        0.0815
     11 C          -1.6681    3.7794   18.3708 C.ar    1  UNL1        0.2646
     12 O          -1.3144    4.0699   16.9423 O.2     1  UNL1       -0.2668
     13 N          -0.6607    3.1358   19.2769 N.ar    1  UNL1       -0.2667
     14 C           0.7004    2.7828   18.7545 C.3     1  UNL1        0.1363
     15 C          -4.7439    4.1948   20.8439 C.ar    1  UNL1        0.1024
     16 C          -5.6850    5.0024   20.0000 C.ar    1  UNL1        0.0414
     17 C          -7.0460    5.3553   20.5223 C.ar    1  UNL1        0.1023
     18 N          -7.4661    4.9008   21.8887 N.ar    1  UNL1       -0.2224
     19 C          -6.5250    4.0932   22.7327 C.ar    1  UNL1        0.1989
     20 N          -5.1639    3.7402   22.2103 N.ar    1  UNL1       -0.2224
     21 C           4.1588   -3.1738   20.6112 C.ar    1  UNL1        0.1387
     22 C           4.2989   -2.6998   22.0274 C.ar    1  UNL1        0.0367
     23 C           3.5093   -1.5168   22.5039 C.ar    1  UNL1        0.0012
     24 C           2.5796   -0.8078   21.5643 C.ar    1  UNL1        0.0064
     25 C           2.4395   -1.2818   20.1481 C.ar    1  UNL1        0.0012
     26 C           3.2291   -2.4648   19.6715 C.ar    1  UNL1        0.0367
     27 C           4.5188   -5.0987   18.9038 C.3     1  UNL1        0.2525
     28 O           4.9484   -4.3568   20.1346 O.3     1  UNL1       -0.4714
@<TRIPOS>BOND
     1    27    28    1
     2    28    21    1
     3    21    22   ar
     4    22    23   ar
     5    23    24   ar
     6     1    24    1
     7     1     2    1
     8     2     3    1
     9     3     7    1
    10     7     8   ar
    11     8     9   ar
    12     9    15    1
    13    15    16   ar
    14    16    17   ar
    15    17    18   ar
    16    18    19   ar
    17    19    20   ar
    18     9    10   ar
    19    10    11   ar
    20    11    12    2
    21    11    13   ar
    22    13    14    1
    23     3     4    1
    24     4     5    1
    25     5     6    1
    26    24    25   ar
    27    25    26   ar
    28    26    21   ar
    29     6     1    1
    30    13     7   ar
    31    20    15   ar
@<TRIPOS>MOLECULE
*****
 28 31 0 0 0
SMALL
GASTEIGER

@<TRIPOS>ATOM
      1 C           4.0522   -0.3670   24.0160 C.3     1  UNL1        0.1572
      2 C           2.7472   -0.1045   24.7073 C.3     1  UNL1        0.1276
      3 N           2.6293    1.0299   25.6816 N.pl3   1  UNL1       -0.2740
      4 C           3.8165    1.9019   25.9645 C.3     1  UNL1        0.1257
      5 C           5.1216    1.6395   25.2732 C.3     1  UNL1        0.1640
      6 O           5.2394    0.5050   24.2990 O.3     1  UNL1       -0.3483
      7 C           1.3242    1.2923   26.3729 C.ar    1  UNL1        0.2036
      8 N           0.2776    2.1339   25.7049 N.ar    1  UNL1       -0.2133
      9 C          -1.0276    2.3963   26.3962 C.ar    1  UNL1        0.1065
     10 C          -1.2860    1.8171   27.7555 C.ar    1  UNL1        0.0815
     11 C          -0.2393    0.9755   28.4235 C.ar    1  UNL1        0.2646
     12 O          -0.4977    0.3963   29.7828 O.2     1  UNL1       -0.2668
     13 N           1.0658    0.7131   27.7322 N.ar    1  UNL1       -0.2667
     14 C           2.1125   -0.1285   28.4002 C.3     1  UNL1        0.1363
     15 C          -2.0742    3.2378   25.7281 C.ar    1  UNL1        0.1024
     16 C          -3.2592    3.7217   26.5102 C.ar    1  UNL1        0.0414
     17 C          -4.3058    4.5632   25.8422 C.ar    1  UNL1        0.1023
     18 N          -4.1675    4.9210   24.3920 N.ar    1  UNL1       -0.2224
     19 C          -2.9825    4.4371   23.6099 C.ar    1  UNL1        0.1989
     20 N          -1.9359    3.5955   24.2780 N.ar    1  UNL1       -0.2224
     21 C           4.4058   -3.7703   21.0932 C.ar    1  UNL1        0.1387
     22 C           3.7549   -2.4857   20.6735 C.ar    1  UNL1        0.0367
     23 C           3.6370   -1.3513   21.6478 C.ar    1  UNL1        0.0012
     24 C           4.1701   -1.5014   23.0417 C.ar    1  UNL1        0.0064
     25 C           4.8210   -2.7859   23.4615 C.ar    1  UNL1        0.0012
     26 C           4.9388   -3.9204   22.4872 C.ar    1  UNL1        0.0367
     27 C           4.7034   -4.6221   18.6569 C.3     1  UNL1        0.2525
     28 O           4.5236   -4.9047   20.1190 O.3     1  UNL1       -0.4714
@<TRIPOS>BOND
     1    27    28    1
     2    28    21    1
     3    21    22   ar
     4    22    23   ar
     5    23    24   ar
     6     1    24    1
     7     1     2    1
     8     2     3    1
     9     3     7    1
    10     7     8   ar
    11     8     9   ar
    12     9    15    1
    13    15    16   ar
    14    16    17   ar
    15    17    18   ar
    16    18    19   ar
    17    19    20   ar
    18     9    10   ar
    19    10    11   ar
    20    11    12    2
    21    11    13   ar
    22    13    14    1
    23     3     4    1
    24     4     5    1
    25     5     6    1
    26    24    25   ar
    27    25    26   ar
    28    26    21   ar
    29     6     1    1
    30    13     7   ar
    31    20    15   ar
