@<TRIPOS>MOLECULE
*****
 33 37 0 0 0
SMALL
GASTEIGER

@<TRIPOS>ATOM
      1 C         -13.7051   -5.9405   17.4094 C.3     1  UNL1        0.2026
      2 C         -12.2548   -5.5612   17.3574 C.ar    1  UNL1        0.0163
      3 C         -11.5396   -4.4163   16.7034 C.ar    1  UNL1        0.0104
      4 C         -10.0496   -4.2947   16.8257 C.ar    1  UNL1        0.0583
      5 CL         -9.3344   -3.1497   16.1717 Cl      1  UNL1       -0.0822
      6 C          -9.2747   -5.3180   17.6019 C.ar    1  UNL1        0.0224
      7 C          -9.9899   -6.4629   18.2558 C.ar    1  UNL1        0.0544
      8 CL         -9.2150   -7.4862   19.0320 Cl      1  UNL1       -0.0826
      9 C         -11.4799   -6.5845   18.1335 C.ar    1  UNL1       -0.0106
     10 C         -12.4514   -7.5962   18.6653 C.3     1  UNL1        0.0470
     11 C         -13.8266   -7.1981   18.2178 C.3     1  UNL1        0.1066
     12 N         -15.0998   -7.9294   18.5248 N.3     1  UNL1       -0.2691
     13 C         -15.1815   -9.3370   18.0129 C.3     1  UNL1        0.0737
     14 C         -16.3066  -10.3192   18.1529 C.3     1  UNL1        0.0346
     15 C         -17.6278  -10.1364   18.8393 C.3     1  UNL1        0.0736
     16 N         -18.1502   -8.9263   19.5552 N.3     1  UNL1       -0.2703
     17 C         -19.5240   -9.0600   20.1423 C.3     1  UNL1        0.0897
     18 C         -17.4805   -7.6000   19.7615 C.3     1  UNL1        0.0897
     19 C         -16.1230   -7.1563   19.3030 C.3     1  UNL1        0.0897
     20 O         -14.8355   -5.1932   16.7661 O.3     1  UNL1       -0.4734
     21 C         -17.2164   -2.2176   19.1592 C.ar    1  UNL1        0.0664
     22 C         -15.9652   -2.8128   19.7338 C.ar    1  UNL1        0.0207
     23 C         -15.1715   -3.8047   18.9361 C.ar    1  UNL1        0.0384
     24 C         -15.6291   -4.2014   17.5637 C.ar    1  UNL1        0.1390
     25 C         -16.8803   -3.6061   16.9891 C.ar    1  UNL1        0.0384
     26 C         -17.6739   -2.6143   17.7869 C.ar    1  UNL1        0.0207
     27 C         -20.2165   -2.6805   20.3568 C.3     1  UNL1        0.0742
     28 C         -19.3890   -1.4384   20.5074 C.ar    1  UNL1        0.1473
     29 N         -19.7952   -0.1912   21.2349 N.ar    1  UNL1       -0.1333
     30 N         -18.6672    0.7924   21.1340 N.ar    1  UNL1       -0.1333
     31 C         -17.5639    0.1531   20.3442 C.ar    1  UNL1        0.1473
     32 C         -16.2459    0.7820   20.0017 C.3     1  UNL1        0.0742
     33 N         -18.0100   -1.2257   19.9569 N.ar    1  UNL1       -0.2807
@<TRIPOS>BOND
     1    27    28    1
     2    28    29   ar
     3    29    30   ar
     4    30    31   ar
     5    31    32    1
     6    31    33   ar
     7    33    21    1
     8    21    22   ar
     9    22    23   ar
    10    23    24   ar
    11    24    20    1
    12     1    20    1
    13     1     2    1
    14     2     3   ar
    15     3     4   ar
    16     4     5    1
    17     4     6   ar
    18     6     7   ar
    19     7     8    1
    20     7     9   ar
    21     9    10    1
    22    10    11    1
    23    11    12    1
    24    12    13    1
    25    13    14    1
    26    14    15    1
    27    15    16    1
    28    16    17    1
    29    16    18    1
    30    18    19    1
    31    24    25   ar
    32    25    26   ar
    33    33    28   ar
    34    26    21   ar
    35    11     1    1
    36    19    12    1
    37     9     2   ar
@<TRIPOS>MOLECULE
*****
 33 37 0 0 0
SMALL
GASTEIGER

@<TRIPOS>ATOM
      1 C         -13.7707   -5.8180   17.5855 C.3     1  UNL1        0.2026
      2 C         -12.3034   -5.5257   17.4779 C.ar    1  UNL1        0.0163
      3 C         -11.5498   -4.3865   16.8582 C.ar    1  UNL1        0.0104
      4 C         -10.0507   -4.3646   16.9063 C.ar    1  UNL1        0.0583
      5 CL         -9.2970   -3.2253   16.2865 Cl      1  UNL1       -0.0822
      6 C          -9.3054   -5.4819   17.5741 C.ar    1  UNL1        0.0224
      7 C         -10.0590   -6.6212   18.1938 C.ar    1  UNL1        0.0544
      8 CL         -9.3136   -7.7385   18.8615 Cl      1  UNL1       -0.0826
      9 C         -11.5580   -6.6431   18.1457 C.ar    1  UNL1       -0.0106
     10 C         -12.5647   -7.6259   18.6659 C.3     1  UNL1        0.0470
     11 C         -13.9322   -7.1160   18.3197 C.3     1  UNL1        0.1066
     12 N         -15.2329   -7.7864   18.6498 N.3     1  UNL1       -0.2691
     13 C         -15.3477   -9.2236   18.2358 C.3     1  UNL1        0.0737
     14 C         -16.5047  -10.1602   18.4200 C.3     1  UNL1        0.0346
     15 C         -17.8327   -9.8912   19.0636 C.3     1  UNL1        0.0736
     16 N         -18.3315   -8.6189   19.6820 N.3     1  UNL1       -0.2703
     17 C         -19.7197   -8.6709   20.2477 C.3     1  UNL1        0.0897
     18 C         -17.6256   -7.3015   19.8096 C.3     1  UNL1        0.0897
     19 C         -16.2466   -6.9310   19.3502 C.3     1  UNL1        0.0897
     20 O         -14.8815   -4.9625   17.0524 O.3     1  UNL1       -0.4734
     21 C         -15.2950   -0.6975   18.4267 C.ar    1  UNL1        0.0664
     22 C         -15.7177   -1.0830   17.0400 C.ar    1  UNL1        0.0207
     23 C         -15.5798   -2.5046   16.5819 C.ar    1  UNL1        0.0384
     24 C         -15.0193   -3.5409   17.5105 C.ar    1  UNL1        0.1390
     25 C         -14.5967   -3.1554   18.8971 C.ar    1  UNL1        0.0384
     26 C         -14.7345   -1.7337   19.3552 C.ar    1  UNL1        0.0207
     27 C         -17.4249    0.4071   20.6386 C.3     1  UNL1        0.0742
     28 C         -16.4118    1.2320   19.9014 C.ar    1  UNL1        0.1473
     29 N         -16.1999    2.7093   20.0516 N.ar    1  UNL1       -0.1333
     30 N         -15.0899    3.1146   19.1276 N.ar    1  UNL1       -0.1333
     31 C         -14.6158    1.8877   18.4065 C.ar    1  UNL1        0.1473
     32 C         -13.5176    1.8339   17.3861 C.3     1  UNL1        0.0742
     33 N         -15.4328    0.7242   18.8847 N.ar    1  UNL1       -0.2807
@<TRIPOS>BOND
     1    27    28    1
     2    28    29   ar
     3    29    30   ar
     4    30    31   ar
     5    31    32    1
     6    31    33   ar
     7    33    21    1
     8    21    22   ar
     9    22    23   ar
    10    23    24   ar
    11    24    20    1
    12     1    20    1
    13     1     2    1
    14     2     3   ar
    15     3     4   ar
    16     4     5    1
    17     4     6   ar
    18     6     7   ar
    19     7     8    1
    20     7     9   ar
    21     9    10    1
    22    10    11    1
    23    11    12    1
    24    12    13    1
    25    13    14    1
    26    14    15    1
    27    15    16    1
    28    16    17    1
    29    16    18    1
    30    18    19    1
    31    24    25   ar
    32    25    26   ar
    33    33    28   ar
    34    26    21   ar
    35    11     1    1
    36    19    12    1
    37     9     2   ar
@<TRIPOS>MOLECULE
*****
 33 37 0 0 0
SMALL
GASTEIGER

@<TRIPOS>ATOM
      1 C          -0.3169    2.0547   21.7738 C.3     1  UNL1        0.2026
      2 C           0.1466    2.2851   23.1817 C.ar    1  UNL1        0.0163
      3 C           0.7449    1.3655   24.2046 C.ar    1  UNL1        0.0104
      4 C           1.1177    1.8913   25.5590 C.ar    1  UNL1        0.0583
      5 CL          1.7160    0.9717   26.5819 Cl      1  UNL1       -0.0822
      6 C           0.8922    3.3367   25.8905 C.ar    1  UNL1        0.0224
      7 C           0.2939    4.2563   24.8677 C.ar    1  UNL1        0.0544
      8 CL          0.0684    5.7017   25.1992 Cl      1  UNL1       -0.0826
      9 C          -0.0789    3.7305   23.5132 C.ar    1  UNL1       -0.0106
     10 C          -0.6818    4.3934   22.3103 C.3     1  UNL1        0.0470
     11 C          -0.8289    3.3577   21.2352 C.3     1  UNL1        0.1066
     12 N          -1.3896    3.5851   19.8627 N.3     1  UNL1       -0.2691
     13 C          -0.3817    3.6841   18.7562 C.3     1  UNL1        0.0737
     14 C          -0.6194    3.9059   17.2918 C.3     1  UNL1        0.0346
     15 C          -1.9235    4.0834   16.5722 C.3     1  UNL1        0.0736
     16 N          -3.3122    4.0829   17.1394 N.3     1  UNL1       -0.2703
     17 C          -4.4198    4.2876   16.1489 C.3     1  UNL1        0.0897
     18 C          -3.7396    3.9049   18.5662 C.3     1  UNL1        0.0897
     19 C          -2.8840    3.6833   19.7782 C.3     1  UNL1        0.0897
     20 O          -0.2757    0.7503   21.0344 O.3     1  UNL1       -0.4734
     21 C           3.5327   -0.5907   19.0476 C.ar    1  UNL1        0.0664
     22 C           3.3419   -0.7986   20.5209 C.ar    1  UNL1        0.0207
     23 C           2.0724   -0.3516   21.1831 C.ar    1  UNL1        0.0384
     24 C           0.9937    0.3033   20.3721 C.ar    1  UNL1        0.1390
     25 C           1.1846    0.5112   18.8989 C.ar    1  UNL1        0.0384
     26 C           2.4541    0.0642   18.2367 C.ar    1  UNL1        0.0207
     27 C           4.4986   -3.6811   18.6405 C.3     1  UNL1        0.0742
     28 C           5.2463   -2.4581   18.1983 C.ar    1  UNL1        0.1473
     29 N           6.5690   -2.4411   17.4913 N.ar    1  UNL1       -0.1333
     30 N           6.9426   -1.0100   17.2414 N.ar    1  UNL1       -0.1333
     31 C           5.8507   -0.1426   17.7940 C.ar    1  UNL1        0.1473
     32 C           5.8137    1.3566   17.7610 C.3     1  UNL1        0.0742
     33 N           4.8023   -1.0377   18.3854 N.ar    1  UNL1       -0.2807
@<TRIPOS>BOND
     1    27    28    1
     2    28    29   ar
     3    29    30   ar
     4    30    31   ar
     5    31    32    1
     6    31    33   ar
     7    33    21    1
     8    21    22   ar
     9    22    23   ar
    10    23    24   ar
    11    24    20    1
    12     1    20    1
    13     1     2    1
    14     2     3   ar
    15     3     4   ar
    16     4     5    1
    17     4     6   ar
    18     6     7   ar
    19     7     8    1
    20     7     9   ar
    21     9    10    1
    22    10    11    1
    23    11    12    1
    24    12    13    1
    25    13    14    1
    26    14    15    1
    27    15    16    1
    28    16    17    1
    29    16    18    1
    30    18    19    1
    31    24    25   ar
    32    25    26   ar
    33    33    28   ar
    34    26    21   ar
    35    11     1    1
    36    19    12    1
    37     9     2   ar
@<TRIPOS>MOLECULE
*****
 33 37 0 0 0
SMALL
GASTEIGER

@<TRIPOS>ATOM
      1 C         -13.6728   -5.5225   17.2919 C.3     1  UNL1        0.2026
      2 C         -12.1778   -5.4016   17.2700 C.ar    1  UNL1        0.0163
      3 C         -11.2614   -4.3952   16.6399 C.ar    1  UNL1        0.0104
      4 C          -9.7756   -4.5359   16.7908 C.ar    1  UNL1        0.0583
      5 CL         -8.8591   -3.5295   16.1606 Cl      1  UNL1       -0.0822
      6 C          -9.2064   -5.6831   17.5718 C.ar    1  UNL1        0.0224
      7 C         -10.1229   -6.6895   18.2020 C.ar    1  UNL1        0.0544
      8 CL         -9.5536   -7.8366   18.9830 Cl      1  UNL1       -0.0826
      9 C         -11.6086   -6.5487   18.0511 C.ar    1  UNL1       -0.0106
     10 C         -12.7518   -7.3786   18.5556 C.3     1  UNL1        0.0470
     11 C         -14.0275   -6.7443   18.0864 C.3     1  UNL1        0.1066
     12 N         -15.4145   -7.2442   18.3631 N.3     1  UNL1       -0.2691
     13 C         -16.2628   -6.3627   19.2311 C.3     1  UNL1        0.0737
     14 C         -17.6759   -6.5788   19.6856 C.3     1  UNL1        0.0346
     15 C         -18.5896   -7.7296   19.3844 C.3     1  UNL1        0.0736
     16 N         -18.3159   -8.9486   18.5543 N.3     1  UNL1       -0.2703
     17 C         -19.4467   -9.9278   18.4435 C.3     1  UNL1        0.0897
     18 C         -17.0609   -9.3179   17.8204 C.3     1  UNL1        0.0897
     19 C         -15.7696   -8.5594   17.7353 C.3     1  UNL1        0.0897
     20 O         -14.6427   -4.5859   16.6346 O.3     1  UNL1       -0.4734
     21 C         -15.1388   -0.3966   18.2008 C.ar    1  UNL1        0.0664
     22 C         -14.3172   -1.3911   18.9663 C.ar    1  UNL1        0.0207
     23 C         -14.1518   -2.7875   18.4442 C.ar    1  UNL1        0.0384
     24 C         -14.8081   -3.1895   17.1566 C.ar    1  UNL1        0.1390
     25 C         -15.6297   -2.1950   16.3912 C.ar    1  UNL1        0.0384
     26 C         -15.7950   -0.7985   16.9133 C.ar    1  UNL1        0.0207
     27 C         -13.6600    2.2719   17.0425 C.3     1  UNL1        0.0742
     28 C         -14.6244    2.2264   18.1906 C.ar    1  UNL1        0.1473
     29 N         -15.0784    3.3995   19.0077 N.ar    1  UNL1       -0.1333
     30 N         -16.0386    2.8980   20.0451 N.ar    1  UNL1       -0.1333
     31 C         -16.1782    1.4149   19.8691 C.ar    1  UNL1        0.1473
     32 C         -17.0404    0.5063   20.6945 C.3     1  UNL1        0.0742
     33 N         -15.3041    0.9999   18.7229 N.ar    1  UNL1       -0.2807
@<TRIPOS>BOND
     1    27    28    1
     2    28    29   ar
     3    29    30   ar
     4    30    31   ar
     5    31    32    1
     6    31    33   ar
     7    33    21    1
     8    21    22   ar
     9    22    23   ar
    10    23    24   ar
    11    24    20    1
    12     1    20    1
    13     1     2    1
    14     2     3   ar
    15     3     4   ar
    16     4     5    1
    17     4     6   ar
    18     6     7   ar
    19     7     8    1
    20     7     9   ar
    21     9    10    1
    22    10    11    1
    23    11    12    1
    24    12    13    1
    25    13    14    1
    26    14    15    1
    27    15    16    1
    28    16    17    1
    29    16    18    1
    30    18    19    1
    31    24    25   ar
    32    25    26   ar
    33    33    28   ar
    34    26    21   ar
    35    11     1    1
    36    19    12    1
    37     9     2   ar
@<TRIPOS>MOLECULE
*****
 33 37 0 0 0
SMALL
GASTEIGER

@<TRIPOS>ATOM
      1 C          -0.6659    2.7581   21.0331 C.3     1  UNL1        0.2026
      2 C          -0.9704    3.7747   19.9730 C.ar    1  UNL1        0.0163
      3 C          -1.2392    3.6425   18.5032 C.ar    1  UNL1        0.0104
      4 C          -1.5188    4.8642   17.6791 C.ar    1  UNL1        0.0583
      5 CL         -1.7876    4.7320   16.2093 Cl      1  UNL1       -0.0822
      6 C          -1.5297    6.2181   18.3248 C.ar    1  UNL1        0.0224
      7 C          -1.2610    6.3503   19.7946 C.ar    1  UNL1        0.0544
      8 CL         -1.2719    7.7041   20.4402 Cl      1  UNL1       -0.0826
      9 C          -0.9813    5.1286   20.6187 C.ar    1  UNL1       -0.0106
     10 C          -0.6836    4.9487   22.0778 C.3     1  UNL1        0.0470
     11 C          -0.4886    3.4836   22.3339 C.3     1  UNL1        0.1066
     12 N          -0.1720    2.8546   23.6583 N.3     1  UNL1       -0.2691
     13 C           1.1886    2.2339   23.7754 C.3     1  UNL1        0.0737
     14 C           1.7993    1.5348   24.9536 C.3     1  UNL1        0.0346
     15 C           1.2004    1.2836   26.3057 C.3     1  UNL1        0.0736
     16 N          -0.1572    1.6695   26.8136 N.3     1  UNL1       -0.2703
     17 C          -0.4610    1.2702   28.2271 C.3     1  UNL1        0.0897
     18 C          -1.2512    2.4019   26.0947 C.3     1  UNL1        0.0897
     19 C          -1.2579    2.9293   24.6905 C.3     1  UNL1        0.0897
     20 O          -0.5577    1.2761   20.8283 O.3     1  UNL1       -0.4734
     21 C           3.1851   -0.4830   19.0543 C.ar    1  UNL1        0.0664
     22 C           2.2140    0.2524   18.1789 C.ar    1  UNL1        0.0207
     23 C           0.9665    0.8387   18.7702 C.ar    1  UNL1        0.0384
     24 C           0.6898    0.6897   20.2370 C.ar    1  UNL1        0.1390
     25 C           1.6609   -0.0457   21.1124 C.ar    1  UNL1        0.0384
     26 C           2.9085   -0.6320   20.5210 C.ar    1  UNL1        0.0207
     27 C           5.6356    1.1919   17.6982 C.3     1  UNL1        0.0742
     28 C           5.5591   -0.2995   17.8396 C.ar    1  UNL1        0.1473
     29 N           6.5954   -1.2828   17.3825 N.ar    1  UNL1       -0.1333
     30 N           6.1095   -2.6604   17.7233 N.ar    1  UNL1       -0.1333
     31 C           4.7729   -2.5285   18.3910 C.ar    1  UNL1        0.1473
     32 C           3.9252   -3.6575   18.8979 C.3     1  UNL1        0.0742
     33 N           4.4327   -1.0693   18.4629 N.ar    1  UNL1       -0.2807
@<TRIPOS>BOND
     1    27    28    1
     2    28    29   ar
     3    29    30   ar
     4    30    31   ar
     5    31    32    1
     6    31    33   ar
     7    33    21    1
     8    21    22   ar
     9    22    23   ar
    10    23    24   ar
    11    24    20    1
    12     1    20    1
    13     1     2    1
    14     2     3   ar
    15     3     4   ar
    16     4     5    1
    17     4     6   ar
    18     6     7   ar
    19     7     8    1
    20     7     9   ar
    21     9    10    1
    22    10    11    1
    23    11    12    1
    24    12    13    1
    25    13    14    1
    26    14    15    1
    27    15    16    1
    28    16    17    1
    29    16    18    1
    30    18    19    1
    31    24    25   ar
    32    25    26   ar
    33    33    28   ar
    34    26    21   ar
    35    11     1    1
    36    19    12    1
    37     9     2   ar
@<TRIPOS>MOLECULE
*****
 33 37 0 0 0
SMALL
GASTEIGER

@<TRIPOS>ATOM
      1 C          -1.2120    3.2363   21.7566 C.3     1  UNL1        0.2026
      2 C          -2.6792    3.4741   21.9587 C.ar    1  UNL1        0.0163
      3 C          -3.8031    3.6940   20.9900 C.ar    1  UNL1        0.0104
      4 C          -5.1984    3.9096   21.4965 C.ar    1  UNL1        0.0583
      5 CL         -6.3224    4.1295   20.5278 Cl      1  UNL1       -0.0822
      6 C          -5.4698    3.9052   22.9718 C.ar    1  UNL1        0.0224
      7 C          -4.3459    3.6853   23.9405 C.ar    1  UNL1        0.0544
      8 CL         -4.6172    3.6810   25.4157 Cl      1  UNL1       -0.0826
      9 C          -2.9506    3.4698   23.4339 C.ar    1  UNL1       -0.0106
     10 C          -1.6511    3.2293   24.1436 C.3     1  UNL1        0.0470
     11 C          -0.5766    3.0850   23.1070 C.3     1  UNL1        0.1066
     12 N           0.8779    2.8336   23.3738 N.3     1  UNL1       -0.2691
     13 C           1.2362    1.4276   23.7546 C.3     1  UNL1        0.0737
     14 C           2.5869    0.8623   24.0802 C.3     1  UNL1        0.0346
     15 C           3.9129    1.5631   24.1054 C.3     1  UNL1        0.0736
     16 N           4.2157    3.0025   23.8113 N.3     1  UNL1       -0.2703
     17 C           5.6574    3.4004   23.9240 C.3     1  UNL1        0.0897
     18 C           3.2672    4.0964   23.4192 C.3     1  UNL1        0.0897
     19 C           1.7818    4.0214   23.2245 C.3     1  UNL1        0.0897
     20 O          -0.5044    3.1627   20.4360 O.3     1  UNL1       -0.4734
     21 C           2.5332   -0.0719   19.6879 C.ar    1  UNL1        0.0664
     22 C           1.1299   -0.4356   20.0733 C.ar    1  UNL1        0.0207
     23 C           0.1174    0.6427   20.3227 C.ar    1  UNL1        0.0384
     24 C           0.5081    2.0846   20.1867 C.ar    1  UNL1        0.1390
     25 C           1.9114    2.4481   19.8012 C.ar    1  UNL1        0.0384
     26 C           2.9239    1.3698   19.5518 C.ar    1  UNL1        0.0207
     27 C           3.8942   -1.9862   21.9534 C.3     1  UNL1        0.0742
     28 C           4.1713   -2.0301   20.4798 C.ar    1  UNL1        0.1473
     29 N           5.1226   -2.9616   19.7889 N.ar    1  UNL1       -0.1333
     30 N           5.0850   -2.6573   18.3206 N.ar    1  UNL1       -0.1333
     31 C           4.1104   -1.5378   18.1040 C.ar    1  UNL1        0.1473
     32 C           3.7617   -0.9152   16.7845 C.3     1  UNL1        0.0742
     33 N           3.5457   -1.1502   19.4385 N.ar    1  UNL1       -0.2807
@<TRIPOS>BOND
     1    27    28    1
     2    28    29   ar
     3    29    30   ar
     4    30    31   ar
     5    31    32    1
     6    31    33   ar
     7    33    21    1
     8    21    22   ar
     9    22    23   ar
    10    23    24   ar
    11    24    20    1
    12     1    20    1
    13     1     2    1
    14     2     3   ar
    15     3     4   ar
    16     4     5    1
    17     4     6   ar
    18     6     7   ar
    19     7     8    1
    20     7     9   ar
    21     9    10    1
    22    10    11    1
    23    11    12    1
    24    12    13    1
    25    13    14    1
    26    14    15    1
    27    15    16    1
    28    16    17    1
    29    16    18    1
    30    18    19    1
    31    24    25   ar
    32    25    26   ar
    33    33    28   ar
    34    26    21   ar
    35    11     1    1
    36    19    12    1
    37     9     2   ar
@<TRIPOS>MOLECULE
*****
 33 37 0 0 0
SMALL
GASTEIGER

@<TRIPOS>ATOM
      1 C          -0.5484    2.8558   22.4838 C.3     1  UNL1        0.2026
      2 C           0.1156    2.2629   23.6910 C.ar    1  UNL1        0.0163
      3 C           1.4256    1.5544   23.8696 C.ar    1  UNL1        0.0104
      4 C           1.8329    1.0617   25.2266 C.ar    1  UNL1        0.0583
      5 CL          3.1429    0.3531   25.4052 Cl      1  UNL1       -0.0822
      6 C           0.9301    1.2775   26.4049 C.ar    1  UNL1        0.0224
      7 C          -0.3798    1.9860   26.2263 C.ar    1  UNL1        0.0544
      8 CL         -1.2825    2.2018   27.4047 Cl      1  UNL1       -0.0826
      9 C          -0.7871    2.4787   24.8694 C.ar    1  UNL1       -0.0106
     10 C          -2.0090    3.2050   24.3903 C.3     1  UNL1        0.0470
     11 C          -1.8614    3.4381   22.9159 C.3     1  UNL1        0.1066
     12 N          -2.8529    4.1317   22.0294 N.3     1  UNL1       -0.2691
     13 C          -3.3280    5.4716   22.5078 C.3     1  UNL1        0.0737
     14 C          -4.3057    6.4043   21.8566 C.3     1  UNL1        0.0346
     15 C          -5.0498    6.2276   20.5662 C.3     1  UNL1        0.0736
     16 N          -4.9999    5.0744   19.6082 N.3     1  UNL1       -0.2703
     17 C          -5.8715    5.1989   18.3939 C.3     1  UNL1        0.0897
     18 C          -4.1936    3.8131   19.7042 C.3     1  UNL1        0.0897
     19 C          -3.2381    3.3935   20.7816 C.3     1  UNL1        0.0897
     20 O           0.0038    2.8649   21.0891 O.3     1  UNL1       -0.4734
     21 C           2.8560   -0.3591   19.7772 C.ar    1  UNL1        0.0664
     22 C           1.4256   -0.6989   20.0753 C.ar    1  UNL1        0.0207
     23 C           0.4749    0.3758   20.5125 C.ar    1  UNL1        0.0384
     24 C           0.9545    1.7903   20.6518 C.ar    1  UNL1        0.1390
     25 C           2.3848    2.1300   20.3538 C.ar    1  UNL1        0.0384
     26 C           3.3355    1.0553   19.9165 C.ar    1  UNL1        0.0207
     27 C           3.9266   -0.8508   16.7341 C.3     1  UNL1        0.0742
     28 C           4.2988   -1.6599   17.9412 C.ar    1  UNL1        0.1473
     29 N           5.2284   -2.8369   17.9614 N.ar    1  UNL1       -0.1333
     30 N           5.3108   -3.3383   19.3727 N.ar    1  UNL1       -0.1333
     31 C           4.4321   -2.4711   20.2247 C.ar    1  UNL1        0.1473
     32 C           4.2166   -2.6159   21.7021 C.3     1  UNL1        0.0742
     33 N           3.8066   -1.4338   19.3400 N.ar    1  UNL1       -0.2807
@<TRIPOS>BOND
     1    27    28    1
     2    28    29   ar
     3    29    30   ar
     4    30    31   ar
     5    31    32    1
     6    31    33   ar
     7    33    21    1
     8    21    22   ar
     9    22    23   ar
    10    23    24   ar
    11    24    20    1
    12     1    20    1
    13     1     2    1
    14     2     3   ar
    15     3     4   ar
    16     4     5    1
    17     4     6   ar
    18     6     7   ar
    19     7     8    1
    20     7     9   ar
    21     9    10    1
    22    10    11    1
    23    11    12    1
    24    12    13    1
    25    13    14    1
    26    14    15    1
    27    15    16    1
    28    16    17    1
    29    16    18    1
    30    18    19    1
    31    24    25   ar
    32    25    26   ar
    33    33    28   ar
    34    26    21   ar
    35    11     1    1
    36    19    12    1
    37     9     2   ar
@<TRIPOS>MOLECULE
*****
 33 37 0 0 0
SMALL
GASTEIGER

@<TRIPOS>ATOM
      1 C           2.2521    1.3443   25.4704 C.3     1  UNL1        0.2026
      2 C           1.9371    0.8169   26.8389 C.ar    1  UNL1        0.0163
      3 C           2.8066    0.2439   27.9184 C.ar    1  UNL1        0.0104
      4 C           2.1962   -0.2104   29.2110 C.ar    1  UNL1        0.0583
      5 CL          3.0658   -0.7834   30.2906 Cl      1  UNL1       -0.0822
      6 C           0.7162   -0.0917   29.4241 C.ar    1  UNL1        0.0224
      7 C          -0.1534    0.4813   28.3446 C.ar    1  UNL1        0.0544
      8 CL         -1.6335    0.6000   28.5577 Cl      1  UNL1       -0.0826
      9 C           0.4570    0.9356   27.0520 C.ar    1  UNL1       -0.0106
     10 C          -0.1426    1.5364   25.8152 C.3     1  UNL1        0.0470
     11 C           0.9668    1.7889   24.8378 C.3     1  UNL1        0.1066
     12 N           0.8172    2.3821   23.4682 N.3     1  UNL1       -0.2691
     13 C           1.0348    3.8632   23.3730 C.3     1  UNL1        0.0737
     14 C           0.9587    4.7436   22.1610 C.3     1  UNL1        0.0346
     15 C           0.6462    4.3605   20.7448 C.3     1  UNL1        0.0736
     16 N           0.3326    3.0022   20.1908 N.3     1  UNL1       -0.2703
     17 C           0.0618    2.9473   18.7166 C.3     1  UNL1        0.0897
     18 C           0.2541    1.6917   20.9163 C.3     1  UNL1        0.0897
     19 C           0.4697    1.4156   22.3748 C.3     1  UNL1        0.0897
     20 O           3.6135    1.4146   24.8445 O.3     1  UNL1       -0.4734
     21 C           4.3199   -0.3938   20.7849 C.ar    1  UNL1        0.0664
     22 C           3.6338   -1.1930   21.8529 C.ar    1  UNL1        0.0207
     23 C           3.3984   -0.5902   23.2061 C.ar    1  UNL1        0.0384
     24 C           3.8489    0.8119   23.4914 C.ar    1  UNL1        0.1390
     25 C           4.5350    1.6111   22.4234 C.ar    1  UNL1        0.0384
     26 C           4.7704    1.0082   21.0702 C.ar    1  UNL1        0.0207
     27 C           6.5601   -2.6514   20.0543 C.3     1  UNL1        0.0742
     28 C           5.5850   -2.0343   19.0958 C.ar    1  UNL1        0.1473
     29 N           5.4685   -2.3466   17.6334 N.ar    1  UNL1       -0.1333
     30 N           4.3668   -1.5019   17.0654 N.ar    1  UNL1       -0.1333
     31 C           3.8024   -0.6675   18.1768 C.ar    1  UNL1        0.1473
     32 C           2.6818    0.3222   18.0547 C.3     1  UNL1        0.0742
     33 N           4.5553   -0.9966   19.4317 N.ar    1  UNL1       -0.2807
@<TRIPOS>BOND
     1    27    28    1
     2    28    29   ar
     3    29    30   ar
     4    30    31   ar
     5    31    32    1
     6    31    33   ar
     7    33    21    1
     8    21    22   ar
     9    22    23   ar
    10    23    24   ar
    11    24    20    1
    12     1    20    1
    13     1     2    1
    14     2     3   ar
    15     3     4   ar
    16     4     5    1
    17     4     6   ar
    18     6     7   ar
    19     7     8    1
    20     7     9   ar
    21     9    10    1
    22    10    11    1
    23    11    12    1
    24    12    13    1
    25    13    14    1
    26    14    15    1
    27    15    16    1
    28    16    17    1
    29    16    18    1
    30    18    19    1
    31    24    25   ar
    32    25    26   ar
    33    33    28   ar
    34    26    21   ar
    35    11     1    1
    36    19    12    1
    37     9     2   ar
@<TRIPOS>MOLECULE
*****
 33 37 0 0 0
SMALL
GASTEIGER

@<TRIPOS>ATOM
      1 C          -0.2870    2.3888   21.6456 C.3     1  UNL1        0.2026
      2 C          -0.6496    3.4100   20.6085 C.ar    1  UNL1        0.0163
      3 C          -0.8910    3.2992   19.1322 C.ar    1  UNL1        0.0104
      4 C          -1.2460    4.5202   18.3366 C.ar    1  UNL1        0.0583
      5 CL         -1.4874    4.4094   16.8602 Cl      1  UNL1       -0.0822
      6 C          -1.3596    5.8520   19.0173 C.ar    1  UNL1        0.0224
      7 C          -1.1183    5.9628   20.4935 C.ar    1  UNL1        0.0544
      8 CL         -1.2319    7.2947   21.1742 Cl      1  UNL1       -0.0826
      9 C          -0.7632    4.7418   21.2891 C.ar    1  UNL1       -0.0106
     10 C          -0.4709    4.5437   22.7470 C.3     1  UNL1        0.0470
     11 C          -0.1765    3.0895   22.9673 C.3     1  UNL1        0.1066
     12 N           0.1678    2.4485   24.2790 N.3     1  UNL1       -0.2691
     13 C          -0.8983    2.5086   25.3325 C.3     1  UNL1        0.0737
     14 C          -0.8627    1.9672   26.7309 C.3     1  UNL1        0.0346
     15 C           0.2476    1.2320   27.4213 C.3     1  UNL1        0.0736
     16 N           1.5967    0.8566   26.8837 N.3     1  UNL1       -0.2703
     17 C           2.4923    0.1162   27.8322 C.3     1  UNL1        0.0897
     18 C           2.1686    1.1237   25.5229 C.3     1  UNL1        0.0897
     19 C           1.5327    1.8321   24.3637 C.3     1  UNL1        0.0897
     20 O          -0.0725    0.9241   21.4036 O.3     1  UNL1       -0.4734
     21 C           3.5913   -0.4797   19.2001 C.ar    1  UNL1        0.0664
     22 C           2.4152    0.0533   18.4366 C.ar    1  UNL1        0.0207
     23 C           1.1940    0.5212   19.1712 C.ar    1  UNL1        0.0384
     24 C           1.1487    0.4562   20.6691 C.ar    1  UNL1        0.1390
     25 C           2.3249   -0.0768   21.4325 C.ar    1  UNL1        0.0384
     26 C           3.5461   -0.5447   20.6980 C.ar    1  UNL1        0.0207
     27 C           4.4938   -3.5849   18.7617 C.3     1  UNL1        0.0742
     28 C           5.2275   -2.3749   18.2640 C.ar    1  UNL1        0.1473
     29 N           6.5047   -2.3798   17.4775 N.ar    1  UNL1       -0.1333
     30 N           6.8792   -0.9555   17.1929 N.ar    1  UNL1       -0.1333
     31 C           5.8335   -0.0703   17.8035 C.ar    1  UNL1        0.1473
     32 C           5.8123    1.4290   17.7598 C.3     1  UNL1        0.0742
     33 N           4.8126   -0.9476   18.4655 N.ar    1  UNL1       -0.2807
@<TRIPOS>BOND
     1    27    28    1
     2    28    29   ar
     3    29    30   ar
     4    30    31   ar
     5    31    32    1
     6    31    33   ar
     7    33    21    1
     8    21    22   ar
     9    22    23   ar
    10    23    24   ar
    11    24    20    1
    12     1    20    1
    13     1     2    1
    14     2     3   ar
    15     3     4   ar
    16     4     5    1
    17     4     6   ar
    18     6     7   ar
    19     7     8    1
    20     7     9   ar
    21     9    10    1
    22    10    11    1
    23    11    12    1
    24    12    13    1
    25    13    14    1
    26    14    15    1
    27    15    16    1
    28    16    17    1
    29    16    18    1
    30    18    19    1
    31    24    25   ar
    32    25    26   ar
    33    33    28   ar
    34    26    21   ar
    35    11     1    1
    36    19    12    1
    37     9     2   ar
