@<TRIPOS>MOLECULE
*****
 33 36 0 0 0
SMALL
GASTEIGER

@<TRIPOS>ATOM
      1 N          -5.1552  -16.7734   23.5166 N.3     1  UNL1       -0.2711
      2 C          -6.2162  -17.5814   22.8302 C.3     1  UNL1        0.0743
      3 C          -5.8292  -18.7156   21.9282 C.3     1  UNL1        0.0444
      4 C          -4.3811  -19.0419   21.7126 C.3     1  UNL1        0.1305
      5 C          -3.3200  -18.2339   22.3990 C.3     1  UNL1        0.0444
      6 C          -3.7070  -17.0996   23.3010 C.3     1  UNL1        0.0743
      7 C          -2.9815  -19.4836   21.4023 C.2     1  UNL1        0.2397
      8 O          -1.7233  -18.8685   21.9396 O.2     1  UNL1       -0.2734
      9 N          -3.0611  -20.6484   20.4604 N.am    1  UNL1       -0.2862
     10 C          -4.5099  -20.9265   20.1886 C.3     1  UNL1        0.1875
     11 N          -5.3256  -19.9337   20.9625 N.pl3   1  UNL1       -0.2859
     12 H          -2.2967  -21.1434   20.0864 H       1  UNL1        0.1510
     13 C          -6.8230  -19.8477   20.9827 C.ar    1  UNL1        0.0515
     14 C          -7.5658  -19.4090   19.7556 C.ar    1  UNL1        0.0147
     15 C          -9.0631  -19.3230   19.7760 C.ar    1  UNL1        0.0036
     16 C          -9.8178  -19.6757   21.0234 C.ar    1  UNL1        0.0297
     17 C          -9.0751  -20.1144   22.2505 C.ar    1  UNL1        0.1414
     18 F          -9.8297  -20.4671   23.4980 F       1  UNL1       -0.2041
     19 C          -7.5777  -20.2004   22.2302 C.ar    1  UNL1        0.0442
     20 C          -5.5422  -15.6390   24.4186 C.3     1  UNL1        0.0936
     21 C          -6.7464  -14.8038   24.0988 C.3     1  UNL1        0.1070
     22 O          -7.9384  -14.9931   21.3523 O.2     1  UNL1       -0.2701
     23 C          -8.6784  -15.5522   22.5313 C.2     1  UNL1        0.2460
     24 N          -8.0824  -15.4575   23.9045 N.am    1  UNL1       -0.2994
     25 H          -8.5681  -15.8244   24.6783 H       1  UNL1        0.1498
     26 C         -10.0144  -16.2058   22.3370 C.ar    1  UNL1        0.0557
     27 C         -10.7484  -16.0410   21.0392 C.ar    1  UNL1        0.0070
     28 C         -12.0844  -16.6947   20.8449 C.ar    1  UNL1        0.0321
     29 C         -12.6865  -17.5132   21.9484 C.ar    1  UNL1        0.1674
     30 F         -14.0225  -18.1669   21.7541 F       1  UNL1       -0.2018
     31 C         -11.9525  -17.6780   23.2461 C.ar    1  UNL1        0.1675
     32 F         -12.5546  -18.4966   24.3495 F       1  UNL1       -0.2018
     33 C         -10.6164  -17.0244   23.4404 C.ar    1  UNL1        0.0365
@<TRIPOS>BOND
     1    22    23    2
     2    23    24   am
     3    24    21    1
     4    21    20    1
     5    20     1    1
     6     1     2    1
     7     2     3    1
     8     3     4    1
     9     4     5    1
    10     5     6    1
    11     4     7    1
    12     7     8    2
    13     7     9   am
    14     9    10    1
    15    10    11    1
    16    11    13    1
    17    13    14   ar
    18    14    15   ar
    19    15    16   ar
    20    16    17   ar
    21    17    18    1
    22    17    19   ar
    23    23    26    1
    24    26    27   ar
    25    27    28   ar
    26    28    29   ar
    27    29    30    1
    28    29    31   ar
    29    31    32    1
    30    31    33   ar
    31     6     1    1
    32    19    13   ar
    33    33    26   ar
    34    11     4    1
    35    24    25    1
    36     9    12    1
@<TRIPOS>MOLECULE
*****
 33 36 0 0 0
SMALL
GASTEIGER

@<TRIPOS>ATOM
      1 N          -4.9257  -16.6092   23.4726 N.3     1  UNL1       -0.2711
      2 C          -6.0061  -17.4557   22.8675 C.3     1  UNL1        0.0743
      3 C          -5.6454  -18.6222   21.9963 C.3     1  UNL1        0.0444
      4 C          -4.2043  -18.9422   21.7301 C.3     1  UNL1        0.1305
      5 C          -3.1239  -18.0957   22.3351 C.3     1  UNL1        0.0444
      6 C          -3.4847  -16.9292   23.2064 C.3     1  UNL1        0.0743
      7 C          -2.8145  -19.3819   21.3763 C.2     1  UNL1        0.2397
      8 O          -1.5415  -18.7323   21.8316 O.2     1  UNL1       -0.2734
      9 N          -2.9213  -20.5854   20.4871 N.am    1  UNL1       -0.2862
     10 C          -4.3772  -20.8894   20.2915 C.3     1  UNL1        0.1875
     11 N          -5.1701  -19.8739   21.0596 N.pl3   1  UNL1       -0.2859
     12 H          -2.1682  -21.0875   20.1000 H       1  UNL1        0.1510
     13 C          -6.6660  -19.8025   21.1428 C.ar    1  UNL1        0.0515
     14 C          -7.4572  -19.2716   19.9842 C.ar    1  UNL1        0.0147
     15 C          -8.9531  -19.2003   20.0675 C.ar    1  UNL1        0.0036
     16 C          -9.6581  -19.6597   21.3093 C.ar    1  UNL1        0.0297
     17 C          -8.8669  -20.1906   22.4679 C.ar    1  UNL1        0.1414
     18 F          -9.5717  -20.6501   23.7097 F       1  UNL1       -0.2041
     19 C          -7.3709  -20.2620   22.3846 C.ar    1  UNL1        0.0442
     20 C          -5.2864  -15.4426   24.3439 C.3     1  UNL1        0.0936
     21 C          -6.6572  -15.3519   24.9461 C.3     1  UNL1        0.1070
     22 O          -8.7931  -17.1313   26.0739 O.2     1  UNL1       -0.2701
     23 C          -8.9309  -16.5816   24.6850 C.2     1  UNL1        0.2460
     24 N          -7.8629  -15.6920   24.1211 N.am    1  UNL1       -0.2994
     25 H          -7.9534  -15.3312   23.2096 H       1  UNL1        0.1498
     26 C         -10.1365  -16.9217   23.8600 C.ar    1  UNL1        0.0557
     27 C         -11.1049  -17.9617   24.3402 C.ar    1  UNL1        0.0070
     28 C         -12.3106  -18.3018   23.5152 C.ar    1  UNL1        0.0321
     29 C         -12.5480  -17.6018   22.2100 C.ar    1  UNL1        0.1674
     30 F         -13.7536  -17.9418   21.3850 F       1  UNL1       -0.2018
     31 C         -11.5796  -16.5618   21.7297 C.ar    1  UNL1        0.1675
     32 F         -11.8170  -15.8618   20.4244 F       1  UNL1       -0.2018
     33 C         -10.3739  -16.2217   22.5547 C.ar    1  UNL1        0.0365
@<TRIPOS>BOND
     1    22    23    2
     2    23    24   am
     3    24    21    1
     4    21    20    1
     5    20     1    1
     6     1     2    1
     7     2     3    1
     8     3     4    1
     9     4     5    1
    10     5     6    1
    11     4     7    1
    12     7     8    2
    13     7     9   am
    14     9    10    1
    15    10    11    1
    16    11    13    1
    17    13    14   ar
    18    14    15   ar
    19    15    16   ar
    20    16    17   ar
    21    17    18    1
    22    17    19   ar
    23    23    26    1
    24    26    27   ar
    25    27    28   ar
    26    28    29   ar
    27    29    30    1
    28    29    31   ar
    29    31    32    1
    30    31    33   ar
    31     6     1    1
    32    19    13   ar
    33    33    26   ar
    34    11     4    1
    35    24    25    1
    36     9    12    1
@<TRIPOS>MOLECULE
*****
 33 36 0 0 0
SMALL
GASTEIGER

@<TRIPOS>ATOM
      1 N          -8.1391  -15.8817   23.9125 N.3     1  UNL1       -0.2711
      2 C          -7.5686  -17.0302   23.1343 C.3     1  UNL1        0.0743
      3 C          -8.4700  -17.8945   22.3035 C.3     1  UNL1        0.0444
      4 C          -9.9420  -17.6104   22.2509 C.3     1  UNL1        0.1305
      5 C         -10.5124  -16.4620   23.0291 C.3     1  UNL1        0.0444
      6 C          -9.6110  -15.5976   23.8599 C.3     1  UNL1        0.0743
      7 C         -11.4258  -17.4493   22.1014 C.2     1  UNL1        0.2397
      8 O         -12.2687  -16.3956   22.7566 O.2     1  UNL1       -0.2734
      9 N         -11.9188  -18.5270   21.1818 N.am    1  UNL1       -0.2862
     10 C         -10.7395  -19.3541   20.7629 C.3     1  UNL1        0.1875
     11 N          -9.5178  -18.7877   21.4236 N.pl3   1  UNL1       -0.2859
     12 H         -12.8523  -18.6669   20.9022 H       1  UNL1        0.1510
     13 C          -8.1178  -19.3071   21.2820 C.ar    1  UNL1        0.0515
     14 C          -7.6162  -20.3738   22.2096 C.ar    1  UNL1        0.0147
     15 C          -6.2161  -20.8932   22.0679 C.ar    1  UNL1        0.0036
     16 C          -5.3177  -20.3459   20.9986 C.ar    1  UNL1        0.0297
     17 C          -5.8193  -19.2793   20.0710 C.ar    1  UNL1        0.1414
     18 F          -4.9210  -18.7320   19.0017 F       1  UNL1       -0.2041
     19 C          -7.2194  -18.7599   20.2127 C.ar    1  UNL1        0.0442
     20 C          -7.2376  -15.0173   24.7434 C.3     1  UNL1        0.0936
     21 C          -5.8167  -15.4315   24.9866 C.3     1  UNL1        0.1070
     22 O          -3.9508  -17.7770   25.1189 O.2     1  UNL1       -0.2701
     23 C          -3.9835  -16.9128   23.8933 C.2     1  UNL1        0.2460
     24 N          -4.9164  -15.7401   23.8271 N.am    1  UNL1       -0.2994
     25 H          -4.9378  -15.1729   23.0227 H       1  UNL1        0.1498
     26 C          -3.0833  -17.2214   22.7339 C.ar    1  UNL1        0.0557
     27 C          -2.3689  -16.1105   22.0226 C.ar    1  UNL1        0.0070
     28 C          -1.4687  -16.4191   20.8632 C.ar    1  UNL1        0.0321
     29 C          -1.2829  -17.8384   20.4149 C.ar    1  UNL1        0.1674
     30 F          -0.3827  -18.1470   19.2554 F       1  UNL1       -0.2018
     31 C          -1.9972  -18.9492   21.1260 C.ar    1  UNL1        0.1675
     32 F          -1.8114  -20.3685   20.6777 F       1  UNL1       -0.2018
     33 C          -2.8975  -18.6407   22.2856 C.ar    1  UNL1        0.0365
@<TRIPOS>BOND
     1    22    23    2
     2    23    24   am
     3    24    21    1
     4    21    20    1
     5    20     1    1
     6     1     2    1
     7     2     3    1
     8     3     4    1
     9     4     5    1
    10     5     6    1
    11     4     7    1
    12     7     8    2
    13     7     9   am
    14     9    10    1
    15    10    11    1
    16    11    13    1
    17    13    14   ar
    18    14    15   ar
    19    15    16   ar
    20    16    17   ar
    21    17    18    1
    22    17    19   ar
    23    23    26    1
    24    26    27   ar
    25    27    28   ar
    26    28    29   ar
    27    29    30    1
    28    29    31   ar
    29    31    32    1
    30    31    33   ar
    31     6     1    1
    32    19    13   ar
    33    33    26   ar
    34    11     4    1
    35    24    25    1
    36     9    12    1
@<TRIPOS>MOLECULE
*****
 33 36 0 0 0
SMALL
GASTEIGER

@<TRIPOS>ATOM
      1 N          -8.1080  -15.8858   23.9441 N.3     1  UNL1       -0.2711
      2 C          -7.5443  -17.0292   23.1536 C.3     1  UNL1        0.0743
      3 C          -8.4561  -17.9038   22.3453 C.3     1  UNL1        0.0444
      4 C          -9.9318  -17.6351   22.3274 C.3     1  UNL1        0.1305
      5 C         -10.4955  -16.4918   23.1179 C.3     1  UNL1        0.0444
      6 C          -9.5837  -15.6171   23.9263 C.3     1  UNL1        0.0743
      7 C         -11.4203  -17.4897   22.2132 C.2     1  UNL1        0.2397
      8 O         -12.2584  -16.4441   22.8873 O.2     1  UNL1       -0.2734
      9 N         -11.9238  -18.5735   21.3065 N.am    1  UNL1       -0.2862
     10 C         -10.7463  -19.3888   20.8604 C.3     1  UNL1        0.1875
     11 N          -9.5152  -18.8088   21.4913 N.pl3   1  UNL1       -0.2859
     12 H         -12.8622  -18.7234   21.0494 H       1  UNL1        0.1510
     13 C          -8.1136  -19.3138   21.3169 C.ar    1  UNL1        0.0515
     14 C          -7.5858  -20.3887   22.2202 C.ar    1  UNL1        0.0147
     15 C          -6.1841  -20.8936   22.0457 C.ar    1  UNL1        0.0036
     16 C          -5.3103  -20.3238   20.9679 C.ar    1  UNL1        0.0297
     17 C          -5.8381  -19.2489   20.0646 C.ar    1  UNL1        0.1414
     18 F          -4.9643  -18.6789   18.9868 F       1  UNL1       -0.2041
     19 C          -7.2397  -18.7439   20.2391 C.ar    1  UNL1        0.0442
     20 C          -7.1961  -15.0111   24.7525 C.3     1  UNL1        0.0936
     21 C          -5.9869  -15.5996   25.4168 C.3     1  UNL1        0.1070
     22 O          -4.5783  -14.4351   23.0378 O.2     1  UNL1       -0.2701
     23 C          -4.3269  -15.8595   23.4352 C.2     1  UNL1        0.2460
     24 N          -5.0312  -16.4417   24.6247 N.am    1  UNL1       -0.2994
     25 H          -4.8662  -17.3766   24.8855 H       1  UNL1        0.1498
     26 C          -3.3713  -16.7017   22.6431 C.ar    1  UNL1        0.0557
     27 C          -3.4111  -18.1963   22.7639 C.ar    1  UNL1        0.0070
     28 C          -2.4554  -19.0385   21.9718 C.ar    1  UNL1        0.0321
     29 C          -1.4599  -18.3861   21.0589 C.ar    1  UNL1        0.1674
     30 F          -0.5043  -19.2283   20.2668 F       1  UNL1       -0.2018
     31 C          -1.4201  -16.8916   20.9381 C.ar    1  UNL1        0.1675
     32 F          -0.4246  -16.2392   20.0252 F       1  UNL1       -0.2018
     33 C          -2.3758  -16.0493   21.7302 C.ar    1  UNL1        0.0365
@<TRIPOS>BOND
     1    22    23    2
     2    23    24   am
     3    24    21    1
     4    21    20    1
     5    20     1    1
     6     1     2    1
     7     2     3    1
     8     3     4    1
     9     4     5    1
    10     5     6    1
    11     4     7    1
    12     7     8    2
    13     7     9   am
    14     9    10    1
    15    10    11    1
    16    11    13    1
    17    13    14   ar
    18    14    15   ar
    19    15    16   ar
    20    16    17   ar
    21    17    18    1
    22    17    19   ar
    23    23    26    1
    24    26    27   ar
    25    27    28   ar
    26    28    29   ar
    27    29    30    1
    28    29    31   ar
    29    31    32    1
    30    31    33   ar
    31     6     1    1
    32    19    13   ar
    33    33    26   ar
    34    11     4    1
    35    24    25    1
    36     9    12    1
@<TRIPOS>MOLECULE
*****
 33 36 0 0 0
SMALL
GASTEIGER

@<TRIPOS>ATOM
      1 N          -5.0548  -19.7484   20.6264 N.3     1  UNL1       -0.2711
      2 C          -4.9186  -18.8523   21.8215 C.3     1  UNL1        0.0743
      3 C          -3.7594  -17.9056   21.9209 C.3     1  UNL1        0.0444
      4 C          -2.7364  -17.8549   20.8250 C.3     1  UNL1        0.1305
      5 C          -2.8726  -18.7509   19.6298 C.3     1  UNL1        0.0444
      6 C          -4.0318  -19.6977   19.5305 C.3     1  UNL1        0.0743
      7 C          -1.6408  -17.6932   19.8133 C.2     1  UNL1        0.2397
      8 O          -1.5121  -18.4500   18.5246 O.2     1  UNL1       -0.2734
      9 N          -0.6965  -16.6419   20.3165 N.am    1  UNL1       -0.2862
     10 C          -1.2086  -16.1538   21.6393 C.3     1  UNL1        0.1875
     11 N          -2.4692  -16.9034   21.9536 N.pl3   1  UNL1       -0.2859
     12 H           0.1165  -16.3275   19.8590 H       1  UNL1        0.1510
     13 C          -3.3144  -16.7319   23.1808 C.ar    1  UNL1        0.0515
     14 C          -4.4374  -15.7375   23.1852 C.ar    1  UNL1        0.0147
     15 C          -5.2825  -15.5659   24.4125 C.ar    1  UNL1        0.0036
     16 C          -5.0047  -16.3888   25.6355 C.ar    1  UNL1        0.0297
     17 C          -3.8817  -17.3832   25.6312 C.ar    1  UNL1        0.1414
     18 F          -3.6039  -18.2061   26.8541 F       1  UNL1       -0.2041
     19 C          -3.0366  -17.5547   24.4039 C.ar    1  UNL1        0.0442
     20 C          -6.2140  -20.6952   20.5270 C.3     1  UNL1        0.0936
     21 C          -7.4267  -20.3150   19.7302 C.3     1  UNL1        0.1070
     22 O          -7.8778  -17.6375   21.0058 O.2     1  UNL1       -0.2701
     23 C          -8.9479  -18.6868   21.0661 C.2     1  UNL1        0.2460
     24 N          -8.7224  -20.0256   20.4284 N.am    1  UNL1       -0.2994
     25 H          -9.4248  -20.7143   20.4680 H       1  UNL1        0.1498
     26 C         -10.2436  -18.3974   21.7643 C.ar    1  UNL1        0.0557
     27 C         -11.3176  -17.6216   21.0608 C.ar    1  UNL1        0.0070
     28 C         -12.6133  -17.3322   21.7590 C.ar    1  UNL1        0.0321
     29 C         -12.8351  -17.8185   23.1605 C.ar    1  UNL1        0.1674
     30 F         -14.1307  -17.5291   23.8586 F       1  UNL1       -0.2018
     31 C         -11.7611  -18.5943   23.8639 C.ar    1  UNL1        0.1675
     32 F         -11.9829  -19.0807   25.2654 F       1  UNL1       -0.2018
     33 C         -10.4654  -18.8838   23.1658 C.ar    1  UNL1        0.0365
@<TRIPOS>BOND
     1    22    23    2
     2    23    24   am
     3    24    21    1
     4    21    20    1
     5    20     1    1
     6     1     2    1
     7     2     3    1
     8     3     4    1
     9     4     5    1
    10     5     6    1
    11     4     7    1
    12     7     8    2
    13     7     9   am
    14     9    10    1
    15    10    11    1
    16    11    13    1
    17    13    14   ar
    18    14    15   ar
    19    15    16   ar
    20    16    17   ar
    21    17    18    1
    22    17    19   ar
    23    23    26    1
    24    26    27   ar
    25    27    28   ar
    26    28    29   ar
    27    29    30    1
    28    29    31   ar
    29    31    32    1
    30    31    33   ar
    31     6     1    1
    32    19    13   ar
    33    33    26   ar
    34    11     4    1
    35    24    25    1
    36     9    12    1
@<TRIPOS>MOLECULE
*****
 33 36 0 0 0
SMALL
GASTEIGER

@<TRIPOS>ATOM
      1 N          -5.4725  -16.9305   23.1053 N.3     1  UNL1       -0.2711
      2 C          -4.3391  -17.2650   22.1814 C.3     1  UNL1        0.0743
      3 C          -4.3666  -18.5401   21.3919 C.3     1  UNL1        0.0444
      4 C          -5.5273  -19.4806   21.5262 C.3     1  UNL1        0.1305
      5 C          -6.6607  -19.1460   22.4500 C.3     1  UNL1        0.0444
      6 C          -6.6333  -17.8710   23.2396 C.3     1  UNL1        0.0743
      7 C          -6.6150  -20.5131   21.5563 C.2     1  UNL1        0.2397
      8 O          -7.8663  -20.4518   22.3813 O.2     1  UNL1       -0.2734
      9 N          -6.2318  -21.6177   20.6166 N.am    1  UNL1       -0.2862
     10 C          -4.9072  -21.2678   20.0056 C.3     1  UNL1        0.1875
     11 N          -4.4719  -19.9471   20.5678 N.pl3   1  UNL1       -0.2859
     12 H          -6.7573  -22.4297   20.4330 H       1  UNL1        0.1510
     13 C          -3.2037  -19.2203   20.2308 C.ar    1  UNL1        0.0515
     14 C          -2.0512  -19.2382   21.1906 C.ar    1  UNL1        0.0147
     15 C          -0.7831  -18.5114   20.8535 C.ar    1  UNL1        0.0036
     16 C          -0.6674  -17.7667   19.5566 C.ar    1  UNL1        0.0297
     17 C          -1.8200  -17.7488   18.5967 C.ar    1  UNL1        0.1414
     18 F          -1.7044  -17.0041   17.2998 F       1  UNL1       -0.2041
     19 C          -3.0881  -18.4756   18.9338 C.ar    1  UNL1        0.0442
     20 C          -5.4451  -15.6554   23.8949 C.3     1  UNL1        0.0936
     21 C          -6.6951  -14.8403   24.0467 C.3     1  UNL1        0.1070
     22 O          -7.8664  -14.9567   21.2873 O.2     1  UNL1       -0.2701
     23 C          -8.6217  -15.5338   22.4477 C.2     1  UNL1        0.2460
     24 N          -8.0361  -15.4756   23.8273 N.am    1  UNL1       -0.2994
     25 H          -8.5318  -15.8544   24.5889 H       1  UNL1        0.1498
     26 C          -9.9627  -16.1691   22.2283 C.ar    1  UNL1        0.0557
     27 C         -10.7020  -15.9362   20.9441 C.ar    1  UNL1        0.0070
     28 C         -12.0429  -16.5715   20.7247 C.ar    1  UNL1        0.0321
     29 C         -12.6447  -17.4398   21.7896 C.ar    1  UNL1        0.1674
     30 F         -13.9856  -18.0752   21.5703 F       1  UNL1       -0.2018
     31 C         -11.9054  -17.6728   23.0738 C.ar    1  UNL1        0.1675
     32 F         -12.5072  -18.5411   24.1387 F       1  UNL1       -0.2018
     33 C         -10.5644  -17.0375   23.2932 C.ar    1  UNL1        0.0365
@<TRIPOS>BOND
     1    22    23    2
     2    23    24   am
     3    24    21    1
     4    21    20    1
     5    20     1    1
     6     1     2    1
     7     2     3    1
     8     3     4    1
     9     4     5    1
    10     5     6    1
    11     4     7    1
    12     7     8    2
    13     7     9   am
    14     9    10    1
    15    10    11    1
    16    11    13    1
    17    13    14   ar
    18    14    15   ar
    19    15    16   ar
    20    16    17   ar
    21    17    18    1
    22    17    19   ar
    23    23    26    1
    24    26    27   ar
    25    27    28   ar
    26    28    29   ar
    27    29    30    1
    28    29    31   ar
    29    31    32    1
    30    31    33   ar
    31     6     1    1
    32    19    13   ar
    33    33    26   ar
    34    11     4    1
    35    24    25    1
    36     9    12    1
@<TRIPOS>MOLECULE
*****
 33 36 0 0 0
SMALL
GASTEIGER

@<TRIPOS>ATOM
      1 N          -7.6058  -16.0767   23.9731 N.3     1  UNL1       -0.2711
      2 C          -7.4198  -17.1680   22.9610 C.3     1  UNL1        0.0743
      3 C          -8.2075  -18.4394   23.0756 C.3     1  UNL1        0.0444
      4 C          -9.1812  -18.6194   24.2023 C.3     1  UNL1        0.1305
      5 C          -9.3672  -17.5281   25.2144 C.3     1  UNL1        0.0444
      6 C          -8.5795  -16.2568   25.0998 C.3     1  UNL1        0.0743
      7 C         -10.1858  -18.9411   25.2687 C.2     1  UNL1        0.2397
      8 O         -10.5792  -18.0479   26.4077 O.2     1  UNL1       -0.2734
      9 N         -10.7281  -20.3129   24.9961 N.am    1  UNL1       -0.2862
     10 C         -10.0585  -20.8390   23.7612 C.3     1  UNL1        0.1875
     11 N          -9.1025  -19.7924   23.2706 N.pl3   1  UNL1       -0.2859
     12 H         -11.4046  -20.7851   25.5333 H       1  UNL1        0.1510
     13 C          -8.2223  -19.8999   22.0608 C.ar    1  UNL1        0.0515
     14 C          -6.8062  -20.3737   22.2032 C.ar    1  UNL1        0.0147
     15 C          -5.9261  -20.4810   20.9933 C.ar    1  UNL1        0.0036
     16 C          -6.4619  -20.1146   19.6410 C.ar    1  UNL1        0.0297
     17 C          -7.8780  -19.6408   19.4986 C.ar    1  UNL1        0.1414
     18 F          -8.4139  -19.2744   18.1464 F       1  UNL1       -0.2041
     19 C          -8.7581  -19.5334   20.7085 C.ar    1  UNL1        0.0442
     20 C          -6.8181  -14.8053   23.8586 C.3     1  UNL1        0.0936
     21 C          -5.3439  -14.8088   24.1353 C.3     1  UNL1        0.1070
     22 O          -4.1521  -17.5355   24.5159 O.2     1  UNL1       -0.2701
     23 C          -3.7949  -16.7230   23.3066 C.2     1  UNL1        0.2460
     24 N          -4.3908  -15.3597   23.1163 N.am    1  UNL1       -0.2994
     25 H          -4.1564  -14.8264   22.3226 H       1  UNL1        0.1498
     26 C          -2.8419  -17.2738   22.2877 C.ar    1  UNL1        0.0557
     27 C          -2.8848  -18.7301   21.9307 C.ar    1  UNL1        0.0070
     28 C          -1.9317  -19.2809   20.9118 C.ar    1  UNL1        0.0321
     29 C          -0.9358  -18.3755   20.2497 C.ar    1  UNL1        0.1674
     30 F           0.0172  -18.9263   19.2308 F       1  UNL1       -0.2018
     31 C          -0.8930  -16.9192   20.6066 C.ar    1  UNL1        0.1675
     32 F           0.1029  -16.0138   19.9445 F       1  UNL1       -0.2018
     33 C          -1.8460  -16.3683   21.6256 C.ar    1  UNL1        0.0365
@<TRIPOS>BOND
     1    22    23    2
     2    23    24   am
     3    24    21    1
     4    21    20    1
     5    20     1    1
     6     1     2    1
     7     2     3    1
     8     3     4    1
     9     4     5    1
    10     5     6    1
    11     4     7    1
    12     7     8    2
    13     7     9   am
    14     9    10    1
    15    10    11    1
    16    11    13    1
    17    13    14   ar
    18    14    15   ar
    19    15    16   ar
    20    16    17   ar
    21    17    18    1
    22    17    19   ar
    23    23    26    1
    24    26    27   ar
    25    27    28   ar
    26    28    29   ar
    27    29    30    1
    28    29    31   ar
    29    31    32    1
    30    31    33   ar
    31     6     1    1
    32    19    13   ar
    33    33    26   ar
    34    11     4    1
    35    24    25    1
    36     9    12    1
@<TRIPOS>MOLECULE
*****
 33 36 0 0 0
SMALL
GASTEIGER

@<TRIPOS>ATOM
      1 N           3.5767   -1.0917   23.6743 N.3     1  UNL1       -0.2711
      2 C           3.9550   -1.5693   22.3036 C.3     1  UNL1        0.0743
      3 C           3.2121   -1.0648   21.1021 C.3     1  UNL1        0.0444
      4 C           2.0910   -0.0827   21.2713 C.3     1  UNL1        0.1305
      5 C           1.7128    0.3949   22.6419 C.3     1  UNL1        0.0444
      6 C           2.4556   -0.1096   23.8434 C.3     1  UNL1        0.0743
      7 C           0.9541    0.8956   21.2842 C.2     1  UNL1        0.2397
      8 O           0.3603    1.5413   22.5010 O.2     1  UNL1       -0.2734
      9 N           0.5150    1.1150   19.8667 N.am    1  UNL1       -0.2862
     10 C           1.3807    0.2721   18.9777 C.3     1  UNL1        0.1875
     11 N           2.3547   -0.4680   19.8457 N.pl3   1  UNL1       -0.2859
     12 H          -0.2133    1.7080   19.5717 H       1  UNL1        0.1510
     13 C           3.4075   -1.4255   19.3716 C.ar    1  UNL1        0.0515
     14 C           4.7131   -0.9053   18.8472 C.ar    1  UNL1        0.0147
     15 C           5.7659   -1.8628   18.3731 C.ar    1  UNL1        0.0036
     16 C           5.5132   -3.3405   18.4233 C.ar    1  UNL1        0.0297
     17 C           4.2076   -3.8607   18.9476 C.ar    1  UNL1        0.1414
     18 F           3.9549   -5.3384   18.9978 F       1  UNL1       -0.2041
     19 C           3.1549   -2.9032   19.4217 C.ar    1  UNL1        0.0442
     20 C           4.3195   -1.5961   24.8759 C.3     1  UNL1        0.0936
     21 C           5.8078   -1.7737   24.8175 C.3     1  UNL1        0.1070
     22 O           6.2862   -4.1724   23.0804 O.2     1  UNL1       -0.2701
     23 C           6.6787   -4.2043   24.5278 C.2     1  UNL1        0.2460
     24 N           6.4395   -3.0050   25.3963 N.am    1  UNL1       -0.2994
     25 H           6.6971   -3.0260   26.3463 H       1  UNL1        0.1498
     26 C           7.3103   -5.4355   25.1066 C.ar    1  UNL1        0.0557
     27 C           7.9909   -6.4235   24.2061 C.ar    1  UNL1        0.0070
     28 C           8.6225   -7.6547   24.7849 C.ar    1  UNL1        0.0321
     29 C           8.5737   -7.8980   26.2643 C.ar    1  UNL1        0.1674
     30 F           9.2054   -9.1292   26.8431 F       1  UNL1       -0.2018
     31 C           7.8933   -6.9101   27.1648 C.ar    1  UNL1        0.1675
     32 F           7.8445   -7.1534   28.6441 F       1  UNL1       -0.2018
     33 C           7.2615   -5.6788   26.5859 C.ar    1  UNL1        0.0365
@<TRIPOS>BOND
     1    22    23    2
     2    23    24   am
     3    24    21    1
     4    21    20    1
     5    20     1    1
     6     1     2    1
     7     2     3    1
     8     3     4    1
     9     4     5    1
    10     5     6    1
    11     4     7    1
    12     7     8    2
    13     7     9   am
    14     9    10    1
    15    10    11    1
    16    11    13    1
    17    13    14   ar
    18    14    15   ar
    19    15    16   ar
    20    16    17   ar
    21    17    18    1
    22    17    19   ar
    23    23    26    1
    24    26    27   ar
    25    27    28   ar
    26    28    29   ar
    27    29    30    1
    28    29    31   ar
    29    31    32    1
    30    31    33   ar
    31     6     1    1
    32    19    13   ar
    33    33    26   ar
    34    11     4    1
    35    24    25    1
    36     9    12    1
@<TRIPOS>MOLECULE
*****
 33 36 0 0 0
SMALL
GASTEIGER

@<TRIPOS>ATOM
      1 N           1.4990    0.1389   20.9278 N.3     1  UNL1       -0.2711
      2 C           2.3849   -0.9698   20.4422 C.3     1  UNL1        0.0743
      3 C           3.3132   -1.6607   21.3966 C.3     1  UNL1        0.0444
      4 C           3.3554   -1.2430   22.8366 C.3     1  UNL1        0.1305
      5 C           2.4695   -0.1343   23.3223 C.3     1  UNL1        0.0444
      6 C           1.5413    0.5566   22.3679 C.3     1  UNL1        0.0743
      7 C           3.5070   -0.9362   24.2971 C.2     1  UNL1        0.2397
      8 O           2.7569    0.1155   25.0595 O.2     1  UNL1       -0.2734
      9 N           4.5404   -1.8657   24.8613 N.am    1  UNL1       -0.2862
     10 C           5.0275   -2.7470   23.7494 C.3     1  UNL1        0.1875
     11 N           4.2952   -2.3622   22.4982 N.pl3   1  UNL1       -0.2859
     12 H           4.8454   -1.8926   25.7970 H       1  UNL1        0.1510
     13 C           4.4716   -2.9867   21.1459 C.ar    1  UNL1        0.0515
     14 C           3.6928   -4.2153   20.7798 C.ar    1  UNL1        0.0147
     15 C           3.8692   -4.8398   19.4274 C.ar    1  UNL1        0.0036
     16 C           4.8245   -4.2358   18.4412 C.ar    1  UNL1        0.0297
     17 C           5.6033   -3.0073   18.8073 C.ar    1  UNL1        0.1414
     18 F           6.5586   -2.4033   17.8211 F       1  UNL1       -0.2041
     19 C           5.4269   -2.3828   20.1596 C.ar    1  UNL1        0.0442
     20 C           0.5707    0.8299   19.9734 C.3     1  UNL1        0.0936
     21 C           0.0923    2.2209   20.2670 C.3     1  UNL1        0.1070
     22 O          -2.0014    3.9024   18.9295 O.2     1  UNL1       -0.2701
     23 C          -2.2830    3.2735   20.2619 C.2     1  UNL1        0.2460
     24 N          -1.2361    2.4328   20.9306 N.am    1  UNL1       -0.2994
     25 H          -1.4210    2.0200   21.8051 H       1  UNL1        0.1498
     26 C          -3.6113    3.4854   20.9255 C.ar    1  UNL1        0.0557
     27 C          -4.8007    3.8960   20.1089 C.ar    1  UNL1        0.0070
     28 C          -6.1291    4.1078   20.7725 C.ar    1  UNL1        0.0321
     29 C          -6.2682    3.9091   22.2528 C.ar    1  UNL1        0.1674
     30 F          -7.5966    4.1209   22.9164 F       1  UNL1       -0.2018
     31 C          -5.0789    3.4985   23.0694 C.ar    1  UNL1        0.1675
     32 F          -5.2180    3.2998   24.5497 F       1  UNL1       -0.2018
     33 C          -3.7504    3.2866   22.4058 C.ar    1  UNL1        0.0365
@<TRIPOS>BOND
     1    22    23    2
     2    23    24   am
     3    24    21    1
     4    21    20    1
     5    20     1    1
     6     1     2    1
     7     2     3    1
     8     3     4    1
     9     4     5    1
    10     5     6    1
    11     4     7    1
    12     7     8    2
    13     7     9   am
    14     9    10    1
    15    10    11    1
    16    11    13    1
    17    13    14   ar
    18    14    15   ar
    19    15    16   ar
    20    16    17   ar
    21    17    18    1
    22    17    19   ar
    23    23    26    1
    24    26    27   ar
    25    27    28   ar
    26    28    29   ar
    27    29    30    1
    28    29    31   ar
    29    31    32    1
    30    31    33   ar
    31     6     1    1
    32    19    13   ar
    33    33    26   ar
    34    11     4    1
    35    24    25    1
    36     9    12    1
