@<TRIPOS>MOLECULE
*****
 33 36 0 0 0
SMALL
GASTEIGER

@<TRIPOS>ATOM
      1 N           7.2005   -4.6214   28.6183 N.pl3   1  UNL1       -0.2764
      2 C           7.0846   -5.7714   29.5743 C.3     1  UNL1        0.1094
      3 C           6.8706   -5.2115   30.9494 C.3     1  UNL1        0.0767
      4 N           6.7026   -6.0079   32.2093 N.3     1  UNL1       -0.3205
      5 C           6.8542   -3.7154   30.8432 C.3     1  UNL1        0.0603
      6 C           7.0581   -3.3507   29.4026 C.3     1  UNL1        0.0994
      7 H           6.7558   -7.0031   31.9921 H       1  UNL1        0.1189
      8 H           5.7950   -5.7987   32.6253 H       1  UNL1        0.1189
      9 C           6.6669   -2.7529   31.9783 C.ar    1  UNL1        0.0103
     10 C           5.3298   -2.6338   32.6477 C.ar    1  UNL1        0.0300
     11 C           5.1424   -1.6713   33.7829 C.ar    1  UNL1        0.1672
     12 F           3.8054   -1.5522   34.4522 F       1  UNL1       -0.2018
     13 C           6.2922   -0.8280   34.2486 C.ar    1  UNL1        0.1696
     14 F           6.1049    0.1345   35.3838 F       1  UNL1       -0.2017
     15 C           7.6292   -0.9471   33.5792 C.ar    1  UNL1        0.0612
     16 C           7.8166   -1.9096   32.4441 C.ar    1  UNL1        0.1386
     17 F           9.1536   -2.0287   31.7747 F       1  UNL1       -0.2044
     18 C           6.7034   -4.1364   24.7110 C.ar    1  UNL1        0.1669
     19 N           7.8596   -4.9293   24.1775 N.ar    1  UNL1       -0.2047
     20 C           8.7961   -5.6196   25.1244 C.ar    1  UNL1        0.2027
     21 N           8.5764   -5.5169   26.6047 N.ar    1  UNL1       -0.1913
     22 C           7.4202   -4.7240   27.1381 C.ar    1  UNL1        0.2230
     23 N           6.4837   -4.0338   26.1912 N.ar    1  UNL1       -0.1945
     24 C           4.7236   -3.2214   21.3954 C.ar    1  UNL1        0.1058
     25 C           3.8939   -2.0656   21.8705 C.ar    1  UNL1        0.0183
     26 C           4.0008   -1.6000   23.2924 C.ar    1  UNL1        0.0014
     27 C           4.9372   -2.2903   24.2392 C.ar    1  UNL1        0.0031
     28 C           5.7669   -3.4461   23.7641 C.ar    1  UNL1        0.0372
     29 C           5.6600   -3.9117   22.3422 C.ar    1  UNL1        0.0214
     30 C           4.5099   -4.1526   18.5516 C.3     1  UNL1        0.1816
     31 S           4.6167   -3.6870   19.9735 S.O2    1  UNL1        0.0105
     32 O           3.4308   -2.7914   19.7694 O.2     1  UNL1       -0.1686
     33 O           5.8026   -4.5826   20.1776 O.2     1  UNL1       -0.1686
@<TRIPOS>BOND
     1    30    31    1
     2    31    32    2
     3    31    33    2
     4    31    24    1
     5    24    25   ar
     6    25    26   ar
     7    26    27   ar
     8    27    28   ar
     9    28    18    1
    10    18    19   ar
    11    19    20   ar
    12    20    21   ar
    13    21    22   ar
    14    22     1    1
    15     1     2    1
    16     2     3    1
    17     3     4    1
    18     3     5    1
    19     5     9    1
    20     9    10   ar
    21    10    11   ar
    22    11    12    1
    23    11    13   ar
    24    13    14    1
    25    13    15   ar
    26    15    16   ar
    27    16    17    1
    28     5     6    1
    29    22    23   ar
    30    28    29   ar
    31    29    24   ar
    32    23    18   ar
    33     6     1    1
    34    16     9   ar
    35     4     7    1
    36     4     8    1
@<TRIPOS>MOLECULE
*****
 33 36 0 0 0
SMALL
GASTEIGER

@<TRIPOS>ATOM
      1 N           5.9124   -3.4916   21.4821 N.pl3   1  UNL1       -0.2764
      2 C           6.0789   -3.9078   20.0506 C.3     1  UNL1        0.1094
      3 C           5.1967   -3.0348   19.2083 C.3     1  UNL1        0.0767
      4 N           5.0517   -3.1052   17.7170 N.3     1  UNL1       -0.3205
      5 C           4.4849   -2.0790   20.1193 C.3     1  UNL1        0.0603
      6 C           4.9272   -2.3614   21.5245 C.3     1  UNL1        0.0994
      7 H           5.6505   -3.8458   17.3518 H       1  UNL1        0.1189
      8 H           5.3259   -2.2127   17.3063 H       1  UNL1        0.1189
      9 C           3.5031   -1.0258   19.6988 C.ar    1  UNL1        0.0103
     10 C           2.1026   -1.0488   20.2356 C.ar    1  UNL1        0.0300
     11 C           1.1208    0.0044   19.8151 C.ar    1  UNL1        0.1672
     12 F          -0.2796   -0.0187   20.3518 F       1  UNL1       -0.2018
     13 C           1.5396    1.0807   18.8579 C.ar    1  UNL1        0.1696
     14 F           0.5578    2.1340   18.4374 F       1  UNL1       -0.2017
     15 C           2.9400    1.1038   18.3212 C.ar    1  UNL1        0.0612
     16 C           3.9218    0.0505   18.7416 C.ar    1  UNL1        0.1386
     17 F           5.3223    0.0736   18.2049 F       1  UNL1       -0.2044
     18 C           7.0310   -4.1877   25.2256 C.ar    1  UNL1        0.1669
     19 N           8.0016   -5.3139   25.0267 N.ar    1  UNL1       -0.2047
     20 C           8.2758   -5.8328   23.6462 C.ar    1  UNL1        0.2027
     21 N           7.5794   -5.2254   22.4647 N.ar    1  UNL1       -0.1913
     22 C           6.6088   -4.0991   22.6636 C.ar    1  UNL1        0.2230
     23 N           6.3346   -3.5803   24.0440 N.ar    1  UNL1       -0.1945
     24 C           6.6871   -4.0401   29.1765 C.ar    1  UNL1        0.1058
     25 C           6.2085   -2.6313   29.3670 C.ar    1  UNL1        0.0183
     26 C           6.0040   -1.7413   28.1769 C.ar    1  UNL1        0.0014
     27 C           6.2782   -2.2601   26.7965 C.ar    1  UNL1        0.0031
     28 C           6.7568   -3.6689   26.6061 C.ar    1  UNL1        0.0372
     29 C           6.9612   -4.5588   27.7961 C.ar    1  UNL1        0.0214
     30 C           7.0959   -5.8200   31.5566 C.3     1  UNL1        0.1816
     31 S           6.8915   -4.9301   30.3666 S.O2    1  UNL1        0.0105
     32 O           6.5456   -3.7903   31.2784 O.2     1  UNL1       -0.1686
     33 O           7.2374   -6.0698   29.4548 O.2     1  UNL1       -0.1686
@<TRIPOS>BOND
     1    30    31    1
     2    31    32    2
     3    31    33    2
     4    31    24    1
     5    24    25   ar
     6    25    26   ar
     7    26    27   ar
     8    27    28   ar
     9    28    18    1
    10    18    19   ar
    11    19    20   ar
    12    20    21   ar
    13    21    22   ar
    14    22     1    1
    15     1     2    1
    16     2     3    1
    17     3     4    1
    18     3     5    1
    19     5     9    1
    20     9    10   ar
    21    10    11   ar
    22    11    12    1
    23    11    13   ar
    24    13    14    1
    25    13    15   ar
    26    15    16   ar
    27    16    17    1
    28     5     6    1
    29    22    23   ar
    30    28    29   ar
    31    29    24   ar
    32    23    18   ar
    33     6     1    1
    34    16     9   ar
    35     4     7    1
    36     4     8    1
@<TRIPOS>MOLECULE
*****
 33 36 0 0 0
SMALL
GASTEIGER

@<TRIPOS>ATOM
      1 N           0.9672    2.2461   18.7087 N.pl3   1  UNL1       -0.2764
      2 C           2.2747    2.9127   18.3986 C.3     1  UNL1        0.1094
      3 C           3.3534    1.8726   18.4685 C.3     1  UNL1        0.0767
      4 N           4.8160    2.1017   18.2274 N.3     1  UNL1       -0.3205
      5 C           2.7125    0.5633   18.8218 C.3     1  UNL1        0.0603
      6 C           1.2378    0.7941   18.9703 C.3     1  UNL1        0.0994
      7 H           4.9741    3.0846   18.0050 H       1  UNL1        0.1189
      8 H           5.1269    1.5225   17.4475 H       1  UNL1        0.1189
      9 C           3.4217   -0.7469   18.9961 C.ar    1  UNL1        0.0103
     10 C           3.4085   -1.4355   20.3286 C.ar    1  UNL1        0.0300
     11 C           4.1178   -2.7457   20.5029 C.ar    1  UNL1        0.1672
     12 F           4.1045   -3.4342   21.8354 F       1  UNL1       -0.2018
     13 C           4.8402   -3.3672   19.3446 C.ar    1  UNL1        0.1696
     14 F           5.5495   -4.6775   19.5188 F       1  UNL1       -0.2017
     15 C           4.8535   -2.6787   18.0121 C.ar    1  UNL1        0.0612
     16 C           4.1442   -1.3685   17.8378 C.ar    1  UNL1        0.1386
     17 F           4.1575   -0.6799   16.5053 F       1  UNL1       -0.2044
     18 C          -2.5184    3.5787   20.0595 C.ar    1  UNL1        0.1669
     19 N          -3.0598    4.2506   18.8326 N.ar    1  UNL1       -0.2047
     20 C          -2.2588    4.2544   17.5642 C.ar    1  UNL1        0.2027
     21 N          -0.9165    3.5862   17.5230 N.ar    1  UNL1       -0.1913
     22 C          -0.3751    2.9143   18.7500 C.ar    1  UNL1        0.2230
     23 N          -1.1760    2.9105   20.0182 N.ar    1  UNL1       -0.1945
     24 C          -3.4235    3.6284   23.9232 C.ar    1  UNL1        0.1058
     25 C          -4.9211    3.5673   23.8643 C.ar    1  UNL1        0.0183
     26 C          -5.6178    3.5101   22.5372 C.ar    1  UNL1        0.0014
     27 C          -4.8169    3.5139   21.2689 C.ar    1  UNL1        0.0031
     28 C          -3.3193    3.5749   21.3278 C.ar    1  UNL1        0.0372
     29 C          -2.6226    3.6322   22.6549 C.ar    1  UNL1        0.0214
     30 C          -2.0301    3.7429   26.5775 C.3     1  UNL1        0.1816
     31 S          -2.7268    3.6856   25.2504 S.O2    1  UNL1        0.0105
     32 O          -1.3985    3.6351   24.5553 O.2     1  UNL1       -0.1686
     33 O          -4.0551    3.7362   25.9455 O.2     1  UNL1       -0.1686
@<TRIPOS>BOND
     1    30    31    1
     2    31    32    2
     3    31    33    2
     4    31    24    1
     5    24    25   ar
     6    25    26   ar
     7    26    27   ar
     8    27    28   ar
     9    28    18    1
    10    18    19   ar
    11    19    20   ar
    12    20    21   ar
    13    21    22   ar
    14    22     1    1
    15     1     2    1
    16     2     3    1
    17     3     4    1
    18     3     5    1
    19     5     9    1
    20     9    10   ar
    21    10    11   ar
    22    11    12    1
    23    11    13   ar
    24    13    14    1
    25    13    15   ar
    26    15    16   ar
    27    16    17    1
    28     5     6    1
    29    22    23   ar
    30    28    29   ar
    31    29    24   ar
    32    23    18   ar
    33     6     1    1
    34    16     9   ar
    35     4     7    1
    36     4     8    1
@<TRIPOS>MOLECULE
*****
 33 36 0 0 0
SMALL
GASTEIGER

@<TRIPOS>ATOM
      1 N           5.2932   -2.9336   22.4813 N.pl3   1  UNL1       -0.2764
      2 C           4.5797   -2.3051   23.6414 C.3     1  UNL1        0.1094
      3 C           3.5652   -1.3441   23.0962 C.3     1  UNL1        0.0767
      4 N           2.6286   -0.4973   23.9060 N.3     1  UNL1       -0.3205
      5 C           3.6516   -1.3787   21.5991 C.3     1  UNL1        0.0603
      6 C           4.7196   -2.3610   21.2191 C.3     1  UNL1        0.0994
      7 H           2.7841   -0.6724   24.8987 H       1  UNL1        0.1189
      8 H           1.6652   -0.7313   23.6663 H       1  UNL1        0.1189
      9 C           2.8167   -0.5725   20.6489 C.ar    1  UNL1        0.0103
     10 C           1.4772   -0.0543   21.0815 C.ar    1  UNL1        0.0300
     11 C           0.6423    0.7518   20.1313 C.ar    1  UNL1        0.1672
     12 F          -0.6972    1.2700   20.5639 F       1  UNL1       -0.2018
     13 C           1.1470    1.0398   18.7484 C.ar    1  UNL1        0.1696
     14 F           0.3121    1.8460   17.7980 F       1  UNL1       -0.2017
     15 C           2.4864    0.5217   18.3158 C.ar    1  UNL1        0.0612
     16 C           3.3213   -0.2845   19.2660 C.ar    1  UNL1        0.1386
     17 F           4.6609   -0.8027   18.8334 F       1  UNL1       -0.2044
     18 C           7.7434   -5.6889   23.9492 C.ar    1  UNL1        0.1669
     19 N           8.5778   -5.9985   22.7418 N.ar    1  UNL1       -0.2047
     20 C           8.3174   -5.2864   21.4475 C.ar    1  UNL1        0.2027
     21 N           7.2225   -4.2648   21.3606 N.ar    1  UNL1       -0.1913
     22 C           6.3881   -3.9552   22.5681 C.ar    1  UNL1        0.2230
     23 N           6.6485   -4.6673   23.8624 N.ar    1  UNL1       -0.1945
     24 C           7.8042   -6.5093   27.8317 C.ar    1  UNL1        0.1058
     25 C           8.5246   -7.8250   27.8321 C.ar    1  UNL1        0.0183
     26 C           8.9846   -8.4286   26.5383 C.ar    1  UNL1        0.0014
     27 C           8.7242   -7.7166   25.2440 C.ar    1  UNL1        0.0031
     28 C           8.0038   -6.4010   25.2435 C.ar    1  UNL1        0.0372
     29 C           7.5438   -5.7973   26.5374 C.ar    1  UNL1        0.0214
     30 C           6.8842   -5.3020   30.4193 C.3     1  UNL1        0.1816
     31 S           7.3442   -5.9057   29.1255 S.O2    1  UNL1        0.0105
     32 O           8.5567   -6.4582   29.8144 O.2     1  UNL1       -0.1686
     33 O           6.1317   -5.3532   28.4366 O.2     1  UNL1       -0.1686
@<TRIPOS>BOND
     1    30    31    1
     2    31    32    2
     3    31    33    2
     4    31    24    1
     5    24    25   ar
     6    25    26   ar
     7    26    27   ar
     8    27    28   ar
     9    28    18    1
    10    18    19   ar
    11    19    20   ar
    12    20    21   ar
    13    21    22   ar
    14    22     1    1
    15     1     2    1
    16     2     3    1
    17     3     4    1
    18     3     5    1
    19     5     9    1
    20     9    10   ar
    21    10    11   ar
    22    11    12    1
    23    11    13   ar
    24    13    14    1
    25    13    15   ar
    26    15    16   ar
    27    16    17    1
    28     5     6    1
    29    22    23   ar
    30    28    29   ar
    31    29    24   ar
    32    23    18   ar
    33     6     1    1
    34    16     9   ar
    35     4     7    1
    36     4     8    1
@<TRIPOS>MOLECULE
*****
 33 36 0 0 0
SMALL
GASTEIGER

@<TRIPOS>ATOM
      1 N           0.3078    1.9858   22.7594 N.pl3   1  UNL1       -0.2764
      2 C           1.3989    0.9631   22.8757 C.3     1  UNL1        0.1094
      3 C           1.6255    0.6906   24.3332 C.3     1  UNL1        0.0767
      4 N           2.6273   -0.2679   24.9056 N.3     1  UNL1       -0.3205
      5 C           0.6745    1.5449   25.1178 C.3     1  UNL1        0.0603
      6 C          -0.1399    2.3453   24.1452 C.3     1  UNL1        0.0994
      7 H           3.1415   -0.7157   24.1469 H       1  UNL1        0.1189
      8 H           2.1431   -0.9787   25.4540 H       1  UNL1        0.1189
      9 C           0.5582    1.5907   26.6126 C.ar    1  UNL1        0.0103
     10 C          -0.6018    0.9285   27.2953 C.ar    1  UNL1        0.0300
     11 C          -0.7181    0.9743   28.7901 C.ar    1  UNL1        0.1672
     12 F          -1.8780    0.3122   29.4727 F       1  UNL1       -0.2018
     13 C           0.3256    1.6824   29.6021 C.ar    1  UNL1        0.1696
     14 F           0.2094    1.7282   31.0969 F       1  UNL1       -0.2017
     15 C           1.4855    2.3445   28.9194 C.ar    1  UNL1        0.0612
     16 C           1.6018    2.2987   27.4247 C.ar    1  UNL1        0.1386
     17 F           2.7618    2.9609   26.7420 F       1  UNL1       -0.2044
     18 C          -2.2512    3.4155   20.0841 C.ar    1  UNL1        0.1669
     19 N          -1.3340    3.6781   18.9266 N.ar    1  UNL1       -0.2047
     20 C           0.1305    3.3765   19.0467 C.ar    1  UNL1        0.2027
     21 N           0.6778    2.8124   20.3243 N.ar    1  UNL1       -0.1913
     22 C          -0.2395    2.5499   21.4818 C.ar    1  UNL1        0.2230
     23 N          -1.7039    2.8514   21.3617 N.ar    1  UNL1       -0.1945
     24 C          -6.0025    4.2464   21.0776 C.ar    1  UNL1        0.1058
     25 C          -6.6446    4.3201   19.7240 C.ar    1  UNL1        0.0183
     26 C          -5.8221    4.0924   18.4904 C.ar    1  UNL1        0.0014
     27 C          -4.3577    3.7908   18.6104 C.ar    1  UNL1        0.0031
     28 C          -3.7157    3.7171   19.9640 C.ar    1  UNL1        0.0372
     29 C          -4.5381    3.9448   21.1976 C.ar    1  UNL1        0.0214
     30 C          -7.6474    4.7019   23.5448 C.3     1  UNL1        0.1816
     31 S          -6.8249    4.4741   22.3112 S.O2    1  UNL1        0.0105
     32 O          -7.7150    5.4076   21.5455 O.2     1  UNL1       -0.1686
     33 O          -5.9349    3.5406   23.0769 O.2     1  UNL1       -0.1686
@<TRIPOS>BOND
     1    30    31    1
     2    31    32    2
     3    31    33    2
     4    31    24    1
     5    24    25   ar
     6    25    26   ar
     7    26    27   ar
     8    27    28   ar
     9    28    18    1
    10    18    19   ar
    11    19    20   ar
    12    20    21   ar
    13    21    22   ar
    14    22     1    1
    15     1     2    1
    16     2     3    1
    17     3     4    1
    18     3     5    1
    19     5     9    1
    20     9    10   ar
    21    10    11   ar
    22    11    12    1
    23    11    13   ar
    24    13    14    1
    25    13    15   ar
    26    15    16   ar
    27    16    17    1
    28     5     6    1
    29    22    23   ar
    30    28    29   ar
    31    29    24   ar
    32    23    18   ar
    33     6     1    1
    34    16     9   ar
    35     4     7    1
    36     4     8    1
@<TRIPOS>MOLECULE
*****
 33 36 0 0 0
SMALL
GASTEIGER

@<TRIPOS>ATOM
      1 N           0.1983    2.1901   20.7461 N.pl3   1  UNL1       -0.2764
      2 C           1.3825    2.6207   21.5599 C.3     1  UNL1        0.1094
      3 C           2.4996    1.6539   21.3002 C.3     1  UNL1        0.0767
      4 N           3.8699    1.7060   21.9080 N.3     1  UNL1       -0.3205
      5 C           2.0058    0.6258   20.3259 C.3     1  UNL1        0.0603
      6 C           0.5835    0.9572   19.9835 C.3     1  UNL1        0.0994
      7 H           3.9336    2.5083   22.5347 H       1  UNL1        0.1189
      8 H           4.5667    1.7961   21.1686 H       1  UNL1        0.1189
      9 C           2.7955   -0.5307   19.7884 C.ar    1  UNL1        0.0103
     10 C           3.0503   -1.7307   20.6516 C.ar    1  UNL1        0.0300
     11 C           3.8401   -2.8871   20.1141 C.ar    1  UNL1        0.1672
     12 F           4.0949   -4.0870   20.9773 F       1  UNL1       -0.2018
     13 C           4.3750   -2.8435   18.7134 C.ar    1  UNL1        0.1696
     14 F           5.1648   -4.0000   18.1758 F       1  UNL1       -0.2017
     15 C           4.1202   -1.6435   17.8503 C.ar    1  UNL1        0.0612
     16 C           3.3304   -0.4871   18.3877 C.ar    1  UNL1        0.1386
     17 F           3.0756    0.7129   17.5246 F       1  UNL1       -0.2044
     18 C          -3.2423    3.7771   21.9268 C.ar    1  UNL1        0.1669
     19 N          -3.8068    4.2377   20.6157 N.ar    1  UNL1       -0.2047
     20 C          -3.0363    4.0157   19.3479 C.ar    1  UNL1        0.2027
     21 N          -1.7013    3.3332   19.3914 N.ar    1  UNL1       -0.1913
     22 C          -1.1368    2.8726   20.7026 C.ar    1  UNL1        0.2230
     23 N          -1.9073    3.0946   21.9703 N.ar    1  UNL1       -0.1945
     24 C          -6.1722    4.7849   24.4068 C.ar    1  UNL1        0.1058
     25 C          -5.5539    4.4428   25.7299 C.ar    1  UNL1        0.0183
     26 C          -4.1650    3.8789   25.7853 C.ar    1  UNL1        0.0014
     27 C          -3.3945    3.6569   24.5177 C.ar    1  UNL1        0.0031
     28 C          -4.0128    3.9990   23.1946 C.ar    1  UNL1        0.0372
     29 C          -5.4017    4.5630   23.1391 C.ar    1  UNL1        0.0214
     30 C          -8.9499    5.9128   24.2959 C.3     1  UNL1        0.1816
     31 S          -7.5610    5.3488   24.3513 S.O2    1  UNL1        0.0105
     32 O          -7.7947    4.6451   23.0475 O.2     1  UNL1       -0.1686
     33 O          -7.3273    6.0526   25.6552 O.2     1  UNL1       -0.1686
@<TRIPOS>BOND
     1    30    31    1
     2    31    32    2
     3    31    33    2
     4    31    24    1
     5    24    25   ar
     6    25    26   ar
     7    26    27   ar
     8    27    28   ar
     9    28    18    1
    10    18    19   ar
    11    19    20   ar
    12    20    21   ar
    13    21    22   ar
    14    22     1    1
    15     1     2    1
    16     2     3    1
    17     3     4    1
    18     3     5    1
    19     5     9    1
    20     9    10   ar
    21    10    11   ar
    22    11    12    1
    23    11    13   ar
    24    13    14    1
    25    13    15   ar
    26    15    16   ar
    27    16    17    1
    28     5     6    1
    29    22    23   ar
    30    28    29   ar
    31    29    24   ar
    32    23    18   ar
    33     6     1    1
    34    16     9   ar
    35     4     7    1
    36     4     8    1
@<TRIPOS>MOLECULE
*****
 33 36 0 0 0
SMALL
GASTEIGER

@<TRIPOS>ATOM
      1 N           7.0043   -4.9647   28.3964 N.pl3   1  UNL1       -0.2764
      2 C           7.0120   -6.0424   29.4396 C.3     1  UNL1        0.1094
      3 C           6.8452   -5.3909   30.7804 C.3     1  UNL1        0.0767
      4 N           6.7976   -6.0960   32.1035 N.3     1  UNL1       -0.3205
      5 C           6.7344   -3.9105   30.5658 C.3     1  UNL1        0.0603
      6 C           6.8327   -3.6471   29.0924 C.3     1  UNL1        0.0994
      7 H           6.8968   -7.1006   31.9572 H       1  UNL1        0.1189
      8 H           5.9049   -5.9052   32.5585 H       1  UNL1        0.1189
      9 C           6.5566   -2.8752   31.6366 C.ar    1  UNL1        0.0103
     10 C           5.1778   -2.4667   32.0633 C.ar    1  UNL1        0.0300
     11 C           4.9999   -1.4314   33.1340 C.ar    1  UNL1        0.1672
     12 F           3.6212   -1.0229   33.5607 F       1  UNL1       -0.2018
     13 C           6.2009   -0.8047   33.7781 C.ar    1  UNL1        0.1696
     14 F           6.0231    0.2307   34.8489 F       1  UNL1       -0.2017
     15 C           7.5797   -1.2132   33.3515 C.ar    1  UNL1        0.0612
     16 C           7.7575   -2.2484   32.2807 C.ar    1  UNL1        0.1386
     17 F           9.1363   -2.6570   31.8540 F       1  UNL1       -0.2044
     18 C           6.5644   -4.4647   24.4840 C.ar    1  UNL1        0.1669
     19 N           7.4224   -5.5768   23.9578 N.ar    1  UNL1       -0.2047
     20 C           8.1411   -6.4850   24.9112 C.ar    1  UNL1        0.2027
     21 N           8.0017   -6.2809   26.3907 N.ar    1  UNL1       -0.1913
     22 C           7.1436   -5.1687   26.9169 C.ar    1  UNL1        0.2230
     23 N           6.4250   -4.2606   25.9635 N.ar    1  UNL1       -0.1945
     24 C           4.1466   -1.6393   23.0977 C.ar    1  UNL1        0.1058
     25 C           4.4083   -1.7403   21.6242 C.ar    1  UNL1        0.0183
     26 C           5.3886   -2.7494   21.1039 C.ar    1  UNL1        0.0014
     27 C           6.1073   -3.6575   22.0572 C.ar    1  UNL1        0.0031
     28 C           5.8456   -3.5565   23.5307 C.ar    1  UNL1        0.0372
     29 C           4.8653   -2.5474   24.0510 C.ar    1  UNL1        0.0214
     30 C           2.1860    0.3789   24.1383 C.3     1  UNL1        0.1816
     31 S           3.1663   -0.6302   23.6180 S.O2    1  UNL1        0.0105
     32 O           3.7598   -0.7607   24.9894 O.2     1  UNL1       -0.1686
     33 O           2.5728   -0.4997   22.2466 O.2     1  UNL1       -0.1686
@<TRIPOS>BOND
     1    30    31    1
     2    31    32    2
     3    31    33    2
     4    31    24    1
     5    24    25   ar
     6    25    26   ar
     7    26    27   ar
     8    27    28   ar
     9    28    18    1
    10    18    19   ar
    11    19    20   ar
    12    20    21   ar
    13    21    22   ar
    14    22     1    1
    15     1     2    1
    16     2     3    1
    17     3     4    1
    18     3     5    1
    19     5     9    1
    20     9    10   ar
    21    10    11   ar
    22    11    12    1
    23    11    13   ar
    24    13    14    1
    25    13    15   ar
    26    15    16   ar
    27    16    17    1
    28     5     6    1
    29    22    23   ar
    30    28    29   ar
    31    29    24   ar
    32    23    18   ar
    33     6     1    1
    34    16     9   ar
    35     4     7    1
    36     4     8    1
@<TRIPOS>MOLECULE
*****
 33 36 0 0 0
SMALL
GASTEIGER

@<TRIPOS>ATOM
      1 N          -0.1624    1.9987   20.5765 N.pl3   1  UNL1       -0.2764
      2 C           0.4114    1.6952   21.9287 C.3     1  UNL1        0.1094
      3 C           1.5511    0.7375   21.7445 C.3     1  UNL1        0.0767
      4 N           2.4094    0.1682   22.8349 N.3     1  UNL1       -0.3205
      5 C           1.6816    0.4489   20.2783 C.3     1  UNL1        0.0603
      6 C           0.6226    1.2284   19.5564 C.3     1  UNL1        0.0994
      7 H           2.1007    0.5330   23.7360 H       1  UNL1        0.1189
      8 H           3.3815    0.4332   22.6758 H       1  UNL1        0.1189
      9 C           2.6933   -0.4595   19.6451 C.ar    1  UNL1        0.0103
     10 C           2.6888   -1.9253   19.9639 C.ar    1  UNL1        0.0300
     11 C           3.7005   -2.8337   19.3307 C.ar    1  UNL1        0.1672
     12 F           3.6959   -4.2994   19.6495 F       1  UNL1       -0.2018
     13 C           4.7169   -2.2764   18.3787 C.ar    1  UNL1        0.1696
     14 F           5.7288   -3.1849   17.7454 F       1  UNL1       -0.2017
     15 C           4.7215   -0.8107   18.0598 C.ar    1  UNL1        0.0612
     16 C           3.7097    0.0977   18.6930 C.ar    1  UNL1        0.1386
     17 F           3.7143    1.5635   18.3742 F       1  UNL1       -0.2044
     18 C          -3.5322    4.0402   21.0525 C.ar    1  UNL1        0.1669
     19 N          -3.6299    4.7386   19.7286 N.ar    1  UNL1       -0.2047
     20 C          -2.5718    4.5238   18.6873 C.ar    1  UNL1        0.2027
     21 N          -1.4159    3.6104   18.9699 N.ar    1  UNL1       -0.1913
     22 C          -1.3182    2.9120   20.2939 C.ar    1  UNL1        0.2230
     23 N          -2.3763    3.1269   21.3351 N.ar    1  UNL1       -0.1945
     24 C          -5.2637    4.9190   24.5136 C.ar    1  UNL1        0.1058
     25 C          -6.7064    4.6848   24.1764 C.ar    1  UNL1        0.0183
     26 C          -7.0910    4.2358   22.7978 C.ar    1  UNL1        0.0014
     27 C          -6.0330    4.0209   21.7565 C.ar    1  UNL1        0.0031
     28 C          -4.5903    4.2551   22.0938 C.ar    1  UNL1        0.0372
     29 C          -4.2057    4.7041   23.4724 C.ar    1  UNL1        0.0214
     30 C          -4.4944    5.8170   27.2708 C.3     1  UNL1        0.1816
     31 S          -4.8791    5.3680   25.8922 S.O2    1  UNL1        0.0105
     32 O          -6.3283    5.4460   26.2712 O.2     1  UNL1       -0.1686
     33 O          -3.4298    5.2900   25.5132 O.2     1  UNL1       -0.1686
@<TRIPOS>BOND
     1    30    31    1
     2    31    32    2
     3    31    33    2
     4    31    24    1
     5    24    25   ar
     6    25    26   ar
     7    26    27   ar
     8    27    28   ar
     9    28    18    1
    10    18    19   ar
    11    19    20   ar
    12    20    21   ar
    13    21    22   ar
    14    22     1    1
    15     1     2    1
    16     2     3    1
    17     3     4    1
    18     3     5    1
    19     5     9    1
    20     9    10   ar
    21    10    11   ar
    22    11    12    1
    23    11    13   ar
    24    13    14    1
    25    13    15   ar
    26    15    16   ar
    27    16    17    1
    28     5     6    1
    29    22    23   ar
    30    28    29   ar
    31    29    24   ar
    32    23    18   ar
    33     6     1    1
    34    16     9   ar
    35     4     7    1
    36     4     8    1
@<TRIPOS>MOLECULE
*****
 33 36 0 0 0
SMALL
GASTEIGER

@<TRIPOS>ATOM
      1 N           1.0308    2.0122   24.6104 N.pl3   1  UNL1       -0.2764
      2 C           1.3310    3.4387   24.2569 C.3     1  UNL1        0.1094
      3 C           0.0371    4.1974   24.2524 C.3     1  UNL1        0.0767
      4 N          -0.1279    5.6573   23.9502 N.3     1  UNL1       -0.3205
      5 C          -1.0629    3.2398   24.6032 C.3     1  UNL1        0.0603
      6 C          -0.4487    1.8893   24.8244 C.3     1  UNL1        0.0994
      7 H           0.7832    6.0670   23.7445 H       1  UNL1        0.1189
      8 H          -0.5377    6.1274   24.7574 H       1  UNL1        0.1189
      9 C          -2.5211    3.5739   24.7133 C.ar    1  UNL1        0.0103
     10 C          -3.1149    3.9089   26.0495 C.ar    1  UNL1        0.0300
     11 C          -4.5730    4.2431   26.1597 C.ar    1  UNL1        0.1672
     12 F          -5.1668    4.5780   27.4957 F       1  UNL1       -0.2018
     13 C          -5.4373    4.2423   24.9336 C.ar    1  UNL1        0.1696
     14 F          -6.8955    4.5765   25.0438 F       1  UNL1       -0.2017
     15 C          -4.8435    3.9074   23.5976 C.ar    1  UNL1        0.0612
     16 C          -3.3854    3.5732   23.4874 C.ar    1  UNL1        0.1386
     17 F          -2.7915    3.2382   22.1513 F       1  UNL1       -0.2044
     18 C           3.4345   -0.9906   23.6329 C.ar    1  UNL1        0.1669
     19 N           4.0403   -1.3144   24.9663 N.ar    1  UNL1       -0.2047
     20 C           3.6430   -0.5293   26.1812 C.ar    1  UNL1        0.2027
     21 N           2.6398    0.5796   26.0625 N.ar    1  UNL1       -0.1913
     22 C           2.0340    0.9033   24.7290 C.ar    1  UNL1        0.2230
     23 N           2.4313    0.1182   23.5142 N.ar    1  UNL1       -0.1945
     24 C           4.0636   -1.9636   19.8372 C.ar    1  UNL1        0.1058
     25 C           4.6263   -3.3458   19.9884 C.ar    1  UNL1        0.0183
     26 C           4.7917   -3.9430   21.3544 C.ar    1  UNL1        0.0014
     27 C           4.3945   -3.1579   22.5692 C.ar    1  UNL1        0.0031
     28 C           3.8318   -1.7758   22.4180 C.ar    1  UNL1        0.0372
     29 C           3.6664   -1.1786   21.0520 C.ar    1  UNL1        0.0214
     30 C           3.7328   -0.7693   17.1051 C.3     1  UNL1        0.1816
     31 S           3.8982   -1.3665   18.4711 S.O2    1  UNL1        0.0105
     32 O           4.9322   -2.3106   17.9332 O.2     1  UNL1       -0.1686
     33 O           2.8642   -0.4223   19.0091 O.2     1  UNL1       -0.1686
@<TRIPOS>BOND
     1    30    31    1
     2    31    32    2
     3    31    33    2
     4    31    24    1
     5    24    25   ar
     6    25    26   ar
     7    26    27   ar
     8    27    28   ar
     9    28    18    1
    10    18    19   ar
    11    19    20   ar
    12    20    21   ar
    13    21    22   ar
    14    22     1    1
    15     1     2    1
    16     2     3    1
    17     3     4    1
    18     3     5    1
    19     5     9    1
    20     9    10   ar
    21    10    11   ar
    22    11    12    1
    23    11    13   ar
    24    13    14    1
    25    13    15   ar
    26    15    16   ar
    27    16    17    1
    28     5     6    1
    29    22    23   ar
    30    28    29   ar
    31    29    24   ar
    32    23    18   ar
    33     6     1    1
    34    16     9   ar
    35     4     7    1
    36     4     8    1
