@<TRIPOS>MOLECULE
*****
 17 18 0 0 0
SMALL
GASTEIGER

@<TRIPOS>ATOM
      1 C         -10.2430  -19.3248   21.1206 C.ar    1  UNL1        0.1386
      2 C          -9.4600  -19.3287   19.8413 C.ar    1  UNL1        0.0369
      3 C          -7.9673  -19.4726   19.8759 C.ar    1  UNL1        0.0046
      4 C          -7.2576  -19.6126   21.1900 C.ar    1  UNL1        0.0180
      5 C          -8.0407  -19.6087   22.4693 C.ar    1  UNL1        0.0046
      6 C          -9.5334  -19.4648   22.4346 C.ar    1  UNL1        0.0369
      7 C          -5.7650  -19.7565   21.2247 C.ar    1  UNL1        0.0846
      8 C          -5.0590  -20.5136   20.1391 C.ar    1  UNL1        0.0398
      9 C          -3.5664  -20.6575   20.1738 C.ar    1  UNL1        0.1022
     10 N          -2.7796  -20.0443   21.2941 N.ar    1  UNL1       -0.2224
     11 C          -3.4855  -19.2873   22.3796 C.ar    1  UNL1        0.1989
     12 N          -4.9782  -19.1434   22.3449 N.ar    1  UNL1       -0.2240
     13 O         -11.7357  -19.1809   21.0859 O.3     1  UNL1       -0.4755
     14 C         -12.3613  -17.8230   21.2075 C.3     1  UNL1        0.2054
     15 C         -12.5754  -17.2144   22.5616 C.3     1  UNL1        0.0473
     16 C         -14.1389  -18.1781   24.3993 C.3     1  UNL1        0.0001
     17 C         -12.7863  -18.0973   23.7559 C.3     1  UNL1        0.0038
@<TRIPOS>BOND
     1    16    17    1
     2    17    15    1
     3    15    14    1
     4    14    13    1
     5    13     1    1
     6     1     2   ar
     7     2     3   ar
     8     3     4   ar
     9     4     7    1
    10     7     8   ar
    11     8     9   ar
    12     9    10   ar
    13    10    11   ar
    14    11    12   ar
    15     4     5   ar
    16     5     6   ar
    17     6     1   ar
    18    12     7   ar
@<TRIPOS>MOLECULE
*****
 17 18 0 0 0
SMALL
GASTEIGER

@<TRIPOS>ATOM
      1 C          -9.8764  -18.2188   23.2684 C.ar    1  UNL1        0.1386
      2 C          -9.5231  -19.6701   23.1304 C.ar    1  UNL1        0.0369
      3 C          -8.1626  -20.0674   22.6393 C.ar    1  UNL1        0.0046
      4 C          -7.1554  -19.0135   22.2862 C.ar    1  UNL1        0.0180
      5 C          -7.5086  -17.5623   22.4242 C.ar    1  UNL1        0.0046
      6 C          -8.8691  -17.1649   22.9152 C.ar    1  UNL1        0.0369
      7 C          -5.7949  -19.4108   21.7951 C.ar    1  UNL1        0.0846
      8 C          -5.6585  -20.2373   20.5508 C.ar    1  UNL1        0.0398
      9 C          -4.2980  -20.6346   20.0597 C.ar    1  UNL1        0.1022
     10 N          -3.0738  -20.2054   20.8129 N.ar    1  UNL1       -0.2224
     11 C          -3.2102  -19.3789   22.0571 C.ar    1  UNL1        0.1989
     12 N          -4.5707  -18.9816   22.5482 N.ar    1  UNL1       -0.2240
     13 O         -11.2369  -17.8215   23.7594 O.3     1  UNL1       -0.4755
     14 C         -12.2111  -17.1694   22.8238 C.3     1  UNL1        0.2054
     15 C         -12.5128  -17.7995   21.4964 C.3     1  UNL1        0.0473
     16 C         -10.7263  -18.4900   19.7408 C.3     1  UNL1        0.0001
     17 C         -11.6710  -17.4677   20.3000 C.3     1  UNL1        0.0038
@<TRIPOS>BOND
     1    16    17    1
     2    17    15    1
     3    15    14    1
     4    14    13    1
     5    13     1    1
     6     1     2   ar
     7     2     3   ar
     8     3     4   ar
     9     4     7    1
    10     7     8   ar
    11     8     9   ar
    12     9    10   ar
    13    10    11   ar
    14    11    12   ar
    15     4     5   ar
    16     5     6   ar
    17     6     1   ar
    18    12     7   ar
@<TRIPOS>MOLECULE
*****
 17 18 0 0 0
SMALL
GASTEIGER

@<TRIPOS>ATOM
      1 C          -4.0192  -19.7855   21.3434 C.ar    1  UNL1        0.1386
      2 C          -4.7222  -18.8788   22.3097 C.ar    1  UNL1        0.0369
      3 C          -6.2115  -18.7154   22.2372 C.ar    1  UNL1        0.0046
      4 C          -6.9979  -19.4587   21.1984 C.ar    1  UNL1        0.0180
      5 C          -6.2949  -20.3653   20.2321 C.ar    1  UNL1        0.0046
      6 C          -4.8056  -20.5287   20.3046 C.ar    1  UNL1        0.0369
      7 C          -8.4872  -19.2953   21.1258 C.ar    1  UNL1        0.0846
      8 C          -9.3304  -19.5578   22.3383 C.ar    1  UNL1        0.0398
      9 C         -10.8197  -19.3944   22.2657 C.ar    1  UNL1        0.1022
     10 N         -11.4658  -18.9685   20.9808 N.ar    1  UNL1       -0.2224
     11 C         -10.6226  -18.7060   19.7684 C.ar    1  UNL1        0.1989
     12 N          -9.1332  -18.8693   19.8409 N.ar    1  UNL1       -0.2240
     13 O          -2.5299  -19.9489   21.4160 O.3     1  UNL1       -0.4755
     14 C          -1.6359  -18.7549   21.2581 C.3     1  UNL1        0.2054
     15 C          -0.8868  -18.5431   19.9759 C.3     1  UNL1        0.0473
     16 C          -2.9740  -17.4629   18.8683 C.3     1  UNL1        0.0001
     17 C          -1.4969  -17.7239   18.8774 C.3     1  UNL1        0.0038
@<TRIPOS>BOND
     1    16    17    1
     2    17    15    1
     3    15    14    1
     4    14    13    1
     5    13     1    1
     6     1     2   ar
     7     2     3   ar
     8     3     4   ar
     9     4     7    1
    10     7     8   ar
    11     8     9   ar
    12     9    10   ar
    13    10    11   ar
    14    11    12   ar
    15     4     5   ar
    16     5     6   ar
    17     6     1   ar
    18    12     7   ar
@<TRIPOS>MOLECULE
*****
 17 18 0 0 0
SMALL
GASTEIGER

@<TRIPOS>ATOM
      1 C          -6.4971  -20.2110   20.5976 C.ar    1  UNL1        0.1386
      2 C          -6.7719  -20.1292   22.0699 C.ar    1  UNL1        0.0369
      3 C          -8.1059  -19.6476   22.5582 C.ar    1  UNL1        0.0046
      4 C          -9.1651  -19.2478   21.5742 C.ar    1  UNL1        0.0180
      5 C          -8.8903  -19.3297   20.1019 C.ar    1  UNL1        0.0046
      6 C          -7.5563  -19.8113   19.6136 C.ar    1  UNL1        0.0369
      7 C         -10.4992  -18.7663   22.0625 C.ar    1  UNL1        0.0846
      8 C         -10.8600  -18.8997   23.5123 C.ar    1  UNL1        0.0398
      9 C         -12.1940  -18.4182   24.0006 C.ar    1  UNL1        0.1022
     10 N         -13.1672  -17.8031   23.0391 N.ar    1  UNL1       -0.2224
     11 C         -12.8064  -17.6696   21.5893 C.ar    1  UNL1        0.1989
     12 N         -11.4724  -18.1512   21.1010 N.ar    1  UNL1       -0.2240
     13 O          -5.1630  -20.6926   20.1093 O.3     1  UNL1       -0.4755
     14 C          -3.9198  -19.9223   20.4422 C.3     1  UNL1        0.2054
     15 C          -3.2495  -19.0890   19.3904 C.3     1  UNL1        0.0473
     16 C          -0.8517  -18.1650   19.7734 C.3     1  UNL1        0.0001
     17 C          -2.3384  -17.9666   19.7906 C.3     1  UNL1        0.0038
@<TRIPOS>BOND
     1    16    17    1
     2    17    15    1
     3    15    14    1
     4    14    13    1
     5    13     1    1
     6     1     2   ar
     7     2     3   ar
     8     3     4   ar
     9     4     7    1
    10     7     8   ar
    11     8     9   ar
    12     9    10   ar
    13    10    11   ar
    14    11    12   ar
    15     4     5   ar
    16     5     6   ar
    17     6     1   ar
    18    12     7   ar
@<TRIPOS>MOLECULE
*****
 17 18 0 0 0
SMALL
GASTEIGER

@<TRIPOS>ATOM
      1 C          -9.0334  -19.2214   21.2698 C.ar    1  UNL1        0.1386
      2 C          -8.4249  -19.5743   19.9450 C.ar    1  UNL1        0.0369
      3 C          -6.9365  -19.5239   19.7661 C.ar    1  UNL1        0.0046
      4 C          -6.0566  -19.1205   20.9120 C.ar    1  UNL1        0.0180
      5 C          -6.6651  -18.7676   22.2367 C.ar    1  UNL1        0.0046
      6 C          -8.1535  -18.8181   22.4157 C.ar    1  UNL1        0.0369
      7 C          -4.5681  -19.0701   20.7330 C.ar    1  UNL1        0.0846
      8 C          -3.6651  -19.5927   21.8106 C.ar    1  UNL1        0.0398
      9 C          -2.1766  -19.5423   21.6317 C.ar    1  UNL1        0.1022
     10 N          -1.5913  -18.9692   20.3752 N.ar    1  UNL1       -0.2224
     11 C          -2.4943  -18.4466   19.2976 C.ar    1  UNL1        0.1989
     12 N          -3.9828  -18.4971   19.4765 N.ar    1  UNL1       -0.2240
     13 O         -10.5219  -19.2719   21.4487 O.3     1  UNL1       -0.4755
     14 C         -11.4170  -18.5337   20.4981 C.3     1  UNL1        0.2054
     15 C         -11.1962  -17.0723   20.2416 C.3     1  UNL1        0.0473
     16 C         -12.3759  -16.4036   22.4577 C.3     1  UNL1        0.0001
     17 C         -11.9041  -16.0486   21.0788 C.3     1  UNL1        0.0038
@<TRIPOS>BOND
     1    16    17    1
     2    17    15    1
     3    15    14    1
     4    14    13    1
     5    13     1    1
     6     1     2   ar
     7     2     3   ar
     8     3     4   ar
     9     4     7    1
    10     7     8   ar
    11     8     9   ar
    12     9    10   ar
    13    10    11   ar
    14    11    12   ar
    15     4     5   ar
    16     5     6   ar
    17     6     1   ar
    18    12     7   ar
@<TRIPOS>MOLECULE
*****
 17 18 0 0 0
SMALL
GASTEIGER

@<TRIPOS>ATOM
      1 C          -9.4654  -17.6908   23.0040 C.ar    1  UNL1        0.1386
      2 C          -8.2371  -16.8659   23.2504 C.ar    1  UNL1        0.0369
      3 C          -6.8922  -17.3782   22.8277 C.ar    1  UNL1        0.0046
      4 C          -6.7756  -18.7155   22.1584 C.ar    1  UNL1        0.0180
      5 C          -8.0039  -19.5405   21.9119 C.ar    1  UNL1        0.0046
      6 C          -9.3488  -19.0281   22.3347 C.ar    1  UNL1        0.0369
      7 C          -5.4307  -19.2279   21.7356 C.ar    1  UNL1        0.0846
      8 C          -4.1985  -18.8008   22.4767 C.ar    1  UNL1        0.0398
      9 C          -2.8536  -19.3132   22.0539 C.ar    1  UNL1        0.1022
     10 N          -2.7410  -20.2527   20.8900 N.ar    1  UNL1       -0.2224
     11 C          -3.9731  -20.6798   20.1489 C.ar    1  UNL1        0.1989
     12 N          -5.3180  -20.1674   20.5717 N.ar    1  UNL1       -0.2240
     13 O         -10.8103  -17.1784   23.4268 O.3     1  UNL1       -0.4755
     14 C         -12.0348  -18.0168   23.2085 C.3     1  UNL1        0.2054
     15 C         -13.3750  -17.5194   23.6628 C.3     1  UNL1        0.0473
     16 C         -14.3676  -18.4652   25.8697 C.3     1  UNL1        0.0001
     17 C         -14.3185  -18.4462   24.3706 C.3     1  UNL1        0.0038
@<TRIPOS>BOND
     1    16    17    1
     2    17    15    1
     3    15    14    1
     4    14    13    1
     5    13     1    1
     6     1     2   ar
     7     2     3   ar
     8     3     4   ar
     9     4     7    1
    10     7     8   ar
    11     8     9   ar
    12     9    10   ar
    13    10    11   ar
    14    11    12   ar
    15     4     5   ar
    16     5     6   ar
    17     6     1   ar
    18    12     7   ar
@<TRIPOS>MOLECULE
*****
 17 18 0 0 0
SMALL
GASTEIGER

@<TRIPOS>ATOM
      1 C          -5.7294  -18.7294   22.3534 C.ar    1  UNL1        0.1386
      2 C          -6.3197  -17.4751   22.9264 C.ar    1  UNL1        0.0369
      3 C          -7.7379  -17.1017   22.6112 C.ar    1  UNL1        0.0046
      4 C          -8.5657  -17.9825   21.7232 C.ar    1  UNL1        0.0180
      5 C          -7.9754  -19.2368   21.1502 C.ar    1  UNL1        0.0046
      6 C          -6.5573  -19.6102   21.4654 C.ar    1  UNL1        0.0369
      7 C          -9.9839  -17.6091   21.4080 C.ar    1  UNL1        0.0846
      8 C         -11.1160  -18.3340   22.0735 C.ar    1  UNL1        0.0398
      9 C         -12.5341  -17.9606   21.7583 C.ar    1  UNL1        0.1022
     10 N         -12.8203  -16.8622   20.7778 N.ar    1  UNL1       -0.2224
     11 C         -11.6882  -16.1372   20.1124 C.ar    1  UNL1        0.1989
     12 N         -10.2701  -16.5106   20.4275 N.ar    1  UNL1       -0.2240
     13 O          -4.3112  -19.1029   22.6685 O.3     1  UNL1       -0.4755
     14 C          -3.2824  -18.0316   22.8782 C.3     1  UNL1        0.2054
     15 C          -2.4231  -17.5827   21.7336 C.3     1  UNL1        0.0473
     16 C          -2.0606  -18.2027   19.2368 C.3     1  UNL1        0.0001
     17 C          -1.9893  -18.5686   20.6897 C.3     1  UNL1        0.0038
@<TRIPOS>BOND
     1    16    17    1
     2    17    15    1
     3    15    14    1
     4    14    13    1
     5    13     1    1
     6     1     2   ar
     7     2     3   ar
     8     3     4   ar
     9     4     7    1
    10     7     8   ar
    11     8     9   ar
    12     9    10   ar
    13    10    11   ar
    14    11    12   ar
    15     4     5   ar
    16     5     6   ar
    17     6     1   ar
    18    12     7   ar
@<TRIPOS>MOLECULE
*****
 17 18 0 0 0
SMALL
GASTEIGER

@<TRIPOS>ATOM
      1 C          -8.8028  -16.9637   23.0774 C.ar    1  UNL1        0.1386
      2 C          -7.6188  -16.3623   23.7747 C.ar    1  UNL1        0.0369
      3 C          -6.2367  -16.8594   23.4702 C.ar    1  UNL1        0.0046
      4 C          -6.0387  -17.9580   22.4682 C.ar    1  UNL1        0.0180
      5 C          -7.2227  -18.5594   21.7709 C.ar    1  UNL1        0.0046
      6 C          -8.6048  -18.0623   22.0755 C.ar    1  UNL1        0.0369
      7 C          -4.6567  -18.4552   22.1637 C.ar    1  UNL1        0.0846
      8 C          -4.4608  -19.5718   21.1815 C.ar    1  UNL1        0.0398
      9 C          -3.0788  -20.0690   20.8769 C.ar    1  UNL1        0.1022
     10 N          -1.8926  -19.4495   21.5545 N.ar    1  UNL1       -0.2224
     11 C          -2.0884  -18.3329   22.5367 C.ar    1  UNL1        0.1989
     12 N          -3.4705  -17.8357   22.8412 N.ar    1  UNL1       -0.2240
     13 O         -10.1848  -16.4665   23.3820 O.3     1  UNL1       -0.4755
     14 C         -11.3732  -17.3401   23.1093 C.3     1  UNL1        0.2054
     15 C         -11.7354  -18.4347   24.0688 C.3     1  UNL1        0.0473
     16 C          -9.8957  -20.1251   24.7817 C.3     1  UNL1        0.0001
     17 C         -11.0927  -19.7843   23.9443 C.3     1  UNL1        0.0038
@<TRIPOS>BOND
     1    16    17    1
     2    17    15    1
     3    15    14    1
     4    14    13    1
     5    13     1    1
     6     1     2   ar
     7     2     3   ar
     8     3     4   ar
     9     4     7    1
    10     7     8   ar
    11     8     9   ar
    12     9    10   ar
    13    10    11   ar
    14    11    12   ar
    15     4     5   ar
    16     5     6   ar
    17     6     1   ar
    18    12     7   ar
@<TRIPOS>MOLECULE
*****
 17 18 0 0 0
SMALL
GASTEIGER

@<TRIPOS>ATOM
      1 C          -5.8953  -17.0466   23.1128 C.ar    1  UNL1        0.1386
      2 C          -6.8084  -16.0299   23.7312 C.ar    1  UNL1        0.0369
      3 C          -8.2951  -16.2188   23.6659 C.ar    1  UNL1        0.0046
      4 C          -8.8686  -17.4244   22.9822 C.ar    1  UNL1        0.0180
      5 C          -7.9554  -18.4411   22.3638 C.ar    1  UNL1        0.0046
      6 C          -6.4688  -18.2522   22.4291 C.ar    1  UNL1        0.0369
      7 C         -10.3552  -17.6134   22.9169 C.ar    1  UNL1        0.0846
      8 C         -11.0971  -17.2935   21.6531 C.ar    1  UNL1        0.0398
      9 C         -12.5837  -17.4825   21.5878 C.ar    1  UNL1        0.1022
     10 N         -13.3284  -17.9913   22.7863 N.ar    1  UNL1       -0.2224
     11 C         -12.5865  -18.3112   24.0501 C.ar    1  UNL1        0.1989
     12 N         -11.0999  -18.1222   24.1154 N.ar    1  UNL1       -0.2240
     13 O          -4.4087  -16.8576   23.1781 O.3     1  UNL1       -0.4755
     14 C          -3.4996  -18.0505   23.1606 C.3     1  UNL1        0.2054
     15 C          -2.7168  -18.3790   21.9239 C.3     1  UNL1        0.0473
     16 C          -3.7067  -20.1089   20.2573 C.3     1  UNL1        0.0001
     17 C          -2.7506  -19.7694   21.3621 C.3     1  UNL1        0.0038
@<TRIPOS>BOND
     1    16    17    1
     2    17    15    1
     3    15    14    1
     4    14    13    1
     5    13     1    1
     6     1     2   ar
     7     2     3   ar
     8     3     4   ar
     9     4     7    1
    10     7     8   ar
    11     8     9   ar
    12     9    10   ar
    13    10    11   ar
    14    11    12   ar
    15     4     5   ar
    16     5     6   ar
    17     6     1   ar
    18    12     7   ar
