@<TRIPOS>MOLECULE
*****
 29 33 0 0 0
SMALL
GASTEIGER

@<TRIPOS>ATOM
      1 C          -8.0416  -16.6659   23.7809 C.ar    1  UNL1        0.1347
      2 C          -9.3636  -16.3411   23.1512 C.ar    1  UNL1        0.0507
      3 C          -9.7545  -16.9844   21.8536 C.ar    1  UNL1        0.0831
      4 N          -8.8233  -17.9524   21.1860 N.ar    1  UNL1       -0.2294
      5 C          -7.5012  -18.2772   21.8158 C.ar    1  UNL1        0.1615
      6 N          -7.1103  -17.6340   23.1133 N.ar    1  UNL1       -0.2122
      7 C          -6.5700  -19.2453   21.1482 C.2     1  UNL1        0.0422
      8 C          -7.1050  -20.2438   20.1649 C.2     1  UNL1        0.0983
      9 N          -6.1739  -21.2118   19.4972 N.2     1  UNL1       -0.2413
     10 C          -4.7077  -21.1815   19.8128 C.2     1  UNL1        0.1141
     11 C          -4.1728  -20.1830   20.7961 C.2     1  UNL1        0.0860
     12 N          -2.7863  -19.9172   21.3029 N.2     1  UNL1       -0.2463
     13 C          -2.8605  -18.7849   22.2839 C.2     1  UNL1        0.0947
     14 C          -4.2929  -18.3508   22.3833 C.2     1  UNL1        0.0047
     15 C          -5.1040  -19.2149   21.4638 C.3     1  UNL1        0.0919
     16 C          -5.3403  -15.3933   24.0704 C.3     1  UNL1        0.0241
     17 C          -6.3000  -15.3864   25.2231 C.3     1  UNL1        0.1038
     18 C          -5.9091  -14.7431   26.5206 C.3     1  UNL1        0.1618
     19 O          -6.8689  -14.7362   27.6733 O.3     1  UNL1       -0.3502
     20 C          -8.2195  -15.3724   27.5287 C.3     1  UNL1        0.1636
     21 C          -8.6105  -16.0157   26.2312 C.3     1  UNL1        0.1242
     22 N          -7.6507  -16.0227   25.0784 N.pl3   1  UNL1       -0.2897
     23 C         -11.0765  -16.6596   21.2238 C.3     1  UNL1        0.1456
     24 C         -12.0767  -16.1318   20.2383 C.3     1  UNL1        0.0297
     25 C         -10.6086  -15.9625   19.9808 C.3     1  UNL1        0.0297
     26 S         -12.0035  -17.2438   22.2482 S.O2    1  UNL1       -0.0065
     27 C         -12.9305  -17.8280   23.2726 C.3     1  UNL1        0.1764
     28 O         -11.5511  -18.6233   21.8709 O.2     1  UNL1       -0.1727
     29 O         -12.4560  -15.8643   22.6255 O.2     1  UNL1       -0.1727
@<TRIPOS>BOND
     1    17    16    1
     2    17    18    1
     3    18    19    1
     4    19    20    1
     5    20    21    1
     6    21    22    1
     7    22     1    1
     8     1     2   ar
     9     2     3   ar
    10     3    23    1
    11    23    26    1
    12    26    27    1
    13    26    28    2
    14    26    29    2
    15    23    24    1
    16    24    25    1
    17     3     4   ar
    18     4     5   ar
    19     5     7    1
    20     7     8    2
    21     8     9    1
    22     9    10    2
    23    10    11    1
    24    11    12    2
    25    12    13    1
    26    13    14    2
    27    14    15    1
    28     5     6   ar
    29    22    17    1
    30     6     1   ar
    31    25    23    1
    32    15     7    1
    33    15    11    1
@<TRIPOS>MOLECULE
*****
 29 33 0 0 0
SMALL
GASTEIGER

@<TRIPOS>ATOM
      1 C          -9.2330  -16.9892   22.2743 C.ar    1  UNL1        0.1347
      2 C          -9.0151  -16.3814   23.6282 C.ar    1  UNL1        0.0507
      3 C          -7.7190  -16.6033   24.3502 C.ar    1  UNL1        0.0831
      4 N          -6.6410  -17.4330   23.7182 N.ar    1  UNL1       -0.2294
      5 C          -6.8590  -18.0409   22.3642 C.ar    1  UNL1        0.1615
      6 N          -8.1550  -17.8189   21.6423 N.ar    1  UNL1       -0.2122
      7 C          -5.7809  -18.8706   21.7323 C.2     1  UNL1        0.0422
      8 C          -6.1415  -19.9548   20.7605 C.2     1  UNL1        0.0983
      9 N          -5.0636  -20.7845   20.1285 N.2     1  UNL1       -0.2413
     10 C          -3.6248  -20.5300   20.4683 C.2     1  UNL1        0.1141
     11 C          -3.2642  -19.4458   21.4401 C.2     1  UNL1        0.0860
     12 N          -1.9431  -18.9672   21.9650 N.2     1  UNL1       -0.2463
     13 C          -2.2047  -17.8416   22.9214 C.2     1  UNL1        0.0947
     14 C          -3.6874  -17.6246   22.9876 C.2     1  UNL1        0.0047
     15 C          -4.3423  -18.6161   22.0721 C.3     1  UNL1        0.0919
     16 C         -11.7364  -18.3317   23.2390 C.3     1  UNL1        0.0241
     17 C         -11.7807  -17.4385   22.0347 C.3     1  UNL1        0.1038
     18 C         -13.0766  -17.2166   21.3128 C.3     1  UNL1        0.1618
     19 O         -13.1209  -16.3234   20.1085 O.3     1  UNL1       -0.3502
     20 C         -11.8693  -15.6521   19.6261 C.3     1  UNL1        0.1636
     21 C         -10.5732  -15.8740   20.3481 C.3     1  UNL1        0.1242
     22 N         -10.5290  -16.7673   21.5524 N.pl3   1  UNL1       -0.2897
     23 C          -7.5011  -15.9955   25.7040 C.3     1  UNL1        0.1456
     24 C          -7.7522  -15.6026   27.1297 C.3     1  UNL1        0.0297
     25 C          -8.7761  -16.4032   26.3809 C.3     1  UNL1        0.0297
     26 S          -6.1504  -15.3767   25.4974 S.O2    1  UNL1       -0.0065
     27 C          -4.7997  -14.7580   25.2907 C.3     1  UNL1        0.1764
     28 O          -6.7104  -14.5208   24.4002 O.2     1  UNL1       -0.1727
     29 O          -5.5904  -16.2326   26.5946 O.2     1  UNL1       -0.1727
@<TRIPOS>BOND
     1    17    16    1
     2    17    18    1
     3    18    19    1
     4    19    20    1
     5    20    21    1
     6    21    22    1
     7    22     1    1
     8     1     2   ar
     9     2     3   ar
    10     3    23    1
    11    23    26    1
    12    26    27    1
    13    26    28    2
    14    26    29    2
    15    23    24    1
    16    24    25    1
    17     3     4   ar
    18     4     5   ar
    19     5     7    1
    20     7     8    2
    21     8     9    1
    22     9    10    2
    23    10    11    1
    24    11    12    2
    25    12    13    1
    26    13    14    2
    27    14    15    1
    28     5     6   ar
    29    22    17    1
    30     6     1   ar
    31    25    23    1
    32    15     7    1
    33    15    11    1
@<TRIPOS>MOLECULE
*****
 29 33 0 0 0
SMALL
GASTEIGER

@<TRIPOS>ATOM
      1 C          -8.6012  -17.0172   22.4142 C.ar    1  UNL1        0.1347
      2 C          -8.7075  -16.4034   23.7787 C.ar    1  UNL1        0.0507
      3 C          -7.5097  -16.3692   24.6810 C.ar    1  UNL1        0.0831
      4 N          -6.2057  -16.9487   24.2188 N.ar    1  UNL1       -0.2294
      5 C          -6.0995  -17.5625   22.8542 C.ar    1  UNL1        0.1615
      6 N          -7.2972  -17.5968   21.9519 N.ar    1  UNL1       -0.2122
      7 C          -4.7954  -18.1421   22.3920 C.2     1  UNL1        0.0422
      8 C          -3.5014  -17.5465   22.8619 C.2     1  UNL1        0.0983
      9 N          -2.1975  -18.1260   22.3997 N.2     1  UNL1       -0.2413
     10 C          -2.1874  -19.3012   21.4676 C.2     1  UNL1        0.1141
     11 C          -3.4813  -19.8968   20.9977 C.2     1  UNL1        0.0860
     12 N          -3.7833  -21.0482   20.0850 N.2     1  UNL1       -0.2463
     13 C          -5.2740  -21.1803   19.9831 C.2     1  UNL1        0.0947
     14 C          -5.8933  -20.1105   20.8328 C.2     1  UNL1        0.0047
     15 C          -4.7854  -19.3173   21.4599 C.3     1  UNL1        0.0919
     16 C         -10.1134  -19.5788   22.0250 C.3     1  UNL1        0.0241
     17 C         -10.5551  -18.3322   21.3173 C.3     1  UNL1        0.1038
     18 C         -11.7528  -18.3664   20.4149 C.3     1  UNL1        0.1618
     19 O         -12.1945  -17.1198   19.7072 O.3     1  UNL1       -0.3502
     20 C         -11.4385  -15.8390   19.9017 C.3     1  UNL1        0.1636
     21 C         -10.2407  -15.8047   20.8041 C.3     1  UNL1        0.1242
     22 N          -9.7990  -17.0514   21.5118 N.pl3   1  UNL1       -0.2897
     23 C          -7.6159  -15.7554   26.0455 C.3     1  UNL1        0.1456
     24 C          -8.2019  -15.3389   27.3621 C.3     1  UNL1        0.0297
     25 C          -9.0342  -16.1104   26.3811 C.3     1  UNL1        0.0297
     26 S          -6.2346  -15.1873   26.1839 S.O2    1  UNL1       -0.0065
     27 C          -4.8533  -14.6192   26.3221 C.3     1  UNL1        0.1764
     28 O          -6.0131  -16.0240   27.4089 O.2     1  UNL1       -0.1727
     29 O          -6.4561  -14.3505   24.9588 O.2     1  UNL1       -0.1727
@<TRIPOS>BOND
     1    17    16    1
     2    17    18    1
     3    18    19    1
     4    19    20    1
     5    20    21    1
     6    21    22    1
     7    22     1    1
     8     1     2   ar
     9     2     3   ar
    10     3    23    1
    11    23    26    1
    12    26    27    1
    13    26    28    2
    14    26    29    2
    15    23    24    1
    16    24    25    1
    17     3     4   ar
    18     4     5   ar
    19     5     7    1
    20     7     8    2
    21     8     9    1
    22     9    10    2
    23    10    11    1
    24    11    12    2
    25    12    13    1
    26    13    14    2
    27    14    15    1
    28     5     6   ar
    29    22    17    1
    30     6     1   ar
    31    25    23    1
    32    15     7    1
    33    15    11    1
@<TRIPOS>MOLECULE
*****
 29 33 0 0 0
SMALL
GASTEIGER

@<TRIPOS>ATOM
      1 C          -7.7832  -17.0288   23.9409 C.ar    1  UNL1        0.1347
      2 C          -9.1860  -17.0509   23.4104 C.ar    1  UNL1        0.0507
      3 C          -9.5081  -17.8373   22.1742 C.ar    1  UNL1        0.0831
      4 N          -8.4274  -18.6016   21.4688 N.ar    1  UNL1       -0.2294
      5 C          -7.0244  -18.5795   21.9993 C.ar    1  UNL1        0.1615
      6 N          -6.7023  -17.7931   23.2354 N.ar    1  UNL1       -0.2122
      7 C          -5.9436  -19.3438   21.2938 C.2     1  UNL1        0.0422
      8 C          -6.3038  -20.3909   20.2820 C.2     1  UNL1        0.0983
      9 N          -5.2231  -21.1552   19.5764 N.2     1  UNL1       -0.2413
     10 C          -3.7821  -20.8724   19.8827 C.2     1  UNL1        0.1141
     11 C          -3.4220  -19.8253   20.8945 C.2     1  UNL1        0.0860
     12 N          -2.0990  -19.3313   21.4002 N.2     1  UNL1       -0.2463
     13 C          -2.3622  -18.2616   22.4183 C.2     1  UNL1        0.0947
     14 C          -3.8478  -18.0945   22.5418 C.2     1  UNL1        0.0047
     15 C          -4.5027  -19.0610   21.6001 C.3     1  UNL1        0.0919
     16 C          -9.3618  -17.4703   26.4534 C.3     1  UNL1        0.0241
     17 C          -8.2504  -16.4632   26.4332 C.3     1  UNL1        0.1038
     18 C          -7.9283  -15.6768   27.6693 C.3     1  UNL1        0.1618
     19 O          -6.8169  -14.6697   27.6491 O.3     1  UNL1       -0.3502
     20 C          -6.0275  -14.4489   26.3929 C.3     1  UNL1        0.1636
     21 C          -6.3496  -15.2353   25.1567 C.3     1  UNL1        0.1242
     22 N          -7.4611  -16.2425   25.1769 N.pl3   1  UNL1       -0.2897
     23 C         -10.9109  -17.8594   21.6437 C.3     1  UNL1        0.1456
     24 C         -12.3258  -18.3036   21.4182 C.3     1  UNL1        0.0297
     25 C         -11.4327  -19.0825   22.3378 C.3     1  UNL1        0.0297
     26 S         -10.8763  -16.6439   20.7654 S.O2    1  UNL1       -0.0065
     27 C         -10.8417  -15.4286   19.8870 C.3     1  UNL1        0.1764
     28 O         -11.4426  -15.8198   21.8835 O.2     1  UNL1       -0.1727
     29 O         -10.3101  -17.4681   19.6472 O.2     1  UNL1       -0.1727
@<TRIPOS>BOND
     1    17    16    1
     2    17    18    1
     3    18    19    1
     4    19    20    1
     5    20    21    1
     6    21    22    1
     7    22     1    1
     8     1     2   ar
     9     2     3   ar
    10     3    23    1
    11    23    26    1
    12    26    27    1
    13    26    28    2
    14    26    29    2
    15    23    24    1
    16    24    25    1
    17     3     4   ar
    18     4     5   ar
    19     5     7    1
    20     7     8    2
    21     8     9    1
    22     9    10    2
    23    10    11    1
    24    11    12    2
    25    12    13    1
    26    13    14    2
    27    14    15    1
    28     5     6   ar
    29    22    17    1
    30     6     1   ar
    31    25    23    1
    32    15     7    1
    33    15    11    1
@<TRIPOS>MOLECULE
*****
 29 33 0 0 0
SMALL
GASTEIGER

@<TRIPOS>ATOM
      1 C          -6.1118  -17.9194   22.5419 C.ar    1  UNL1        0.1347
      2 C          -5.7206  -17.1395   23.7620 C.ar    1  UNL1        0.0507
      3 C          -6.7224  -16.2496   24.4362 C.ar    1  UNL1        0.0831
      4 N          -8.1151  -16.1396   23.8904 N.ar    1  UNL1       -0.2294
      5 C          -8.5063  -16.9196   22.6702 C.ar    1  UNL1        0.1615
      6 N          -7.5046  -17.8095   21.9960 N.ar    1  UNL1       -0.2122
      7 C          -9.8991  -16.8096   22.1244 C.2     1  UNL1        0.0422
      8 C         -10.1456  -16.0742   20.8405 C.2     1  UNL1        0.0983
      9 N         -11.5383  -15.9641   20.2947 N.2     1  UNL1       -0.2413
     10 C         -12.6848  -16.5896   21.0327 C.2     1  UNL1        0.1141
     11 C         -12.4383  -17.3250   22.3166 C.2     1  UNL1        0.0860
     12 N         -13.3628  -18.0383   23.2581 N.2     1  UNL1       -0.2463
     13 C         -12.5414  -18.5891   24.3859 C.2     1  UNL1        0.0947
     14 C         -11.1092  -18.2163   24.1413 C.2     1  UNL1        0.0047
     15 C         -11.0454  -17.4350   22.8624 C.3     1  UNL1        0.0919
     16 C          -6.9844  -19.7635   20.3424 C.3     1  UNL1        0.0241
     17 C          -5.5464  -19.7314   20.7679 C.3     1  UNL1        0.1038
     18 C          -4.5447  -20.6213   20.0936 C.3     1  UNL1        0.1618
     19 O          -3.1067  -20.5892   20.5191 O.3     1  UNL1       -0.3502
     20 C          -2.6703  -19.6673   21.6188 C.3     1  UNL1        0.1636
     21 C          -3.6720  -18.7773   22.2931 C.3     1  UNL1        0.1242
     22 N          -5.1101  -18.8094   21.8676 N.pl3   1  UNL1       -0.2897
     23 C          -6.3312  -15.4696   25.6564 C.3     1  UNL1        0.1456
     24 C          -5.5594  -14.5458   26.5513 C.3     1  UNL1        0.0297
     25 C          -5.0993  -14.7844   25.1436 C.3     1  UNL1        0.0297
     26 S          -7.4273  -15.8841   26.5928 S.O2    1  UNL1       -0.0065
     27 C          -8.5232  -16.2985   27.5293 C.3     1  UNL1        0.1764
     28 O          -8.3922  -15.0068   25.8517 O.2     1  UNL1       -0.1727
     29 O          -6.4623  -16.7614   27.3339 O.2     1  UNL1       -0.1727
@<TRIPOS>BOND
     1    17    16    1
     2    17    18    1
     3    18    19    1
     4    19    20    1
     5    20    21    1
     6    21    22    1
     7    22     1    1
     8     1     2   ar
     9     2     3   ar
    10     3    23    1
    11    23    26    1
    12    26    27    1
    13    26    28    2
    14    26    29    2
    15    23    24    1
    16    24    25    1
    17     3     4   ar
    18     4     5   ar
    19     5     7    1
    20     7     8    2
    21     8     9    1
    22     9    10    2
    23    10    11    1
    24    11    12    2
    25    12    13    1
    26    13    14    2
    27    14    15    1
    28     5     6   ar
    29    22    17    1
    30     6     1   ar
    31    25    23    1
    32    15     7    1
    33    15    11    1
@<TRIPOS>MOLECULE
*****
 29 33 0 0 0
SMALL
GASTEIGER

@<TRIPOS>ATOM
      1 C          -6.5059  -18.3119   22.4850 C.ar    1  UNL1        0.1347
      2 C          -5.9116  -17.3642   23.4843 C.ar    1  UNL1        0.0507
      3 C          -6.8065  -16.5032   24.3257 C.ar    1  UNL1        0.0831
      4 N          -8.2955  -16.5900   24.1679 N.ar    1  UNL1       -0.2294
      5 C          -8.8899  -17.5378   23.1686 C.ar    1  UNL1        0.1615
      6 N          -7.9951  -18.3987   22.3271 N.ar    1  UNL1       -0.2122
      7 C         -10.3791  -17.6246   23.0108 C.2     1  UNL1        0.0422
      8 C         -11.2051  -18.3140   24.0559 C.2     1  UNL1        0.0983
      9 N         -12.6942  -18.4008   23.8981 N.2     1  UNL1       -0.2413
     10 C         -13.3574  -17.7981   22.6952 C.2     1  UNL1        0.1141
     11 C         -12.5313  -17.1087   21.6501 C.2     1  UNL1        0.0860
     12 N         -12.9021  -16.4260   20.3669 N.2     1  UNL1       -0.2463
     13 C         -11.6421  -15.9173   19.7317 C.2     1  UNL1        0.0947
     14 C         -10.4926  -16.2856   20.6222 C.2     1  UNL1        0.0047
     15 C         -11.0422  -17.0219   21.8079 C.3     1  UNL1        0.0919
     16 C          -3.5259  -18.0676   22.7300 C.3     1  UNL1        0.0241
     17 C          -4.1211  -19.0507   21.7661 C.3     1  UNL1        0.1038
     18 C          -3.2263  -19.9116   20.9246 C.3     1  UNL1        0.1618
     19 O          -3.8215  -20.8947   19.9606 O.3     1  UNL1       -0.3502
     20 C          -5.3114  -21.0170   19.8381 C.3     1  UNL1        0.1636
     21 C          -6.2063  -20.1560   20.6795 C.3     1  UNL1        0.1242
     22 N          -5.6111  -19.1728   21.6436 N.pl3   1  UNL1       -0.2897
     23 C          -6.2121  -15.5554   25.3250 C.3     1  UNL1        0.1456
     24 C          -5.2383  -14.6125   25.9674 C.3     1  UNL1        0.0297
     25 C          -4.9132  -15.2402   24.6443 C.3     1  UNL1        0.0297
     26 S          -7.3047  -15.5416   26.3527 S.O2    1  UNL1       -0.0065
     27 C          -8.3973  -15.5278   27.3802 C.3     1  UNL1        0.1764
     28 O          -6.4326  -16.3228   27.2903 O.2     1  UNL1       -0.1727
     29 O          -8.1768  -14.7605   25.4150 O.2     1  UNL1       -0.1727
@<TRIPOS>BOND
     1    17    16    1
     2    17    18    1
     3    18    19    1
     4    19    20    1
     5    20    21    1
     6    21    22    1
     7    22     1    1
     8     1     2   ar
     9     2     3   ar
    10     3    23    1
    11    23    26    1
    12    26    27    1
    13    26    28    2
    14    26    29    2
    15    23    24    1
    16    24    25    1
    17     3     4   ar
    18     4     5   ar
    19     5     7    1
    20     7     8    2
    21     8     9    1
    22     9    10    2
    23    10    11    1
    24    11    12    2
    25    12    13    1
    26    13    14    2
    27    14    15    1
    28     5     6   ar
    29    22    17    1
    30     6     1   ar
    31    25    23    1
    32    15     7    1
    33    15    11    1
@<TRIPOS>MOLECULE
*****
 29 33 0 0 0
SMALL
GASTEIGER

@<TRIPOS>ATOM
      1 C          -4.8928  -17.8955   22.2091 C.ar    1  UNL1        0.1347
      2 C          -4.9443  -17.0644   23.4567 C.ar    1  UNL1        0.0507
      3 C          -6.2676  -16.6338   24.0169 C.ar    1  UNL1        0.0831
      4 N          -7.5391  -17.0344   23.3296 N.ar    1  UNL1       -0.2294
      5 C          -7.4876  -17.8656   22.0819 C.ar    1  UNL1        0.1615
      6 N          -6.1644  -18.2962   21.5217 N.ar    1  UNL1       -0.2122
      7 C          -8.7592  -18.2662   21.3945 C.2     1  UNL1        0.0422
      8 C          -8.7601  -19.4133   20.4279 C.2     1  UNL1        0.0983
      9 N         -10.0316  -19.8139   19.7406 N.2     1  UNL1       -0.2413
     10 C         -11.3025  -19.0674   20.0198 C.2     1  UNL1        0.1141
     11 C         -11.3016  -17.9204   20.9864 C.2     1  UNL1        0.0860
     12 N         -12.3919  -17.0045   21.4580 N.2     1  UNL1       -0.2463
     13 C         -11.7941  -16.0379   22.4369 C.2     1  UNL1        0.0947
     14 C         -10.3343  -16.3563   22.5702 C.2     1  UNL1        0.0047
     15 C         -10.0300  -17.5198   21.6738 C.3     1  UNL1        0.0919
     16 C          -2.6311  -15.9331   22.0263 C.3     1  UNL1        0.0241
     17 C          -2.4388  -17.3449   21.5575 C.3     1  UNL1        0.1038
     18 C          -1.1156  -17.7754   20.9972 C.3     1  UNL1        0.1618
     19 O          -0.9233  -19.1872   20.5284 O.3     1  UNL1       -0.3502
     20 C          -2.0541  -20.1685   20.6198 C.3     1  UNL1        0.1636
     21 C          -3.3773  -19.7380   21.1800 C.3     1  UNL1        0.1242
     22 N          -3.5697  -18.3261   21.6489 N.pl3   1  UNL1       -0.2897
     23 C          -6.3191  -15.8027   25.2645 C.3     1  UNL1        0.1456
     24 C          -5.8634  -15.0902   26.5034 C.3     1  UNL1        0.0297
     25 C          -4.8766  -15.8559   25.6727 C.3     1  UNL1        0.0297
     26 S          -7.7794  -15.4608   25.2896 S.O2    1  UNL1       -0.0065
     27 C          -9.2396  -15.1190   25.3146 C.3     1  UNL1        0.1764
     28 O          -7.9894  -16.4396   26.4066 O.2     1  UNL1       -0.1727
     29 O          -7.5694  -14.4820   24.1725 O.2     1  UNL1       -0.1727
@<TRIPOS>BOND
     1    17    16    1
     2    17    18    1
     3    18    19    1
     4    19    20    1
     5    20    21    1
     6    21    22    1
     7    22     1    1
     8     1     2   ar
     9     2     3   ar
    10     3    23    1
    11    23    26    1
    12    26    27    1
    13    26    28    2
    14    26    29    2
    15    23    24    1
    16    24    25    1
    17     3     4   ar
    18     4     5   ar
    19     5     7    1
    20     7     8    2
    21     8     9    1
    22     9    10    2
    23    10    11    1
    24    11    12    2
    25    12    13    1
    26    13    14    2
    27    14    15    1
    28     5     6   ar
    29    22    17    1
    30     6     1   ar
    31    25    23    1
    32    15     7    1
    33    15    11    1
@<TRIPOS>MOLECULE
*****
 29 33 0 0 0
SMALL
GASTEIGER

@<TRIPOS>ATOM
      1 C         -14.7521   -6.4909   18.5668 C.ar    1  UNL1        0.1347
      2 C         -13.3010   -6.8511   18.4458 C.ar    1  UNL1        0.0507
      3 C         -12.2555   -5.7762   18.4875 C.ar    1  UNL1        0.0831
      4 N         -12.6611   -4.3413   18.6503 N.ar    1  UNL1       -0.2294
      5 C         -14.1123   -3.9812   18.7713 C.ar    1  UNL1        0.1615
      6 N         -15.1578   -5.0560   18.7295 N.ar    1  UNL1       -0.2122
      7 C         -14.5179   -2.5462   18.9340 C.2     1  UNL1        0.0422
      8 C         -15.7773   -2.2020   19.6725 C.2     1  UNL1        0.0983
      9 N         -16.1829   -0.7671   19.8353 N.2     1  UNL1       -0.2413
     10 C         -15.3290    0.3236   19.2595 C.2     1  UNL1        0.1141
     11 C         -14.0696   -0.0207   18.5211 C.2     1  UNL1        0.0860
     12 N         -13.0346    0.8326   17.8498 N.2     1  UNL1       -0.2463
     13 C         -11.9894   -0.0750   17.2721 C.2     1  UNL1        0.0947
     14 C         -12.3784   -1.4892   17.5864 C.2     1  UNL1        0.0047
     15 C         -13.6641   -1.4556   18.3583 C.3     1  UNL1        0.0919
     16 C         -16.1382   -7.1358   15.9855 C.3     1  UNL1        0.0241
     17 C         -16.4907   -7.8881   17.2344 C.3     1  UNL1        0.1038
     18 C         -17.5362   -8.9629   17.1926 C.3     1  UNL1        0.1618
     19 O         -17.8886   -9.7153   18.4415 O.3     1  UNL1       -0.3502
     20 C         -17.1957   -9.3929   19.7321 C.3     1  UNL1        0.1636
     21 C         -16.1501   -8.3181   19.7740 C.3     1  UNL1        0.1242
     22 N         -15.7976   -7.5657   18.5250 N.pl3   1  UNL1       -0.2897
     23 C         -10.8045   -6.1363   18.3666 C.3     1  UNL1        0.1456
     24 C          -9.5350   -6.9281   18.4737 C.3     1  UNL1        0.0297
     25 C         -10.8235   -7.5044   18.9815 C.3     1  UNL1        0.0297
     26 S         -10.2816   -4.8933   17.7096 S.O2    1  UNL1       -0.0065
     27 C          -9.7587   -3.6504   17.0526 C.3     1  UNL1        0.1764
     28 O          -9.6696   -4.4635   19.0099 O.2     1  UNL1       -0.1727
     29 O         -10.8935   -5.3232   16.4093 O.2     1  UNL1       -0.1727
@<TRIPOS>BOND
     1    17    16    1
     2    17    18    1
     3    18    19    1
     4    19    20    1
     5    20    21    1
     6    21    22    1
     7    22     1    1
     8     1     2   ar
     9     2     3   ar
    10     3    23    1
    11    23    26    1
    12    26    27    1
    13    26    28    2
    14    26    29    2
    15    23    24    1
    16    24    25    1
    17     3     4   ar
    18     4     5   ar
    19     5     7    1
    20     7     8    2
    21     8     9    1
    22     9    10    2
    23    10    11    1
    24    11    12    2
    25    12    13    1
    26    13    14    2
    27    14    15    1
    28     5     6   ar
    29    22    17    1
    30     6     1   ar
    31    25    23    1
    32    15     7    1
    33    15    11    1
@<TRIPOS>MOLECULE
*****
 29 33 0 0 0
SMALL
GASTEIGER

@<TRIPOS>ATOM
      1 C          -8.2517  -16.6880   23.6772 C.ar    1  UNL1        0.1347
      2 C          -9.5820  -16.2911   23.1090 C.ar    1  UNL1        0.0507
      3 C         -10.0748  -16.9236   21.8411 C.ar    1  UNL1        0.0831
      4 N          -9.2373  -17.9527   21.1416 N.ar    1  UNL1       -0.2294
      5 C          -7.9070  -18.3496   21.7099 C.ar    1  UNL1        0.1615
      6 N          -7.4142  -17.7172   22.9777 N.ar    1  UNL1       -0.2122
      7 C          -7.0695  -19.3788   21.0103 C.2     1  UNL1        0.0422
      8 C          -5.6571  -19.6230   21.4523 C.2     1  UNL1        0.0983
      9 N          -4.8197  -20.6522   20.7528 N.2     1  UNL1       -0.2413
     10 C          -5.3946  -21.4373   19.6112 C.2     1  UNL1        0.1141
     11 C          -6.8071  -21.1931   19.1692 C.2     1  UNL1        0.0860
     12 N          -7.6395  -21.8081   18.0835 N.2     1  UNL1       -0.2463
     13 C          -8.9915  -21.1589   18.1121 C.2     1  UNL1        0.0947
     14 C          -8.9946  -20.1427   19.2154 C.2     1  UNL1        0.0047
     15 C          -7.6445  -20.1638   19.8688 C.3     1  UNL1        0.0919
     16 C          -5.4371  -15.6638   23.8470 C.3     1  UNL1        0.0241
     17 C          -6.3516  -15.5435   25.0299 C.3     1  UNL1        0.1038
     18 C          -5.8588  -14.9112   26.2976 C.3     1  UNL1        0.1618
     19 O          -6.7733  -14.7909   27.4805 O.3     1  UNL1       -0.3502
     20 C          -8.1806  -15.3029   27.3957 C.3     1  UNL1        0.1636
     21 C          -8.6735  -15.9353   26.1279 C.3     1  UNL1        0.1242
     22 N          -7.7589  -16.0556   24.9449 N.pl3   1  UNL1       -0.2897
     23 C         -11.4050  -16.5267   21.2729 C.3     1  UNL1        0.1456
     24 C         -12.4190  -15.9322   20.3410 C.3     1  UNL1        0.0297
     25 C         -10.9562  -15.8197   20.0284 C.3     1  UNL1        0.0297
     26 S         -12.3158  -17.0958   22.3202 S.O2    1  UNL1       -0.0065
     27 C         -13.2265  -17.6649   23.3673 C.3     1  UNL1        0.1764
     28 O         -11.9820  -18.4828   21.8567 O.2     1  UNL1       -0.1727
     29 O         -12.6496  -15.7088   22.7837 O.2     1  UNL1       -0.1727
@<TRIPOS>BOND
     1    17    16    1
     2    17    18    1
     3    18    19    1
     4    19    20    1
     5    20    21    1
     6    21    22    1
     7    22     1    1
     8     1     2   ar
     9     2     3   ar
    10     3    23    1
    11    23    26    1
    12    26    27    1
    13    26    28    2
    14    26    29    2
    15    23    24    1
    16    24    25    1
    17     3     4   ar
    18     4     5   ar
    19     5     7    1
    20     7     8    2
    21     8     9    1
    22     9    10    2
    23    10    11    1
    24    11    12    2
    25    12    13    1
    26    13    14    2
    27    14    15    1
    28     5     6   ar
    29    22    17    1
    30     6     1   ar
    31    25    23    1
    32    15     7    1
    33    15    11    1
