@<TRIPOS>MOLECULE
*****
 24 26 0 0 0
SMALL
GASTEIGER

@<TRIPOS>ATOM
      1 C          -8.6284  -17.0944   23.8529 C.2     1  UNL1       -0.0246
      2 C          -9.7025  -17.9671   24.4314 C.2     1  UNL1       -0.0421
      3 C          -9.6798  -17.8033   25.9223 C.3     1  UNL1        0.0480
      4 C          -8.5916  -16.8295   26.2651 C.ar    1  UNL1       -0.0184
      5 C          -8.1085  -16.2851   27.5767 C.ar    1  UNL1       -0.0040
      6 C          -6.9756  -15.3025   27.6092 C.ar    1  UNL1       -0.0003
      7 C          -6.3258  -14.8644   26.3302 C.ar    1  UNL1       -0.0000
      8 C          -6.8089  -15.4088   25.0187 C.ar    1  UNL1       -0.0006
      9 C          -7.9418  -16.3913   24.9861 C.ar    1  UNL1       -0.0079
     10 C          -8.5889  -15.6613   21.6861 C.3     1  UNL1        0.0111
     11 C          -8.2987  -16.9501   22.3967 C.3     1  UNL1        0.0634
     12 C          -7.6788  -18.0945   21.6510 C.ar    1  UNL1        0.0818
     13 C          -6.4086  -18.7158   22.1517 C.ar    1  UNL1        0.1139
     14 N          -5.7888  -19.8602   21.4059 N.ar    1  UNL1       -0.2394
     15 C          -6.4391  -20.3834   20.1596 C.ar    1  UNL1        0.1195
     16 C          -7.7093  -19.7621   19.6589 C.ar    1  UNL1        0.1191
     17 N          -8.3291  -18.6177   20.4046 N.ar    1  UNL1       -0.2446
     18 C         -10.6356  -18.8487   23.6554 C.3     1  UNL1        0.0394
     19 C         -11.9591  -18.3162   23.1921 C.3     1  UNL1        0.0774
     20 N         -12.0097  -17.1820   22.2118 N.3     1  UNL1       -0.2583
     21 C         -12.2439  -15.7818   22.6962 C.3     1  UNL1        0.0905
     22 C         -11.8262  -17.4481   20.7470 C.3     1  UNL1        0.1795
     23 C         -11.4527  -16.3276   19.8223 C.1     1  UNL1        0.0912
     24 N         -11.0793  -15.2072   18.8975 N.1     1  UNL1       -0.1944
@<TRIPOS>BOND
     1    11    10    1
     2    11     1    1
     3     1     2    2
     4     2    18    1
     5    18    19    1
     6    19    20    1
     7    20    21    1
     8    20    22    1
     9    22    23    1
    10    23    24    3
    11     2     3    1
    12     3     4    1
    13     4     5   ar
    14     5     6   ar
    15     6     7   ar
    16     7     8   ar
    17     8     9   ar
    18    11    12    1
    19    12    13   ar
    20    13    14   ar
    21    14    15   ar
    22    15    16   ar
    23    16    17   ar
    24     9     1    1
    25    17    12   ar
    26     9     4   ar
@<TRIPOS>MOLECULE
*****
 24 26 0 0 0
SMALL
GASTEIGER

@<TRIPOS>ATOM
      1 C          -6.3240  -18.7815   21.4729 C.2     1  UNL1       -0.0246
      2 C          -7.7803  -18.6639   21.1335 C.2     1  UNL1       -0.0421
      3 C          -8.3769  -17.6046   22.0121 C.3     1  UNL1        0.0480
      4 C          -7.2893  -17.0676   22.8945 C.ar    1  UNL1       -0.0184
      5 C          -7.2904  -16.0102   23.9584 C.ar    1  UNL1       -0.0040
      6 C          -6.0226  -15.6802   24.6891 C.ar    1  UNL1       -0.0003
      7 C          -4.7538  -16.4076   24.3558 C.ar    1  UNL1       -0.0000
      8 C          -4.7527  -17.4650   23.2919 C.ar    1  UNL1       -0.0006
      9 C          -6.0205  -17.7949   22.5613 C.ar    1  UNL1       -0.0079
     10 C          -5.7273  -21.1489   20.5842 C.3     1  UNL1        0.0111
     11 C          -5.3432  -19.7208   20.8358 C.3     1  UNL1        0.0634
     12 C          -3.9786  -19.2322   20.4502 C.ar    1  UNL1        0.0818
     13 C          -2.7634  -19.7822   21.1363 C.ar    1  UNL1        0.1139
     14 N          -1.3987  -19.2935   20.7507 N.ar    1  UNL1       -0.2394
     15 C          -1.2491  -18.2548   19.6790 C.ar    1  UNL1        0.1195
     16 C          -2.4642  -17.7047   18.9928 C.ar    1  UNL1        0.1191
     17 N          -3.8289  -18.1934   19.3784 N.ar    1  UNL1       -0.2446
     18 C          -8.5117  -19.4649   20.0974 C.3     1  UNL1        0.0394
     19 C          -9.8821  -19.0456   19.6547 C.3     1  UNL1        0.0774
     20 N         -10.9897  -18.9228   20.6587 N.3     1  UNL1       -0.2583
     21 C         -11.2395  -20.0303   21.6392 C.3     1  UNL1        0.0905
     22 C         -11.8476  -17.6926   20.6824 C.3     1  UNL1        0.1795
     23 C         -11.4408  -16.4794   19.8997 C.1     1  UNL1        0.0912
     24 N         -11.0340  -15.2661   19.1170 N.1     1  UNL1       -0.1944
@<TRIPOS>BOND
     1    11    10    1
     2    11     1    1
     3     1     2    2
     4     2    18    1
     5    18    19    1
     6    19    20    1
     7    20    21    1
     8    20    22    1
     9    22    23    1
    10    23    24    3
    11     2     3    1
    12     3     4    1
    13     4     5   ar
    14     5     6   ar
    15     6     7   ar
    16     7     8   ar
    17     8     9   ar
    18    11    12    1
    19    12    13   ar
    20    13    14   ar
    21    14    15   ar
    22    15    16   ar
    23    16    17   ar
    24     9     1    1
    25    17    12   ar
    26     9     4   ar
@<TRIPOS>MOLECULE
*****
 24 26 0 0 0
SMALL
GASTEIGER

@<TRIPOS>ATOM
      1 C          -8.6204  -17.0633   22.5321 C.2     1  UNL1       -0.0246
      2 C          -8.0001  -18.3842   22.1852 C.2     1  UNL1       -0.0421
      3 C          -9.0999  -19.3208   21.7811 C.3     1  UNL1        0.0480
      4 C         -10.3998  -18.5788   21.8783 C.ar    1  UNL1       -0.0184
      5 C         -11.8151  -18.9933   21.6041 C.ar    1  UNL1       -0.0040
      6 C         -12.9340  -18.0125   21.7941 C.ar    1  UNL1       -0.0003
      7 C         -12.6376  -16.6172   22.2582 C.ar    1  UNL1       -0.0000
      8 C         -11.2224  -16.2027   22.5324 C.ar    1  UNL1       -0.0006
      9 C         -10.1035  -17.1835   22.3425 C.ar    1  UNL1       -0.0079
     10 C          -7.5485  -14.7559   22.0055 C.3     1  UNL1        0.0111
     11 C          -7.8864  -15.8373   22.9886 C.3     1  UNL1        0.0634
     12 C          -7.4905  -15.6927   24.4281 C.ar    1  UNL1        0.0818
     13 C          -6.0480  -15.5043   24.7939 C.ar    1  UNL1        0.1139
     14 N          -5.6521  -15.3596   26.2334 N.ar    1  UNL1       -0.2394
     15 C          -6.6985  -15.4033   27.3072 C.ar    1  UNL1        0.1195
     16 C          -8.1410  -15.5918   26.9415 C.ar    1  UNL1        0.1191
     17 N          -8.5369  -15.7364   25.5019 N.ar    1  UNL1       -0.2446
     18 C          -6.5370  -18.7112   22.2338 C.3     1  UNL1        0.0394
     19 C          -5.8239  -19.1462   20.9880 C.3     1  UNL1        0.0774
     20 N          -4.3630  -18.8513   20.8182 N.3     1  UNL1       -0.2583
     21 C          -3.5009  -18.6136   22.0226 C.3     1  UNL1        0.0905
     22 C          -3.7641  -18.7941   19.4442 C.3     1  UNL1        0.1795
     23 C          -2.3051  -18.4904   19.2739 C.1     1  UNL1        0.0912
     24 N          -0.8461  -18.1867   19.1037 N.1     1  UNL1       -0.1944
@<TRIPOS>BOND
     1    11    10    1
     2    11     1    1
     3     1     2    2
     4     2    18    1
     5    18    19    1
     6    19    20    1
     7    20    21    1
     8    20    22    1
     9    22    23    1
    10    23    24    3
    11     2     3    1
    12     3     4    1
    13     4     5   ar
    14     5     6   ar
    15     6     7   ar
    16     7     8   ar
    17     8     9   ar
    18    11    12    1
    19    12    13   ar
    20    13    14   ar
    21    14    15   ar
    22    15    16   ar
    23    16    17   ar
    24     9     1    1
    25    17    12   ar
    26     9     4   ar
@<TRIPOS>MOLECULE
*****
 24 26 0 0 0
SMALL
GASTEIGER

@<TRIPOS>ATOM
      1 C          -8.3387  -17.2513   23.8843 C.2     1  UNL1       -0.0246
      2 C          -7.1521  -17.3031   22.9682 C.2     1  UNL1       -0.0421
      3 C          -6.0358  -16.5354   23.6119 C.3     1  UNL1        0.0480
      4 C          -6.5325  -16.0091   24.9258 C.ar    1  UNL1       -0.0184
      5 C          -5.8726  -15.1842   25.9907 C.ar    1  UNL1       -0.0040
      6 C          -6.6361  -14.8017   27.2239 C.ar    1  UNL1       -0.0003
      7 C          -8.0594  -15.2442   27.3922 C.ar    1  UNL1       -0.0000
      8 C          -8.7193  -16.0692   26.3273 C.ar    1  UNL1       -0.0006
      9 C          -7.9558  -16.4516   25.0941 C.ar    1  UNL1       -0.0079
     10 C         -10.1324  -19.0302   24.4913 C.3     1  UNL1        0.0111
     11 C          -9.6739  -17.8876   23.6344 C.3     1  UNL1        0.0634
     12 C         -10.5506  -17.3814   22.5276 C.ar    1  UNL1        0.0818
     13 C         -11.8548  -18.0614   22.2331 C.ar    1  UNL1        0.1139
     14 N         -12.7315  -17.5551   21.1263 N.ar    1  UNL1       -0.2394
     15 C         -12.3041  -16.3688   20.3140 C.ar    1  UNL1        0.1195
     16 C         -11.0000  -15.6887   20.6084 C.ar    1  UNL1        0.1191
     17 N         -10.1233  -16.1950   21.7152 N.ar    1  UNL1       -0.2446
     18 C          -7.0923  -18.0002   21.6413 C.3     1  UNL1        0.0394
     19 C          -6.1994  -19.1917   21.4597 C.3     1  UNL1        0.0774
     20 N          -4.7543  -18.9991   21.1067 N.3     1  UNL1       -0.2583
     21 C          -3.7191  -18.9380   22.1907 C.3     1  UNL1        0.0905
     22 C          -4.3443  -18.8676   19.6699 C.3     1  UNL1        0.1795
     23 C          -2.9116  -18.5927   19.3209 C.1     1  UNL1        0.0912
     24 N          -1.4789  -18.3177   18.9719 N.1     1  UNL1       -0.1944
@<TRIPOS>BOND
     1    11    10    1
     2    11     1    1
     3     1     2    2
     4     2    18    1
     5    18    19    1
     6    19    20    1
     7    20    21    1
     8    20    22    1
     9    22    23    1
    10    23    24    3
    11     2     3    1
    12     3     4    1
    13     4     5   ar
    14     5     6   ar
    15     6     7   ar
    16     7     8   ar
    17     8     9   ar
    18    11    12    1
    19    12    13   ar
    20    13    14   ar
    21    14    15   ar
    22    15    16   ar
    23    16    17   ar
    24     9     1    1
    25    17    12   ar
    26     9     4   ar
@<TRIPOS>MOLECULE
*****
 24 26 0 0 0
SMALL
GASTEIGER

@<TRIPOS>ATOM
      1 C          -6.7911  -17.8226   22.7276 C.2     1  UNL1       -0.0246
      2 C          -7.5417  -19.0720   22.3735 C.2     1  UNL1       -0.0421
      3 C          -6.5432  -20.1087   21.9512 C.3     1  UNL1        0.0480
      4 C          -5.1755  -19.4999   22.0442 C.ar    1  UNL1       -0.0184
      5 C          -3.8104  -20.0496   21.7540 C.ar    1  UNL1       -0.0040
      6 C          -2.5984  -19.1864   21.9436 C.ar    1  UNL1       -0.0003
      7 C          -2.7516  -17.7735   22.4234 C.ar    1  UNL1       -0.0000
      8 C          -4.1167  -17.2238   22.7136 C.ar    1  UNL1       -0.0006
      9 C          -5.3286  -18.0870   22.5240 C.ar    1  UNL1       -0.0079
     10 C          -8.1295  -15.6504   22.2370 C.3     1  UNL1        0.0111
     11 C          -7.3965  -16.5347   23.2018 C.3     1  UNL1        0.0634
     12 C          -7.2690  -16.1312   24.6408 C.ar    1  UNL1        0.0818
     13 C          -6.0248  -15.4437   25.1196 C.ar    1  UNL1        0.1139
     14 N          -5.8974  -15.0401   26.5587 N.ar    1  UNL1       -0.2394
     15 C          -7.0141  -15.3240   27.5190 C.ar    1  UNL1        0.1195
     16 C          -8.2584  -16.0115   27.0402 C.ar    1  UNL1        0.1191
     17 N          -8.3858  -16.4150   25.6012 N.ar    1  UNL1       -0.2446
     18 C          -9.0296  -19.2531   22.4316 C.3     1  UNL1        0.0394
     19 C          -9.8990  -18.6668   21.3590 C.3     1  UNL1        0.0774
     20 N         -11.0204  -17.7404   21.7254 N.3     1  UNL1       -0.2583
     21 C         -11.2834  -17.4140   23.1657 C.3     1  UNL1        0.0905
     22 C         -11.8789  -17.1405   20.6516 C.3     1  UNL1        0.1795
     23 C         -11.3283  -16.0621   19.7663 C.1     1  UNL1        0.0912
     24 N         -10.7778  -14.9836   18.8810 N.1     1  UNL1       -0.1944
@<TRIPOS>BOND
     1    11    10    1
     2    11     1    1
     3     1     2    2
     4     2    18    1
     5    18    19    1
     6    19    20    1
     7    20    21    1
     8    20    22    1
     9    22    23    1
    10    23    24    3
    11     2     3    1
    12     3     4    1
    13     4     5   ar
    14     5     6   ar
    15     6     7   ar
    16     7     8   ar
    17     8     9   ar
    18    11    12    1
    19    12    13   ar
    20    13    14   ar
    21    14    15   ar
    22    15    16   ar
    23    16    17   ar
    24     9     1    1
    25    17    12   ar
    26     9     4   ar
@<TRIPOS>MOLECULE
*****
 24 26 0 0 0
SMALL
GASTEIGER

@<TRIPOS>ATOM
      1 C          -8.2152  -18.1373   22.5922 C.2     1  UNL1       -0.0246
      2 C          -9.5312  -18.4061   23.2600 C.2     1  UNL1       -0.0421
      3 C          -9.6270  -17.5222   24.4680 C.3     1  UNL1        0.0480
      4 C          -8.3703  -16.7070   24.5469 C.ar    1  UNL1       -0.0184
      5 C          -7.9078  -15.6678   25.5246 C.ar    1  UNL1       -0.0040
      6 C          -6.5727  -15.0087   25.3430 C.ar    1  UNL1       -0.0003
      7 C          -5.7001  -15.3888   24.1837 C.ar    1  UNL1       -0.0000
      8 C          -6.1626  -16.4281   23.2060 C.ar    1  UNL1       -0.0006
      9 C          -7.4977  -17.0872   23.3876 C.ar    1  UNL1       -0.0079
     10 C          -8.6619  -19.1831   20.2562 C.3     1  UNL1        0.0111
     11 C          -7.7060  -18.8018   21.3476 C.3     1  UNL1        0.0634
     12 C          -6.2411  -19.0851   21.1942 C.ar    1  UNL1        0.0818
     13 C          -5.5850  -18.9379   19.8534 C.ar    1  UNL1        0.1139
     14 N          -4.1200  -19.2213   19.7001 N.ar    1  UNL1       -0.2394
     15 C          -3.3111  -19.6518   20.8876 C.ar    1  UNL1        0.1195
     16 C          -3.9671  -19.7990   22.2285 C.ar    1  UNL1        0.1191
     17 N          -5.4321  -19.5157   22.3818 N.ar    1  UNL1       -0.2446
     18 C         -10.5691  -19.3867   22.8003 C.3     1  UNL1        0.0394
     19 C         -11.8064  -18.8992   22.1065 C.3     1  UNL1        0.0774
     20 N         -12.5895  -17.7575   22.6838 N.3     1  UNL1       -0.2583
     21 C         -13.5930  -18.0097   23.7699 C.3     1  UNL1        0.0905
     22 C         -12.3692  -16.3637   22.1751 C.3     1  UNL1        0.1795
     23 C         -12.2469  -16.1139   20.7012 C.1     1  UNL1        0.0912
     24 N         -12.1246  -15.8640   19.2272 N.1     1  UNL1       -0.1944
@<TRIPOS>BOND
     1    11    10    1
     2    11     1    1
     3     1     2    2
     4     2    18    1
     5    18    19    1
     6    19    20    1
     7    20    21    1
     8    20    22    1
     9    22    23    1
    10    23    24    3
    11     2     3    1
    12     3     4    1
    13     4     5   ar
    14     5     6   ar
    15     6     7   ar
    16     7     8   ar
    17     8     9   ar
    18    11    12    1
    19    12    13   ar
    20    13    14   ar
    21    14    15   ar
    22    15    16   ar
    23    16    17   ar
    24     9     1    1
    25    17    12   ar
    26     9     4   ar
@<TRIPOS>MOLECULE
*****
 24 26 0 0 0
SMALL
GASTEIGER

@<TRIPOS>ATOM
      1 C         -13.2925   -4.7633   19.4426 C.2     1  UNL1       -0.0246
      2 C         -14.3460   -5.8136   19.2503 C.2     1  UNL1       -0.0421
      3 C         -13.6682   -7.0723   18.7960 C.3     1  UNL1        0.0480
      4 C         -12.1958   -6.7998   18.7075 C.ar    1  UNL1       -0.0184
      5 C         -11.0365   -7.6668   18.3147 C.ar    1  UNL1       -0.0040
      6 C          -9.6450   -7.1067   18.3215 C.ar    1  UNL1       -0.0003
      7 C          -9.4128   -5.6797   18.7211 C.ar    1  UNL1       -0.0000
      8 C         -10.5721   -4.8127   19.1139 C.ar    1  UNL1       -0.0006
      9 C         -11.9636   -5.3728   19.1071 C.ar    1  UNL1       -0.0079
     10 C         -13.8998   -3.0697   21.3169 C.3     1  UNL1        0.0111
     11 C         -13.5268   -3.3514   19.8915 C.3     1  UNL1        0.0634
     12 C         -13.3881   -2.2211   18.9152 C.ar    1  UNL1        0.0818
     13 C         -12.1046   -1.4485   18.8396 C.ar    1  UNL1        0.1139
     14 N         -11.9660   -0.3183   17.8633 N.ar    1  UNL1       -0.2394
     15 C         -13.1108    0.0395   16.9625 C.ar    1  UNL1        0.1195
     16 C         -14.3943   -0.7331   17.0381 C.ar    1  UNL1        0.1191
     17 N         -14.5330   -1.8634   18.0144 N.ar    1  UNL1       -0.2446
     18 C         -15.8187   -5.6364   19.4732 C.3     1  UNL1        0.0394
     19 C         -16.7956   -6.5460   18.7888 C.3     1  UNL1        0.0774
     20 N         -17.5184   -7.5987   19.5758 N.3     1  UNL1       -0.2583
     21 C         -19.0021   -7.5005   19.7741 C.3     1  UNL1        0.0905
     22 C         -16.7577   -8.7496   20.1644 C.3     1  UNL1        0.1795
     23 C         -16.8127  -10.0982   19.5100 C.1     1  UNL1        0.0912
     24 N         -16.8678  -11.4468   18.8556 N.1     1  UNL1       -0.1944
@<TRIPOS>BOND
     1    11    10    1
     2    11     1    1
     3     1     2    2
     4     2    18    1
     5    18    19    1
     6    19    20    1
     7    20    21    1
     8    20    22    1
     9    22    23    1
    10    23    24    3
    11     2     3    1
    12     3     4    1
    13     4     5   ar
    14     5     6   ar
    15     6     7   ar
    16     7     8   ar
    17     8     9   ar
    18    11    12    1
    19    12    13   ar
    20    13    14   ar
    21    14    15   ar
    22    15    16   ar
    23    16    17   ar
    24     9     1    1
    25    17    12   ar
    26     9     4   ar
@<TRIPOS>MOLECULE
*****
 24 26 0 0 0
SMALL
GASTEIGER

@<TRIPOS>ATOM
      1 C          -7.8445  -17.2474   23.8687 C.2     1  UNL1       -0.0246
      2 C          -6.5177  -17.2367   23.1690 C.2     1  UNL1       -0.0421
      3 C          -5.5738  -16.3975   23.9782 C.3     1  UNL1        0.0480
      4 C          -6.3171  -15.8896   25.1780 C.ar    1  UNL1       -0.0184
      5 C          -5.8975  -15.0167   26.3233 C.ar    1  UNL1       -0.0040
      6 C          -6.8812  -14.6691   27.4010 C.ar    1  UNL1       -0.0003
      7 C          -8.2846  -15.1943   27.3333 C.ar    1  UNL1       -0.0000
      8 C          -8.7043  -16.0672   26.1879 C.ar    1  UNL1       -0.0006
      9 C          -7.7205  -16.4149   25.1103 C.ar    1  UNL1       -0.0079
     10 C          -9.4413  -19.2924   24.0042 C.3     1  UNL1        0.0111
     11 C          -9.0786  -17.9647   23.4077 C.3     1  UNL1        0.0634
     12 C          -9.9499  -17.3544   22.3503 C.ar    1  UNL1        0.0818
     13 C          -9.5101  -16.1063   21.6442 C.ar    1  UNL1        0.1139
     14 N         -10.3815  -15.4961   20.5868 N.ar    1  UNL1       -0.2394
     15 C         -11.6929  -16.1339   20.2354 C.ar    1  UNL1        0.1195
     16 C         -12.1328  -17.3821   20.9415 C.ar    1  UNL1        0.1191
     17 N         -11.2614  -17.9923   21.9989 N.ar    1  UNL1       -0.2446
     18 C          -6.1920  -17.9414   21.8855 C.3     1  UNL1        0.0394
     19 C          -5.4237  -19.2294   21.9111 C.3     1  UNL1        0.0774
     20 N          -5.3572  -20.0876   20.6827 N.3     1  UNL1       -0.2583
     21 C          -4.0436  -20.3097   19.9933 C.3     1  UNL1        0.0905
     22 C          -6.6041  -20.7236   20.1436 C.3     1  UNL1        0.1795
     23 C          -7.7683  -19.8680   19.7402 C.1     1  UNL1        0.0912
     24 N          -8.9324  -19.0125   19.3368 N.1     1  UNL1       -0.1944
@<TRIPOS>BOND
     1    11    10    1
     2    11     1    1
     3     1     2    2
     4     2    18    1
     5    18    19    1
     6    19    20    1
     7    20    21    1
     8    20    22    1
     9    22    23    1
    10    23    24    3
    11     2     3    1
    12     3     4    1
    13     4     5   ar
    14     5     6   ar
    15     6     7   ar
    16     7     8   ar
    17     8     9   ar
    18    11    12    1
    19    12    13   ar
    20    13    14   ar
    21    14    15   ar
    22    15    16   ar
    23    16    17   ar
    24     9     1    1
    25    17    12   ar
    26     9     4   ar
@<TRIPOS>MOLECULE
*****
 24 26 0 0 0
SMALL
GASTEIGER

@<TRIPOS>ATOM
      1 C         -10.5597  -18.8114   22.2950 C.2     1  UNL1       -0.0246
      2 C          -9.6113  -19.5901   23.1576 C.2     1  UNL1       -0.0421
      3 C         -10.2646  -19.8014   24.4912 C.3     1  UNL1        0.0480
      4 C         -11.6168  -19.1533   24.4528 C.ar    1  UNL1       -0.0184
      5 C         -12.7056  -19.0412   25.4784 C.ar    1  UNL1       -0.0040
      6 C         -13.9767  -18.3173   25.1467 C.ar    1  UNL1       -0.0003
      7 C         -14.1591  -17.7054   23.7894 C.ar    1  UNL1       -0.0000
      8 C         -13.0703  -17.8174   22.7638 C.ar    1  UNL1       -0.0006
      9 C         -11.7992  -18.5414   23.0955 C.ar    1  UNL1       -0.0079
     10 C         -10.3566  -19.3855   19.7692 C.3     1  UNL1        0.0111
     11 C         -10.3121  -18.3786   20.8803 C.3     1  UNL1        0.0634
     12 C         -10.0201  -16.9391   20.5765 C.ar    1  UNL1        0.0818
     13 C         -10.7752  -16.2338   19.4891 C.ar    1  UNL1        0.1139
     14 N         -10.4831  -14.7942   19.1854 N.ar    1  UNL1       -0.2394
     15 C          -9.4359  -14.0598   19.9690 C.ar    1  UNL1        0.1195
     16 C          -8.6807  -14.7651   21.0565 C.ar    1  UNL1        0.1191
     17 N          -8.9728  -16.2046   21.3602 N.ar    1  UNL1       -0.2446
     18 C          -8.2487  -20.0728   22.7569 C.3     1  UNL1        0.0394
     19 C          -7.2182  -19.0950   22.2756 C.3     1  UNL1        0.0774
     20 N          -5.8915  -19.5875   21.7782 N.3     1  UNL1       -0.2583
     21 C          -5.8316  -20.5503   20.6294 C.3     1  UNL1        0.0905
     22 C          -4.6248  -19.1173   22.4295 C.3     1  UNL1        0.1795
     23 C          -3.2976  -19.5995   21.9236 C.1     1  UNL1        0.0912
     24 N          -1.9703  -20.0817   21.4177 N.1     1  UNL1       -0.1944
@<TRIPOS>BOND
     1    11    10    1
     2    11     1    1
     3     1     2    2
     4     2    18    1
     5    18    19    1
     6    19    20    1
     7    20    21    1
     8    20    22    1
     9    22    23    1
    10    23    24    3
    11     2     3    1
    12     3     4    1
    13     4     5   ar
    14     5     6   ar
    15     6     7   ar
    16     7     8   ar
    17     8     9   ar
    18    11    12    1
    19    12    13   ar
    20    13    14   ar
    21    14    15   ar
    22    15    16   ar
    23    16    17   ar
    24     9     1    1
    25    17    12   ar
    26     9     4   ar
