@<TRIPOS>MOLECULE
*****
 34 38 0 0 0
SMALL
GASTEIGER

@<TRIPOS>ATOM
      1 C         -13.1497    3.4680   16.7241 C.3     1  UNL1        0.1287
      2 P         -13.2608    1.9942   16.9799 P.3     1  UNL1        0.3439
      3 O         -11.8207    2.2787   17.2877 O.2     1  UNL1       -0.2577
      4 O         -14.6517    2.3655   16.5581 O.3     1  UNL1       -0.2941
      5 C         -15.8560    1.4814   16.4251 C.3     1  UNL1        0.1514
      6 C         -15.9672    0.0075   16.6808 C.3     1  UNL1        0.0352
      7 C         -14.9013   -0.9462   17.1329 C.3     1  UNL1        0.0357
      8 C         -16.3214   -1.3380   16.8507 C.3     1  UNL1        0.0028
      9 C         -16.7528   -2.7650   17.0168 C.3     1  UNL1        0.0021
     10 C         -15.7640   -3.8002   17.4651 C.3     1  UNL1        0.0268
     11 C         -14.3439   -3.4082   17.7473 C.3     1  UNL1        0.1420
     12 C         -13.3552   -4.4433   18.1956 C.ar    1  UNL1        0.0616
     13 C         -13.7866   -5.8704   18.3617 C.ar    1  UNL1        0.1407
     14 F         -15.0867   -6.5946   18.1737 F       1  UNL1       -0.2043
     15 C         -12.7978   -6.9055   18.8100 C.ar    1  UNL1        0.0319
     16 C         -11.3777   -6.5135   19.0921 C.ar    1  UNL1        0.0351
     17 C         -10.9463   -5.0866   18.9260 C.ar    1  UNL1        0.1737
     18 F          -9.5262   -4.6947   19.2082 F       1  UNL1       -0.2010
     19 C         -11.9351   -4.0515   18.4777 C.ar    1  UNL1        0.1654
     20 O         -11.5036   -2.6245   18.3116 O.3     1  UNL1       -0.4733
     21 C         -12.4924   -1.5894   17.8634 C.3     1  UNL1        0.2075
     22 C         -13.9125   -1.9813   17.5812 C.3     1  UNL1        0.0709
     23 C         -13.4611   -0.6616   17.4408 C.3     1  UNL1        0.1515
     24 O         -12.7310    0.6469   17.3727 O.3     1  UNL1       -0.2941
     25 S         -14.7753   -4.8353   17.9134 S.O2    1  UNL1        0.0093
     26 O         -14.7646   -5.3069   17.2708 O.2     1  UNL1       -0.1684
     27 O         -15.1244   -4.9418   19.3684 O.2     1  UNL1       -0.1684
     28 C         -15.2066   -6.2622   18.0796 C.ar    1  UNL1        0.1059
     29 C         -15.0728   -7.2242   16.9364 C.ar    1  UNL1        0.0192
     30 C         -15.5042   -8.6512   17.1025 C.ar    1  UNL1        0.0127
     31 C         -16.0694   -9.1163   18.4119 C.ar    1  UNL1        0.0578
     32 CL        -16.5007  -10.5433   18.5781 Cl      1  UNL1       -0.0822
     33 C         -16.2031   -8.1543   19.5550 C.ar    1  UNL1        0.0127
     34 C         -15.7718   -6.7273   19.3889 C.ar    1  UNL1        0.0192
@<TRIPOS>BOND
     1     1     2    1
     2     2     3    2
     3     2     4    1
     4     4     5    1
     5     5     6    1
     6     7     6    1
     7     7     8    1
     8     8     9    1
     9     9    10    1
    10    10    11    1
    11    11    25    1
    12    25    26    2
    13    25    27    2
    14    25    28    1
    15    28    29   ar
    16    29    30   ar
    17    30    31   ar
    18    31    32    1
    19    31    33   ar
    20    33    34   ar
    21    11    12    1
    22    12    13   ar
    23    13    14    1
    24    13    15   ar
    25    15    16   ar
    26    16    17   ar
    27    17    18    1
    28    17    19   ar
    29    19    20    1
    30    20    21    1
    31    22    21    1
    32     7    23    1
    33    23    24    1
    34    24     2    1
    35    22     7    1
    36    22    11    1
    37    34    28   ar
    38    19    12   ar
@<TRIPOS>MOLECULE
*****
 34 38 0 0 0
SMALL
GASTEIGER

@<TRIPOS>ATOM
      1 C           8.3880   -7.5267   24.4632 C.3     1  UNL1        0.1287
      2 P           7.9650   -6.5666   25.5351 P.3     1  UNL1        0.3439
      3 O           7.6348   -5.8252   24.2737 O.2     1  UNL1       -0.2577
      4 O           8.4835   -7.7354   26.3196 O.3     1  UNL1       -0.2941
      5 C           8.5600   -7.9025   27.8081 C.3     1  UNL1        0.1514
      6 C           8.1370   -6.9424   28.8802 C.3     1  UNL1        0.0352
      7 C           7.5330   -5.5778   28.7282 C.3     1  UNL1        0.0357
      8 C           7.8242   -6.2309   30.0467 C.3     1  UNL1        0.0028
      9 C           7.5087   -5.5128   31.3253 C.3     1  UNL1        0.0021
     10 C           6.9019   -4.1415   31.2853 C.3     1  UNL1        0.0268
     11 C           6.6107   -3.4885   29.9667 C.3     1  UNL1        0.1420
     12 C           6.0040   -2.1173   29.9267 C.ar    1  UNL1        0.0616
     13 C           5.6884   -1.3990   31.2053 C.ar    1  UNL1        0.1407
     14 F           5.8421   -1.7409   32.6577 F       1  UNL1       -0.2043
     15 C           5.0816   -0.0278   31.1653 C.ar    1  UNL1        0.0319
     16 C           4.7904    0.6252   29.8466 C.ar    1  UNL1        0.0351
     17 C           5.1060   -0.0929   28.5681 C.ar    1  UNL1        0.1737
     18 F           4.8147    0.5602   27.2495 F       1  UNL1       -0.2010
     19 C           5.7127   -1.4641   28.6081 C.ar    1  UNL1        0.1654
     20 O           6.0283   -2.1823   27.3295 O.3     1  UNL1       -0.4733
     21 C           6.6350   -3.5535   27.3695 C.3     1  UNL1        0.2075
     22 C           6.9262   -4.2066   28.6882 C.3     1  UNL1        0.0709
     23 C           7.2028   -4.8364   27.4667 C.3     1  UNL1        0.1515
     24 O           7.3950   -5.2764   26.0457 O.3     1  UNL1       -0.2941
     25 S           6.2951   -2.7703   31.2453 S.O2    1  UNL1        0.0093
     26 O           5.5750   -2.8806   31.5687 O.2     1  UNL1       -0.1684
     27 O           7.5454   -1.9976   31.5456 O.2     1  UNL1       -0.1684
     28 C           5.9796   -2.0521   32.5238 C.ar    1  UNL1        0.1059
     29 C           4.6421   -2.2366   33.1773 C.ar    1  UNL1        0.0192
     30 C           4.3265   -1.5184   34.4559 C.ar    1  UNL1        0.0127
     31 C           5.3485   -0.6157   35.0809 C.ar    1  UNL1        0.0578
     32 CL          5.0331    0.1025   36.3594 Cl      1  UNL1       -0.0822
     33 C           6.6861   -0.4312   34.4274 C.ar    1  UNL1        0.0127
     34 C           7.0016   -1.1494   33.1488 C.ar    1  UNL1        0.0192
@<TRIPOS>BOND
     1     1     2    1
     2     2     3    2
     3     2     4    1
     4     4     5    1
     5     5     6    1
     6     7     6    1
     7     7     8    1
     8     8     9    1
     9     9    10    1
    10    10    11    1
    11    11    25    1
    12    25    26    2
    13    25    27    2
    14    25    28    1
    15    28    29   ar
    16    29    30   ar
    17    30    31   ar
    18    31    32    1
    19    31    33   ar
    20    33    34   ar
    21    11    12    1
    22    12    13   ar
    23    13    14    1
    24    13    15   ar
    25    15    16   ar
    26    16    17   ar
    27    17    18    1
    28    17    19   ar
    29    19    20    1
    30    20    21    1
    31    22    21    1
    32     7    23    1
    33    23    24    1
    34    24     2    1
    35    22     7    1
    36    22    11    1
    37    34    28   ar
    38    19    12   ar
@<TRIPOS>MOLECULE
*****
 34 38 0 0 0
SMALL
GASTEIGER

@<TRIPOS>ATOM
      1 C           8.0507   -5.1928   27.9387 C.3     1  UNL1        0.1287
      2 P           7.3187   -4.5918   26.7757 P.3     1  UNL1        0.3439
      3 O           7.9086   -5.8401   26.1897 O.2     1  UNL1       -0.2577
      4 O           7.0544   -3.6108   27.8794 O.3     1  UNL1       -0.2941
      5 C           6.2556   -2.3423   27.8316 C.3     1  UNL1        0.1514
      6 C           5.5235   -1.7411   26.6686 C.3     1  UNL1        0.0352
      7 C           5.4096   -2.2602   25.2659 C.3     1  UNL1        0.0357
      8 C           4.7752   -0.9906   25.7511 C.3     1  UNL1        0.0028
      9 C           3.9640   -0.1501   24.8100 C.3     1  UNL1        0.0021
     10 C           3.7872   -0.5794   23.3836 C.3     1  UNL1        0.0268
     11 C           4.4217   -1.8491   22.8984 C.3     1  UNL1        0.1420
     12 C           4.2449   -2.2783   21.4721 C.ar    1  UNL1        0.0616
     13 C           3.4337   -1.4379   20.5309 C.ar    1  UNL1        0.1407
     14 F           2.6801   -0.1484   20.6710 F       1  UNL1       -0.2043
     15 C           3.2569   -1.8671   19.1045 C.ar    1  UNL1        0.0319
     16 C           3.8913   -3.1368   18.6194 C.ar    1  UNL1        0.0351
     17 C           4.7025   -3.9772   19.5604 C.ar    1  UNL1        0.1737
     18 F           5.3369   -5.2469   19.0752 F       1  UNL1       -0.2010
     19 C           4.8792   -3.5479   20.9868 C.ar    1  UNL1        0.1654
     20 O           5.6904   -4.3884   21.9279 O.3     1  UNL1       -0.4733
     21 C           5.8672   -3.9592   23.3542 C.3     1  UNL1        0.2075
     22 C           5.2328   -2.6894   23.8395 C.3     1  UNL1        0.0709
     23 C           5.9996   -3.5086   24.6799 C.3     1  UNL1        0.1515
     24 O           6.8492   -4.5462   25.3517 O.3     1  UNL1       -0.2941
     25 S           3.6105   -1.0086   21.9572 S.O2    1  UNL1        0.0093
     26 O           2.8217   -1.1224   21.9389 O.2     1  UNL1       -0.1684
     27 O           4.6269   -0.1363   21.2818 O.2     1  UNL1       -0.1684
     28 C           2.7994   -0.1682   21.0161 C.ar    1  UNL1        0.1059
     29 C           1.3342   -0.4385   20.8421 C.ar    1  UNL1        0.0192
     30 C           0.5230    0.4019   19.9009 C.ar    1  UNL1        0.0127
     31 C           1.1770    1.5126   19.1338 C.ar    1  UNL1        0.0578
     32 CL          0.3660    2.3531   18.1926 Cl      1  UNL1       -0.0822
     33 C           2.6422    1.7829   19.3078 C.ar    1  UNL1        0.0127
     34 C           3.4534    0.9425   20.2490 C.ar    1  UNL1        0.0192
@<TRIPOS>BOND
     1     1     2    1
     2     2     3    2
     3     2     4    1
     4     4     5    1
     5     5     6    1
     6     7     6    1
     7     7     8    1
     8     8     9    1
     9     9    10    1
    10    10    11    1
    11    11    25    1
    12    25    26    2
    13    25    27    2
    14    25    28    1
    15    28    29   ar
    16    29    30   ar
    17    30    31   ar
    18    31    32    1
    19    31    33   ar
    20    33    34   ar
    21    11    12    1
    22    12    13   ar
    23    13    14    1
    24    13    15   ar
    25    15    16   ar
    26    16    17   ar
    27    17    18    1
    28    17    19   ar
    29    19    20    1
    30    20    21    1
    31    22    21    1
    32     7    23    1
    33    23    24    1
    34    24     2    1
    35    22     7    1
    36    22    11    1
    37    34    28   ar
    38    19    12   ar
@<TRIPOS>MOLECULE
*****
 34 38 0 0 0
SMALL
GASTEIGER

@<TRIPOS>ATOM
      1 C           3.6226    3.7763   39.2281 C.3     1  UNL1        0.1287
      2 P           3.3309    3.3574   37.8177 P.3     1  UNL1        0.3439
      3 O           4.2756    2.2938   38.2932 O.2     1  UNL1       -0.2577
      4 O           2.5159    4.6076   37.9699 O.3     1  UNL1       -0.2941
      5 C           1.6285    5.2740   36.9609 C.3     1  UNL1        0.1514
      6 C           1.3368    4.8551   35.5504 C.3     1  UNL1        0.0352
      7 C           1.8604    3.6661   34.8007 C.3     1  UNL1        0.0357
      8 C           0.9121    4.6766   34.2265 C.3     1  UNL1        0.0028
      9 C           0.4268    4.5322   32.8145 C.3     1  UNL1        0.0021
     10 C           0.8900    3.3773   31.9767 C.3     1  UNL1        0.0268
     11 C           1.8383    2.3669   32.5509 C.3     1  UNL1        0.1420
     12 C           2.3015    1.2121   31.7131 C.ar    1  UNL1        0.0616
     13 C           1.8162    1.0677   30.3011 C.ar    1  UNL1        0.1407
     14 F           0.8929    1.8666   29.4297 F       1  UNL1       -0.2043
     15 C           2.2793   -0.0871   29.4633 C.ar    1  UNL1        0.0319
     16 C           3.2277   -1.0975   30.0375 C.ar    1  UNL1        0.0351
     17 C           3.7129   -0.9531   31.4494 C.ar    1  UNL1        0.1737
     18 F           4.6613   -1.9635   32.0236 F       1  UNL1       -0.2010
     19 C           3.2498    0.2017   32.2872 C.ar    1  UNL1        0.1654
     20 O           3.7351    0.3461   33.6992 O.3     1  UNL1       -0.4733
     21 C           3.2719    1.5009   34.5371 C.3     1  UNL1        0.2075
     22 C           2.3235    2.5113   33.9629 C.3     1  UNL1        0.0709
     23 C           2.8052    2.6025   35.2762 C.3     1  UNL1        0.1515
     24 O           3.4596    2.4651   36.6188 O.3     1  UNL1       -0.2941
     25 S           1.3531    2.2225   31.1389 S.O2    1  UNL1        0.0093
     26 O           1.8449    2.4388   30.5500 O.2     1  UNL1       -0.1684
     27 O          -0.0319    1.6655   31.2863 O.2     1  UNL1       -0.1684
     28 C           0.8679    2.0780   29.7270 C.ar    1  UNL1        0.1059
     29 C           1.5487    2.8267   28.6196 C.ar    1  UNL1        0.0192
     30 C           1.0634    2.6823   27.2076 C.ar    1  UNL1        0.0127
     31 C          -0.1026    1.7892   26.9029 C.ar    1  UNL1        0.0578
     32 CL         -0.5879    1.6447   25.4910 Cl      1  UNL1       -0.0822
     33 C          -0.7834    1.0405   28.0103 C.ar    1  UNL1        0.0127
     34 C          -0.2981    1.1850   29.4223 C.ar    1  UNL1        0.0192
@<TRIPOS>BOND
     1     1     2    1
     2     2     3    2
     3     2     4    1
     4     4     5    1
     5     5     6    1
     6     7     6    1
     7     7     8    1
     8     8     9    1
     9     9    10    1
    10    10    11    1
    11    11    25    1
    12    25    26    2
    13    25    27    2
    14    25    28    1
    15    28    29   ar
    16    29    30   ar
    17    30    31   ar
    18    31    32    1
    19    31    33   ar
    20    33    34   ar
    21    11    12    1
    22    12    13   ar
    23    13    14    1
    24    13    15   ar
    25    15    16   ar
    26    16    17   ar
    27    17    18    1
    28    17    19   ar
    29    19    20    1
    30    20    21    1
    31    22    21    1
    32     7    23    1
    33    23    24    1
    34    24     2    1
    35    22     7    1
    36    22    11    1
    37    34    28   ar
    38    19    12   ar
@<TRIPOS>MOLECULE
*****
 34 38 0 0 0
SMALL
GASTEIGER

@<TRIPOS>ATOM
      1 C         -15.6326    3.0974   18.9730 C.3     1  UNL1        0.1287
      2 P         -15.5254    1.6013   18.9580 P.3     1  UNL1        0.3439
      3 O         -14.0941    2.0374   19.0624 O.2     1  UNL1       -0.2577
      4 O         -17.0046    1.8310   18.8603 O.3     1  UNL1       -0.2941
      5 C         -18.1047    0.8155   18.7699 C.3     1  UNL1        0.1514
      6 C         -17.9976   -0.6806   18.7549 C.3     1  UNL1        0.0352
      7 C         -16.7638   -1.5307   18.8266 C.3     1  UNL1        0.0357
      8 C         -18.1586   -2.0727   18.7231 C.3     1  UNL1        0.0028
      9 C         -18.3864   -3.5549   18.6854 C.3     1  UNL1        0.0021
     10 C         -17.2192   -4.4950   18.7512 C.3     1  UNL1        0.0268
     11 C         -15.8245   -3.9528   18.8547 C.3     1  UNL1        0.1420
     12 C         -14.6574   -4.8928   18.9205 C.ar    1  UNL1        0.0616
     13 C         -14.8851   -6.3750   18.8828 C.ar    1  UNL1        0.1407
     14 F         -16.1072   -7.2394   18.7863 F       1  UNL1       -0.2043
     15 C         -13.7181   -7.3150   18.9486 C.ar    1  UNL1        0.0319
     16 C         -12.3233   -6.7728   19.0521 C.ar    1  UNL1        0.0351
     17 C         -12.0956   -5.2907   19.0898 C.ar    1  UNL1        0.1737
     18 F         -10.7008   -4.7486   19.1933 F       1  UNL1       -0.2010
     19 C         -13.2627   -4.3507   19.0240 C.ar    1  UNL1        0.1654
     20 O         -13.0349   -2.8686   19.0617 O.3     1  UNL1       -0.4733
     21 C         -14.2020   -1.9285   18.9959 C.3     1  UNL1        0.2075
     22 C         -15.5968   -2.4707   18.8924 C.3     1  UNL1        0.0709
     23 C         -15.3324   -1.0945   18.9310 C.3     1  UNL1        0.1515
     24 O         -14.7813    0.2992   18.9895 O.3     1  UNL1       -0.2941
     25 S         -16.0522   -5.4350   18.8170 S.O2    1  UNL1        0.0093
     26 O         -16.1781   -5.8121   19.5080 O.2     1  UNL1       -0.1684
     27 O         -15.9643   -5.7787   17.3595 O.2     1  UNL1       -0.1684
     28 C         -16.2798   -6.9171   18.7793 C.ar    1  UNL1        0.1059
     29 C         -16.2915   -7.6409   17.4655 C.ar    1  UNL1        0.0192
     30 C         -16.5192   -9.1231   17.4277 C.ar    1  UNL1        0.0127
     31 C         -16.7351   -9.8814   18.7037 C.ar    1  UNL1        0.0578
     32 CL        -16.9628  -11.3635   18.6661 Cl      1  UNL1       -0.0822
     33 C         -16.7235   -9.1576   20.0176 C.ar    1  UNL1        0.0127
     34 C         -16.4958   -7.6754   20.0553 C.ar    1  UNL1        0.0192
@<TRIPOS>BOND
     1     1     2    1
     2     2     3    2
     3     2     4    1
     4     4     5    1
     5     5     6    1
     6     7     6    1
     7     7     8    1
     8     8     9    1
     9     9    10    1
    10    10    11    1
    11    11    25    1
    12    25    26    2
    13    25    27    2
    14    25    28    1
    15    28    29   ar
    16    29    30   ar
    17    30    31   ar
    18    31    32    1
    19    31    33   ar
    20    33    34   ar
    21    11    12    1
    22    12    13   ar
    23    13    14    1
    24    13    15   ar
    25    15    16   ar
    26    16    17   ar
    27    17    18    1
    28    17    19   ar
    29    19    20    1
    30    20    21    1
    31    22    21    1
    32     7    23    1
    33    23    24    1
    34    24     2    1
    35    22     7    1
    36    22    11    1
    37    34    28   ar
    38    19    12   ar
@<TRIPOS>MOLECULE
*****
 34 38 0 0 0
SMALL
GASTEIGER

@<TRIPOS>ATOM
      1 C           4.7160   -4.0371   18.7177 C.3     1  UNL1        0.1287
      2 P           4.7447   -3.5895   20.1490 P.3     1  UNL1        0.3439
      3 O           5.7608   -4.6926   20.1238 O.2     1  UNL1       -0.2577
      4 O           3.7158   -2.6855   19.5372 O.3     1  UNL1       -0.2941
      5 C           2.9139   -1.6017   20.1944 C.3     1  UNL1        0.1514
      6 C           2.9426   -1.1539   21.6257 C.3     1  UNL1        0.0352
      7 C           3.7804   -1.6796   22.7534 C.3     1  UNL1        0.0357
      8 C           2.7868   -0.5641   22.8877 C.3     1  UNL1        0.0028
      9 C           2.5814    0.1015   24.2163 C.3     1  UNL1        0.0021
     10 C           3.3698   -0.3487   25.4105 C.3     1  UNL1        0.0268
     11 C           4.3634   -1.4643   25.2760 C.3     1  UNL1        0.1420
     12 C           5.1518   -1.9143   26.4701 C.ar    1  UNL1        0.0616
     13 C           4.9464   -1.2488   27.7987 C.ar    1  UNL1        0.1407
     14 F           4.0637   -0.1363   28.2815 F       1  UNL1       -0.2043
     15 C           5.7348   -1.6989   28.9929 C.ar    1  UNL1        0.0319
     16 C           6.7284   -2.8145   28.8584 C.ar    1  UNL1        0.0351
     17 C           6.9338   -3.4800   27.5299 C.ar    1  UNL1        0.1737
     18 F           7.9275   -4.5956   27.3955 F       1  UNL1       -0.2010
     19 C           6.1454   -3.0299   26.3358 C.ar    1  UNL1        0.1654
     20 O           6.3508   -3.6954   25.0073 O.3     1  UNL1       -0.4733
     21 C           5.5625   -3.2453   23.8131 C.3     1  UNL1        0.2075
     22 C           4.5688   -2.1297   23.9475 C.3     1  UNL1        0.0709
     23 C           4.7965   -2.7828   22.7282 C.3     1  UNL1        0.1515
     24 O           5.2257   -3.6327   21.5692 O.3     1  UNL1       -0.2941
     25 S           4.1581   -0.7988   26.6046 S.O2    1  UNL1        0.0093
     26 O           4.4706   -0.0734   26.7122 O.2     1  UNL1       -0.1684
     27 O           3.3561   -1.7945   27.3891 O.2     1  UNL1       -0.1684
     28 C           3.9528   -0.1334   27.9331 C.ar    1  UNL1        0.1059
     29 C           2.8404   -0.5832   28.8333 C.ar    1  UNL1        0.0192
     30 C           2.6350    0.0822   30.1619 C.ar    1  UNL1        0.0127
     31 C           3.5420    1.1975   30.5903 C.ar    1  UNL1        0.0578
     32 CL          3.3367    1.8629   31.9188 Cl      1  UNL1       -0.0822
     33 C           4.6544    1.6473   29.6901 C.ar    1  UNL1        0.0127
     34 C           4.8598    0.9819   28.3615 C.ar    1  UNL1        0.0192
@<TRIPOS>BOND
     1     1     2    1
     2     2     3    2
     3     2     4    1
     4     4     5    1
     5     5     6    1
     6     7     6    1
     7     7     8    1
     8     8     9    1
     9     9    10    1
    10    10    11    1
    11    11    25    1
    12    25    26    2
    13    25    27    2
    14    25    28    1
    15    28    29   ar
    16    29    30   ar
    17    30    31   ar
    18    31    32    1
    19    31    33   ar
    20    33    34   ar
    21    11    12    1
    22    12    13   ar
    23    13    14    1
    24    13    15   ar
    25    15    16   ar
    26    16    17   ar
    27    17    18    1
    28    17    19   ar
    29    19    20    1
    30    20    21    1
    31    22    21    1
    32     7    23    1
    33    23    24    1
    34    24     2    1
    35    22     7    1
    36    22    11    1
    37    34    28   ar
    38    19    12   ar
@<TRIPOS>MOLECULE
*****
 34 38 0 0 0
SMALL
GASTEIGER

@<TRIPOS>ATOM
      1 C          -9.6003   -7.6093   18.4278 C.3     1  UNL1        0.1287
      2 P         -10.7431   -6.6532   18.6002 P.3     1  UNL1        0.3439
      3 O         -11.4036   -7.9922   18.7437 O.2     1  UNL1       -0.2577
      4 O          -9.5739   -5.7396   18.3801 O.3     1  UNL1       -0.2941
      5 C          -9.5528   -4.2403   18.3418 C.3     1  UNL1        0.1514
      6 C         -10.6956   -3.2841   18.5142 C.3     1  UNL1        0.0352
      7 C         -12.1419   -3.5912   18.7675 C.3     1  UNL1        0.0357
      8 C         -11.5820   -2.2055   18.6401 C.3     1  UNL1        0.0028
      9 C         -12.4873   -1.0162   18.7668 C.3     1  UNL1        0.0021
     10 C         -13.9526   -1.2128   19.0207 C.3     1  UNL1        0.0268
     11 C         -14.5124   -2.5986   19.1481 C.3     1  UNL1        0.1420
     12 C         -15.9776   -2.7951   19.4021 C.ar    1  UNL1        0.0616
     13 C         -16.8831   -1.6059   19.5287 C.ar    1  UNL1        0.1407
     14 F         -16.6710   -0.1226   19.4583 F       1  UNL1       -0.2043
     15 C         -18.3483   -1.8024   19.7827 C.ar    1  UNL1        0.0319
     16 C         -18.9080   -3.1882   19.9101 C.ar    1  UNL1        0.0351
     17 C         -18.0027   -4.3774   19.7834 C.ar    1  UNL1        0.1737
     18 F         -18.5626   -5.7632   19.9108 F       1  UNL1       -0.2010
     19 C         -16.5375   -4.1808   19.5295 C.ar    1  UNL1        0.1654
     20 O         -15.6321   -5.3701   19.4029 O.3     1  UNL1       -0.4733
     21 C         -14.1669   -5.1736   19.1489 C.3     1  UNL1        0.2075
     22 C         -13.6071   -3.7878   19.0215 C.3     1  UNL1        0.0709
     23 C         -12.8024   -4.9303   18.9110 C.3     1  UNL1        0.1515
     24 O         -12.1800   -6.2930   18.8365 O.3     1  UNL1       -0.2941
     25 S         -15.4179   -1.4093   19.2747 S.O2    1  UNL1        0.0093
     26 O         -15.4962   -1.0733   19.9933 O.2     1  UNL1       -0.1684
     27 O         -15.9421   -1.2027   17.8845 O.2     1  UNL1       -0.1684
     28 C         -16.3232   -0.2202   19.4013 C.ar    1  UNL1        0.1059
     29 C         -16.5874    0.3812   20.7499 C.ar    1  UNL1        0.0192
     30 C         -17.4929    1.5704   20.8765 C.ar    1  UNL1        0.0127
     31 C         -18.1341    2.1583   19.6545 C.ar    1  UNL1        0.0578
     32 CL        -19.0395    3.3475   19.7810 Cl      1  UNL1       -0.0822
     33 C         -17.8699    1.5569   18.3059 C.ar    1  UNL1        0.0127
     34 C         -16.9645    0.3677   18.1793 C.ar    1  UNL1        0.0192
@<TRIPOS>BOND
     1     1     2    1
     2     2     3    2
     3     2     4    1
     4     4     5    1
     5     5     6    1
     6     7     6    1
     7     7     8    1
     8     8     9    1
     9     9    10    1
    10    10    11    1
    11    11    25    1
    12    25    26    2
    13    25    27    2
    14    25    28    1
    15    28    29   ar
    16    29    30   ar
    17    30    31   ar
    18    31    32    1
    19    31    33   ar
    20    33    34   ar
    21    11    12    1
    22    12    13   ar
    23    13    14    1
    24    13    15   ar
    25    15    16   ar
    26    16    17   ar
    27    17    18    1
    28    17    19   ar
    29    19    20    1
    30    20    21    1
    31    22    21    1
    32     7    23    1
    33    23    24    1
    34    24     2    1
    35    22     7    1
    36    22    11    1
    37    34    28   ar
    38    19    12   ar
@<TRIPOS>MOLECULE
*****
 34 38 0 0 0
SMALL
GASTEIGER

@<TRIPOS>ATOM
      1 C           3.9526    0.2617   34.2430 C.3     1  UNL1        0.1287
      2 P           4.6203   -0.6843   33.2895 P.3     1  UNL1        0.3439
      3 O           5.0579   -1.1968   34.6296 O.2     1  UNL1       -0.2577
      4 O           3.8856    0.2493   32.3738 O.3     1  UNL1       -0.2941
      5 C           3.8319    0.2393   30.8749 C.3     1  UNL1        0.1514
      6 C           4.4996   -0.7067   29.9213 C.3     1  UNL1        0.0352
      7 C           5.3859   -1.8764   30.2313 C.3     1  UNL1        0.0357
      8 C           5.0082   -1.4465   28.8448 C.3     1  UNL1        0.0028
      9 C           5.5254   -2.2037   27.6577 C.3     1  UNL1        0.0021
     10 C           6.4204   -3.3909   27.8572 C.3     1  UNL1        0.0268
     11 C           6.7980   -3.8208   29.2438 C.3     1  UNL1        0.1420
     12 C           7.6929   -5.0079   29.4433 C.ar    1  UNL1        0.0616
     13 C           8.2102   -5.7652   28.2562 C.ar    1  UNL1        0.1407
     14 F           8.0409   -5.6198   26.7729 F       1  UNL1       -0.2043
     15 C           9.1051   -6.9524   28.4557 C.ar    1  UNL1        0.0319
     16 C           9.4827   -7.3822   29.8423 C.ar    1  UNL1        0.0351
     17 C           8.9656   -6.6250   31.0293 C.ar    1  UNL1        0.1737
     18 F           9.3433   -7.0549   32.4159 F       1  UNL1       -0.2010
     19 C           8.0706   -5.4378   30.8298 C.ar    1  UNL1        0.1654
     20 O           7.5535   -4.6806   32.0169 O.3     1  UNL1       -0.4733
     21 C           6.6586   -3.4934   31.8174 C.3     1  UNL1        0.2075
     22 C           6.2808   -3.0635   30.4308 C.3     1  UNL1        0.0709
     23 C           5.8235   -2.3889   31.5714 C.3     1  UNL1        0.1515
     24 O           5.4828   -1.8585   32.9324 O.3     1  UNL1       -0.2941
     25 S           7.3153   -4.5781   28.0567 S.O2    1  UNL1        0.0093
     26 O           8.0574   -4.4250   27.8094 O.2     1  UNL1       -0.1684
     27 O           6.1724   -5.4687   27.6684 O.2     1  UNL1       -0.1684
     28 C           7.8324   -5.3354   26.8697 C.ar    1  UNL1        0.1059
     29 C           9.0188   -4.8200   26.1101 C.ar    1  UNL1        0.0192
     30 C           9.5360   -5.5773   24.9230 C.ar    1  UNL1        0.0127
     31 C           8.8668   -6.8500   24.4957 C.ar    1  UNL1        0.0578
     32 CL          9.3840   -7.6073   23.3087 Cl      1  UNL1       -0.0822
     33 C           7.6805   -7.3653   25.2553 C.ar    1  UNL1        0.0127
     34 C           7.1633   -6.6080   26.4424 C.ar    1  UNL1        0.0192
@<TRIPOS>BOND
     1     1     2    1
     2     2     3    2
     3     2     4    1
     4     4     5    1
     5     5     6    1
     6     7     6    1
     7     7     8    1
     8     8     9    1
     9     9    10    1
    10    10    11    1
    11    11    25    1
    12    25    26    2
    13    25    27    2
    14    25    28    1
    15    28    29   ar
    16    29    30   ar
    17    30    31   ar
    18    31    32    1
    19    31    33   ar
    20    33    34   ar
    21    11    12    1
    22    12    13   ar
    23    13    14    1
    24    13    15   ar
    25    15    16   ar
    26    16    17   ar
    27    17    18    1
    28    17    19   ar
    29    19    20    1
    30    20    21    1
    31    22    21    1
    32     7    23    1
    33    23    24    1
    34    24     2    1
    35    22     7    1
    36    22    11    1
    37    34    28   ar
    38    19    12   ar
@<TRIPOS>MOLECULE
*****
 34 38 0 0 0
SMALL
GASTEIGER

@<TRIPOS>ATOM
      1 C           2.7534   -1.0627   19.6977 C.3     1  UNL1        0.1287
      2 P           3.5599   -1.7033   20.7882 P.3     1  UNL1        0.3439
      3 O           3.9524   -2.4930   19.5749 O.2     1  UNL1       -0.2577
      4 O           2.8085   -0.6284   21.5163 O.3     1  UNL1       -0.2941
      5 C           2.8527   -0.2802   22.9745 C.3     1  UNL1        0.1514
      6 C           3.6592   -0.9207   24.0651 C.3     1  UNL1        0.0352
      7 C           4.6208   -2.0677   23.9665 C.3     1  UNL1        0.0357
      8 C           4.2979   -1.3428   25.2393 C.3     1  UNL1        0.0028
      9 C           4.9536   -1.7544   26.5241 C.3     1  UNL1        0.0021
     10 C           5.9324   -2.8912   26.5359 C.3     1  UNL1        0.0268
     11 C           6.2552   -3.6161   25.2630 C.3     1  UNL1        0.1420
     12 C           7.2339   -4.7528   25.2749 C.ar    1  UNL1        0.0616
     13 C           7.8897   -5.1646   26.5596 C.ar    1  UNL1        0.1407
     14 F           7.8047   -4.6775   27.9758 F       1  UNL1       -0.2043
     15 C           8.8684   -6.3013   26.5715 C.ar    1  UNL1        0.0319
     16 C           9.1912   -7.0262   25.2986 C.ar    1  UNL1        0.0351
     17 C           8.5354   -6.6145   24.0139 C.ar    1  UNL1        0.1737
     18 F           8.8583   -7.3395   22.7410 F       1  UNL1       -0.2010
     19 C           7.5568   -5.4778   24.0021 C.ar    1  UNL1        0.1654
     20 O           6.9010   -5.0661   22.7173 O.3     1  UNL1       -0.4733
     21 C           5.9223   -3.9294   22.7055 C.3     1  UNL1        0.2075
     22 C           5.5994   -3.2044   23.9784 C.3     1  UNL1        0.0709
     23 C           5.0133   -2.8575   22.7531 C.3     1  UNL1        0.1515
     24 O           4.5412   -2.6953   21.3387 O.3     1  UNL1       -0.2941
     25 S           6.9110   -4.0279   26.5478 S.O2    1  UNL1        0.0093
     26 O           6.5715   -4.6118   26.9711 O.2     1  UNL1       -0.1684
     27 O           8.1105   -3.1324   26.6462 O.2     1  UNL1       -0.1684
     28 C           7.5668   -4.4396   27.8324 C.ar    1  UNL1        0.1059
     29 C           8.8785   -3.8321   28.2332 C.ar    1  UNL1        0.0192
     30 C           9.5344   -4.2438   29.5179 C.ar    1  UNL1        0.0127
     31 C           8.8786   -5.2630   30.4017 C.ar    1  UNL1        0.0578
     32 CL          9.5344   -5.6748   31.6864 Cl      1  UNL1       -0.0822
     33 C           7.5670   -5.8705   30.0009 C.ar    1  UNL1        0.0127
     34 C           6.9111   -5.4588   28.7162 C.ar    1  UNL1        0.0192
@<TRIPOS>BOND
     1     1     2    1
     2     2     3    2
     3     2     4    1
     4     4     5    1
     5     5     6    1
     6     7     6    1
     7     7     8    1
     8     8     9    1
     9     9    10    1
    10    10    11    1
    11    11    25    1
    12    25    26    2
    13    25    27    2
    14    25    28    1
    15    28    29   ar
    16    29    30   ar
    17    30    31   ar
    18    31    32    1
    19    31    33   ar
    20    33    34   ar
    21    11    12    1
    22    12    13   ar
    23    13    14    1
    24    13    15   ar
    25    15    16   ar
    26    16    17   ar
    27    17    18    1
    28    17    19   ar
    29    19    20    1
    30    20    21    1
    31    22    21    1
    32     7    23    1
    33    23    24    1
    34    24     2    1
    35    22     7    1
    36    22    11    1
    37    34    28   ar
    38    19    12   ar
