@<TRIPOS>MOLECULE
*****
 26 30 0 0 0
SMALL
GASTEIGER

@<TRIPOS>ATOM
      1 O          -5.1496  -14.5964   25.7712 O.2     1  UNL1       -0.2638
      2 C          -5.9317  -15.5428   24.9092 C.2     1  UNL1        0.3160
      3 N          -7.3982  -15.7419   25.1532 N.am    1  UNL1       -0.1720
      4 C          -8.1802  -16.6883   24.2912 C.ar    1  UNL1        0.0775
      5 C          -9.6468  -16.8874   24.5352 C.ar    1  UNL1        0.0172
      6 C         -10.4287  -17.8337   23.6732 C.ar    1  UNL1        0.0073
      7 C          -9.7441  -18.5810   22.5674 C.ar    1  UNL1        0.0007
      8 C          -8.2776  -18.3819   22.3234 C.ar    1  UNL1        0.0051
      9 C          -7.4956  -17.4355   23.1853 C.ar    1  UNL1        0.0623
     10 C          -6.0290  -17.2364   22.9414 C.2     1  UNL1        0.2419
     11 N          -5.0895  -17.8298   21.9339 N.2     1  UNL1       -0.0302
     12 C          -3.7268  -17.2502   22.1732 C.2     1  UNL1        0.3765
     13 N          -3.8242  -16.2986   23.3285 N.2     1  UNL1       -0.0256
     14 C          -5.2471  -16.2901   23.8033 C.2     1  UNL1        0.2907
     15 C          -2.4848  -17.5667   21.3938 C.ar    1  UNL1        0.0989
     16 C          -1.5199  -16.4729   21.0438 C.ar    1  UNL1        0.0085
     17 C          -0.2780  -16.7895   20.2645 C.ar    1  UNL1        0.0003
     18 C          -0.0010  -18.1998   19.8352 C.ar    1  UNL1        0.0009
     19 C          -0.9659  -19.2936   20.1852 C.ar    1  UNL1        0.0116
     20 C          -2.2078  -18.9770   20.9645 C.ar    1  UNL1        0.0651
     21 CL         -3.1728  -20.0708   21.3146 Cl      1  UNL1       -0.0820
     22 C         -11.8953  -18.0329   23.9172 C.ar    1  UNL1        0.0295
     23 C         -12.5090  -18.6733   25.1268 C.ar    1  UNL1        0.0070
     24 C         -13.9987  -18.6628   24.9515 C.ar    1  UNL1        0.0075
     25 C         -14.3057  -18.0158   23.6334 C.ar    1  UNL1        0.0354
     26 S         -13.0058  -17.6265   22.9942 S.2     1  UNL1       -0.0864
@<TRIPOS>BOND
     1     1     2    2
     2     2     3    1
     3     3     4    2
     4     4     5   ar
     5     5     6   ar
     6     6    22    1
     7    22    23   ar
     8    23    24   ar
     9    24    25   ar
    10    25    26   ar
    11     6     7   ar
    12     7     8   ar
    13     8     9   ar
    14     9    10    2
    15    10    11    1
    16    11    12    2
    17    12    15    1
    18    15    16   ar
    19    16    17   ar
    20    17    18   ar
    21    18    19   ar
    22    19    20   ar
    23    20    21    1
    24    12    13    1
    25    13    14    2
    26    14     2    1
    27     9     4   ar
    28    14    10    1
    29    26    22   ar
    30    20    15   ar
@<TRIPOS>MOLECULE
*****
 26 30 0 0 0
SMALL
GASTEIGER

@<TRIPOS>ATOM
      1 O           0.8075    5.5295   17.9044 O.2     1  UNL1       -0.2638
      2 C           0.7256    4.1647   18.5214 C.2     1  UNL1        0.3160
      3 N           1.7934    3.1494   18.2406 N.am    1  UNL1       -0.1720
      4 C           1.7115    1.7846   18.8577 C.ar    1  UNL1        0.0775
      5 C           2.7792    0.7692   18.5768 C.ar    1  UNL1        0.0172
      6 C           2.6973   -0.5955   19.1938 C.ar    1  UNL1        0.0073
      7 C           1.5476   -0.9449   20.0918 C.ar    1  UNL1        0.0007
      8 C           0.4799    0.0705   20.3726 C.ar    1  UNL1        0.0051
      9 C           0.5618    1.4352   19.7556 C.ar    1  UNL1        0.0623
     10 C          -0.5060    2.4507   20.0364 C.2     1  UNL1        0.2419
     11 N          -1.7488    2.3946   20.8743 N.2     1  UNL1       -0.0302
     12 C          -2.4350    3.7248   20.7751 C.2     1  UNL1        0.3765
     13 N          -1.6163    4.6028   19.8759 N.2     1  UNL1       -0.0256
     14 C          -0.4240    3.8154   19.4193 C.2     1  UNL1        0.2907
     15 C          -3.7153    4.1093   21.4557 C.ar    1  UNL1        0.0989
     16 C          -3.6878    4.6526   22.8536 C.ar    1  UNL1        0.0085
     17 C          -4.9680    5.0371   23.5341 C.ar    1  UNL1        0.0003
     18 C          -6.2757    4.8783   22.8168 C.ar    1  UNL1        0.0009
     19 C          -6.3033    4.3350   21.4189 C.ar    1  UNL1        0.0116
     20 C          -5.0231    3.9505   20.7384 C.ar    1  UNL1        0.0651
     21 CL         -5.0505    3.4072   19.3405 Cl      1  UNL1       -0.0820
     22 C           3.7650   -1.6110   18.9130 C.ar    1  UNL1        0.0295
     23 C           3.6732   -3.0840   19.1807 C.ar    1  UNL1        0.0070
     24 C           4.9635   -3.7150   18.7483 C.ar    1  UNL1        0.0075
     25 C           5.8528   -2.6320   18.2134 C.ar    1  UNL1        0.0354
     26 S           5.1121   -1.3316   18.3152 S.2     1  UNL1       -0.0864
@<TRIPOS>BOND
     1     1     2    2
     2     2     3    1
     3     3     4    2
     4     4     5   ar
     5     5     6   ar
     6     6    22    1
     7    22    23   ar
     8    23    24   ar
     9    24    25   ar
    10    25    26   ar
    11     6     7   ar
    12     7     8   ar
    13     8     9   ar
    14     9    10    2
    15    10    11    1
    16    11    12    2
    17    12    15    1
    18    15    16   ar
    19    16    17   ar
    20    17    18   ar
    21    18    19   ar
    22    19    20   ar
    23    20    21    1
    24    12    13    1
    25    13    14    2
    26    14     2    1
    27     9     4   ar
    28    14    10    1
    29    26    22   ar
    30    20    15   ar
@<TRIPOS>MOLECULE
*****
 26 30 0 0 0
SMALL
GASTEIGER

@<TRIPOS>ATOM
      1 O           9.1394   -5.3434   20.8519 O.2     1  UNL1       -0.2638
      2 C           7.9750   -4.6175   21.4580 C.2     1  UNL1        0.3160
      3 N           7.0564   -3.8134   20.5865 N.am    1  UNL1       -0.1720
      4 C           5.8920   -3.0875   21.1927 C.ar    1  UNL1        0.0775
      5 C           4.9735   -2.2834   20.3211 C.ar    1  UNL1        0.0172
      6 C           3.8091   -1.5575   20.9273 C.ar    1  UNL1        0.0073
      7 C           3.5634   -1.6358   22.4049 C.ar    1  UNL1        0.0007
      8 C           4.4819   -2.4399   23.2765 C.ar    1  UNL1        0.0051
      9 C           5.6463   -3.1658   22.6703 C.ar    1  UNL1        0.0623
     10 C           6.5649   -3.9699   23.5418 C.2     1  UNL1        0.2419
     11 N           6.5745   -4.2301   25.0190 N.2     1  UNL1       -0.0302
     12 C           7.7448   -5.1168   25.3259 C.2     1  UNL1        0.3765
     13 N           8.4585   -5.4046   24.0383 N.2     1  UNL1       -0.0256
     14 C           7.7292   -4.6958   22.9357 C.2     1  UNL1        0.2907
     15 C           8.1333   -5.6263   26.6822 C.ar    1  UNL1        0.0989
     16 C           8.6608   -4.6773   27.7171 C.ar    1  UNL1        0.0085
     17 C           9.0492   -5.1867   29.0733 C.ar    1  UNL1        0.0003
     18 C           8.9101   -6.6453   29.3948 C.ar    1  UNL1        0.0009
     19 C           8.3825   -7.5943   28.3599 C.ar    1  UNL1        0.0116
     20 C           7.9941   -7.0848   27.0037 C.ar    1  UNL1        0.0651
     21 CL          7.4665   -8.0339   25.9688 Cl      1  UNL1       -0.0820
     22 C           2.8905   -0.7534   20.0558 C.ar    1  UNL1        0.0295
     23 C           3.2750   -0.0333   18.7973 C.ar    1  UNL1        0.0070
     24 C           2.0482    0.6370   18.2535 C.ar    1  UNL1        0.0075
     25 C           0.9055    0.3312   19.1759 C.ar    1  UNL1        0.0354
     26 S           1.4260   -0.5281   20.2897 S.2     1  UNL1       -0.0864
@<TRIPOS>BOND
     1     1     2    2
     2     2     3    1
     3     3     4    2
     4     4     5   ar
     5     5     6   ar
     6     6    22    1
     7    22    23   ar
     8    23    24   ar
     9    24    25   ar
    10    25    26   ar
    11     6     7   ar
    12     7     8   ar
    13     8     9   ar
    14     9    10    2
    15    10    11    1
    16    11    12    2
    17    12    15    1
    18    15    16   ar
    19    16    17   ar
    20    17    18   ar
    21    18    19   ar
    22    19    20   ar
    23    20    21    1
    24    12    13    1
    25    13    14    2
    26    14     2    1
    27     9     4   ar
    28    14    10    1
    29    26    22   ar
    30    20    15   ar
@<TRIPOS>MOLECULE
*****
 26 30 0 0 0
SMALL
GASTEIGER

@<TRIPOS>ATOM
      1 O           8.2784   -6.0039   22.7426 O.2     1  UNL1       -0.2638
      2 C           7.2815   -4.9363   23.0843 C.2     1  UNL1        0.3160
      3 N           6.4898   -4.2736   21.9962 N.am    1  UNL1       -0.1720
      4 C           5.4929   -3.2060   22.3378 C.ar    1  UNL1        0.0775
      5 C           4.7011   -2.5434   21.2497 C.ar    1  UNL1        0.0172
      6 C           3.7043   -1.4759   21.5914 C.ar    1  UNL1        0.0073
      7 C           3.4992   -1.0711   23.0211 C.ar    1  UNL1        0.0007
      8 C           4.2910   -1.7338   24.1092 C.ar    1  UNL1        0.0051
      9 C           5.2878   -2.8012   23.7675 C.ar    1  UNL1        0.0623
     10 C           6.0796   -3.4640   24.8556 C.2     1  UNL1        0.2419
     11 N           6.0937   -3.2757   26.3437 N.2     1  UNL1       -0.0302
     12 C           7.0992   -4.2269   26.9217 C.2     1  UNL1        0.3765
     13 N           7.7066   -5.0030   25.7909 N.2     1  UNL1       -0.0256
     14 C           7.0764   -4.5315   24.5140 C.2     1  UNL1        0.2907
     15 C           7.4380   -4.3758   28.3754 C.ar    1  UNL1        0.0989
     16 C           6.7402   -5.4118   29.2058 C.ar    1  UNL1        0.0085
     17 C           7.0789   -5.5607   30.6594 C.ar    1  UNL1        0.0003
     18 C           8.1154   -4.6734   31.2827 C.ar    1  UNL1        0.0009
     19 C           8.8132   -3.6374   30.4523 C.ar    1  UNL1        0.0116
     20 C           8.4745   -3.4885   28.9987 C.ar    1  UNL1        0.0651
     21 CL          9.1723   -2.4524   28.1682 Cl      1  UNL1       -0.0820
     22 C           2.9125   -0.8131   20.5033 C.ar    1  UNL1        0.0295
     23 C           1.4584   -0.4505   20.5668 C.ar    1  UNL1        0.0070
     24 C           1.0830    0.1901   19.2634 C.ar    1  UNL1        0.0075
     25 C           2.3052    0.2234   18.3944 C.ar    1  UNL1        0.0354
     26 S           3.4359   -0.3966   19.1607 S.2     1  UNL1       -0.0864
@<TRIPOS>BOND
     1     1     2    2
     2     2     3    1
     3     3     4    2
     4     4     5   ar
     5     5     6   ar
     6     6    22    1
     7    22    23   ar
     8    23    24   ar
     9    24    25   ar
    10    25    26   ar
    11     6     7   ar
    12     7     8   ar
    13     8     9   ar
    14     9    10    2
    15    10    11    1
    16    11    12    2
    17    12    15    1
    18    15    16   ar
    19    16    17   ar
    20    17    18   ar
    21    18    19   ar
    22    19    20   ar
    23    20    21    1
    24    12    13    1
    25    13    14    2
    26    14     2    1
    27     9     4   ar
    28    14    10    1
    29    26    22   ar
    30    20    15   ar
@<TRIPOS>MOLECULE
*****
 26 30 0 0 0
SMALL
GASTEIGER

@<TRIPOS>ATOM
      1 O          -0.8196    3.1048   22.4397 O.2     1  UNL1       -0.2638
      2 C           0.2323    2.0860   22.7650 C.2     1  UNL1        0.3160
      3 N           0.8294    1.2493   21.6725 N.am    1  UNL1       -0.1720
      4 C           1.8812    0.2306   21.9978 C.ar    1  UNL1        0.0775
      5 C           2.4783   -0.6061   20.9054 C.ar    1  UNL1        0.0172
      6 C           3.5301   -1.6248   21.2307 C.ar    1  UNL1        0.0073
      7 C           3.9849   -1.8068   22.6485 C.ar    1  UNL1        0.0007
      8 C           3.3878   -0.9702   23.7409 C.ar    1  UNL1        0.0051
      9 C           2.3360    0.0485   23.4156 C.ar    1  UNL1        0.0623
     10 C           1.7389    0.8852   24.5080 C.2     1  UNL1        0.2419
     11 N           1.9858    0.9298   25.9869 N.2     1  UNL1       -0.0302
     12 C           1.0865    1.9762   26.5756 C.2     1  UNL1        0.3765
     13 N           0.2839    2.5782   25.4605 N.2     1  UNL1       -0.0256
     14 C           0.6870    1.9039   24.1827 C.2     1  UNL1        0.2907
     15 C           1.0043    2.3541   28.0249 C.ar    1  UNL1        0.0989
     16 C           1.6114    3.6408   28.5000 C.ar    1  UNL1        0.0085
     17 C           1.5292    4.0187   29.9493 C.ar    1  UNL1        0.0003
     18 C           0.8400    3.1099   30.9234 C.ar    1  UNL1        0.0009
     19 C           0.2329    1.8232   30.4483 C.ar    1  UNL1        0.0116
     20 C           0.3151    1.4453   28.9990 C.ar    1  UNL1        0.0651
     21 CL         -0.2920    0.1585   28.5239 Cl      1  UNL1       -0.0820
     22 C           4.1272   -2.4615   20.1382 C.ar    1  UNL1        0.0295
     23 C           3.9029   -3.9299   19.9296 C.ar    1  UNL1        0.0070
     24 C           4.6906   -4.3526   18.7251 C.ar    1  UNL1        0.0075
     25 C           5.4017   -3.1454   18.1892 C.ar    1  UNL1        0.0354
     26 S           5.0535   -1.9767   19.0626 S.2     1  UNL1       -0.0864
@<TRIPOS>BOND
     1     1     2    2
     2     2     3    1
     3     3     4    2
     4     4     5   ar
     5     5     6   ar
     6     6    22    1
     7    22    23   ar
     8    23    24   ar
     9    24    25   ar
    10    25    26   ar
    11     6     7   ar
    12     7     8   ar
    13     8     9   ar
    14     9    10    2
    15    10    11    1
    16    11    12    2
    17    12    15    1
    18    15    16   ar
    19    16    17   ar
    20    17    18   ar
    21    18    19   ar
    22    19    20   ar
    23    20    21    1
    24    12    13    1
    25    13    14    2
    26    14     2    1
    27     9     4   ar
    28    14    10    1
    29    26    22   ar
    30    20    15   ar
@<TRIPOS>MOLECULE
*****
 26 30 0 0 0
SMALL
GASTEIGER

@<TRIPOS>ATOM
      1 O           1.1017    3.0848   25.2310 O.2     1  UNL1       -0.2638
      2 C           0.9855    2.3559   23.9251 C.2     1  UNL1        0.3160
      3 N           1.9684    1.2773   23.5781 N.am    1  UNL1       -0.1720
      4 C           1.8521    0.5484   22.2722 C.ar    1  UNL1        0.0775
      5 C           2.8350   -0.5303   21.9253 C.ar    1  UNL1        0.0172
      6 C           2.7188   -1.2591   20.6195 C.ar    1  UNL1        0.0073
      7 C           1.6196   -0.9093   19.6606 C.ar    1  UNL1        0.0007
      8 C           0.6367    0.1694   20.0075 C.ar    1  UNL1        0.0051
      9 C           0.7530    0.8982   21.3133 C.ar    1  UNL1        0.0623
     10 C          -0.2299    1.9769   21.6603 C.2     1  UNL1        0.2419
     11 N          -1.4091    2.5360   20.9208 N.2     1  UNL1       -0.0302
     12 C          -2.0216    3.6104   21.7696 C.2     1  UNL1        0.3765
     13 N          -1.2210    3.7153   23.0337 N.2     1  UNL1       -0.0256
     14 C          -0.1137    2.7057   22.9662 C.2     1  UNL1        0.2907
     15 C          -3.2237    4.4352   21.4162 C.ar    1  UNL1        0.0989
     16 C          -3.0839    5.6057   20.4888 C.ar    1  UNL1        0.0085
     17 C          -4.2860    6.4304   20.1355 C.ar    1  UNL1        0.0003
     18 C          -5.6279    6.0845   20.7097 C.ar    1  UNL1        0.0009
     19 C          -5.7677    4.9139   21.6371 C.ar    1  UNL1        0.0116
     20 C          -4.5656    4.0893   21.9904 C.ar    1  UNL1        0.0651
     21 CL         -4.7054    2.9186   22.9179 Cl      1  UNL1       -0.0820
     22 C           3.7017   -2.3378   20.2725 C.ar    1  UNL1        0.0295
     23 C           3.4561   -3.4884   19.3420 C.ar    1  UNL1        0.0070
     24 C           4.7053   -4.3169   19.2895 C.ar    1  UNL1        0.0075
     25 C           5.7231   -3.6784   20.1876 C.ar    1  UNL1        0.0354
     26 S           5.1028   -2.4553   20.7951 S.2     1  UNL1       -0.0864
@<TRIPOS>BOND
     1     1     2    2
     2     2     3    1
     3     3     4    2
     4     4     5   ar
     5     5     6   ar
     6     6    22    1
     7    22    23   ar
     8    23    24   ar
     9    24    25   ar
    10    25    26   ar
    11     6     7   ar
    12     7     8   ar
    13     8     9   ar
    14     9    10    2
    15    10    11    1
    16    11    12    2
    17    12    15    1
    18    15    16   ar
    19    16    17   ar
    20    17    18   ar
    21    18    19   ar
    22    19    20   ar
    23    20    21    1
    24    12    13    1
    25    13    14    2
    26    14     2    1
    27     9     4   ar
    28    14    10    1
    29    26    22   ar
    30    20    15   ar
@<TRIPOS>MOLECULE
*****
 26 30 0 0 0
SMALL
GASTEIGER

@<TRIPOS>ATOM
      1 O           0.2792    2.2710   18.0262 O.2     1  UNL1       -0.2638
      2 C           0.4032    1.9648   19.4894 C.2     1  UNL1        0.3160
      3 N          -0.3436    2.7907   20.4944 N.am    1  UNL1       -0.1720
      4 C          -0.2195    2.4846   21.9576 C.ar    1  UNL1        0.0775
      5 C          -0.9663    3.3105   22.9627 C.ar    1  UNL1        0.0172
      6 C          -0.8422    3.0043   24.4258 C.ar    1  UNL1        0.0073
      7 C           0.0287    1.8722   24.8839 C.ar    1  UNL1        0.0007
      8 C           0.7755    1.0463   23.8789 C.ar    1  UNL1        0.0051
      9 C           0.6514    1.3525   22.4158 C.ar    1  UNL1        0.0623
     10 C           1.3982    0.5265   21.4107 C.2     1  UNL1        0.2419
     11 N           2.3248   -0.6432   21.5625 N.2     1  UNL1       -0.0302
     12 C           2.7734   -1.0600   20.1932 C.2     1  UNL1        0.3765
     13 N           2.1241   -0.1478   19.1951 N.2     1  UNL1       -0.0256
     14 C           1.2741    0.8327   19.9475 C.2     1  UNL1        0.2907
     15 C           3.7075   -2.1905   19.8774 C.ar    1  UNL1        0.0989
     16 C           3.1651   -3.4882   19.3564 C.ar    1  UNL1        0.0085
     17 C           4.0991   -4.6186   19.0406 C.ar    1  UNL1        0.0003
     18 C           5.5755   -4.4513   19.2460 C.ar    1  UNL1        0.0009
     19 C           6.1179   -3.1535   19.7671 C.ar    1  UNL1        0.0116
     20 C           5.1839   -2.0231   20.0828 C.ar    1  UNL1        0.0651
     21 CL          5.7263   -0.7253   20.6039 Cl      1  UNL1       -0.0820
     22 C          -1.5891    3.8302   25.4309 C.ar    1  UNL1        0.0295
     23 C          -3.0804    3.9408   25.5478 C.ar    1  UNL1        0.0070
     24 C          -3.3886    4.8695   26.6847 C.ar    1  UNL1        0.0075
     25 C          -2.0878    5.3328   27.2705 C.ar    1  UNL1        0.0354
     26 S          -0.9756    4.6905   26.4956 S.2     1  UNL1       -0.0864
@<TRIPOS>BOND
     1     1     2    2
     2     2     3    1
     3     3     4    2
     4     4     5   ar
     5     5     6   ar
     6     6    22    1
     7    22    23   ar
     8    23    24   ar
     9    24    25   ar
    10    25    26   ar
    11     6     7   ar
    12     7     8   ar
    13     8     9   ar
    14     9    10    2
    15    10    11    1
    16    11    12    2
    17    12    15    1
    18    15    16   ar
    19    16    17   ar
    20    17    18   ar
    21    18    19   ar
    22    19    20   ar
    23    20    21    1
    24    12    13    1
    25    13    14    2
    26    14     2    1
    27     9     4   ar
    28    14    10    1
    29    26    22   ar
    30    20    15   ar
@<TRIPOS>MOLECULE
*****
 26 30 0 0 0
SMALL
GASTEIGER

@<TRIPOS>ATOM
      1 O           8.3063   -7.4325   24.5059 O.2     1  UNL1       -0.2638
      2 C           7.7551   -6.1208   24.9811 C.2     1  UNL1        0.3160
      3 N           7.6211   -5.8517   26.4506 N.am    1  UNL1       -0.1720
      4 C           7.0700   -4.5400   26.9257 C.ar    1  UNL1        0.0775
      5 C           6.9359   -4.2710   28.3953 C.ar    1  UNL1        0.0172
      6 C           6.3848   -2.9593   28.8703 C.ar    1  UNL1        0.0073
      7 C           5.9677   -1.9167   27.8758 C.ar    1  UNL1        0.0007
      8 C           6.1017   -2.1857   26.4063 C.ar    1  UNL1        0.0051
      9 C           6.6528   -3.4974   25.9312 C.ar    1  UNL1        0.0623
     10 C           6.7869   -3.7665   24.4616 C.2     1  UNL1        0.2419
     11 N           6.4611   -2.9364   23.2555 N.2     1  UNL1       -0.0302
     12 C           6.8110   -3.7351   22.0349 C.2     1  UNL1        0.3765
     13 N           7.3529   -5.0588   22.4868 N.2     1  UNL1       -0.0256
     14 C           7.3380   -5.0782   23.9866 C.2     1  UNL1        0.2907
     15 C           6.6475   -3.2885   20.6123 C.ar    1  UNL1        0.0989
     16 C           7.7710   -2.5808   19.9146 C.ar    1  UNL1        0.0085
     17 C           7.6075   -2.1342   18.4920 C.ar    1  UNL1        0.0003
     18 C           6.3206   -2.3953   17.7671 C.ar    1  UNL1        0.0009
     19 C           5.1971   -3.1031   18.4648 C.ar    1  UNL1        0.0116
     20 C           5.3605   -3.5496   19.8874 C.ar    1  UNL1        0.0651
     21 CL          4.2370   -4.2574   20.5852 Cl      1  UNL1       -0.0820
     22 C           6.2507   -2.6902   30.3399 C.ar    1  UNL1        0.0295
     23 C           6.4903   -3.6783   31.4427 C.ar    1  UNL1        0.0070
     24 C           6.2412   -2.9845   32.7490 C.ar    1  UNL1        0.0075
     25 C           5.8477   -1.5674   32.4536 C.ar    1  UNL1        0.0354
     26 S           5.8536   -1.3856   30.9647 S.2     1  UNL1       -0.0864
@<TRIPOS>BOND
     1     1     2    2
     2     2     3    1
     3     3     4    2
     4     4     5   ar
     5     5     6   ar
     6     6    22    1
     7    22    23   ar
     8    23    24   ar
     9    24    25   ar
    10    25    26   ar
    11     6     7   ar
    12     7     8   ar
    13     8     9   ar
    14     9    10    2
    15    10    11    1
    16    11    12    2
    17    12    15    1
    18    15    16   ar
    19    16    17   ar
    20    17    18   ar
    21    18    19   ar
    22    19    20   ar
    23    20    21    1
    24    12    13    1
    25    13    14    2
    26    14     2    1
    27     9     4   ar
    28    14    10    1
    29    26    22   ar
    30    20    15   ar
@<TRIPOS>MOLECULE
*****
 26 30 0 0 0
SMALL
GASTEIGER

@<TRIPOS>ATOM
      1 O           2.8906    0.5134   27.7077 O.2     1  UNL1       -0.2638
      2 C           2.3784    0.6273   26.3025 C.2     1  UNL1        0.3160
      3 N           3.0490   -0.1314   25.1959 N.am    1  UNL1       -0.1720
      4 C           2.5368   -0.0175   23.7906 C.ar    1  UNL1        0.0775
      5 C           3.2075   -0.7762   22.6841 C.ar    1  UNL1        0.0172
      6 C           2.6952   -0.6623   21.2789 C.ar    1  UNL1        0.0073
      7 C           1.5122    0.2103   20.9803 C.ar    1  UNL1        0.0007
      8 C           0.8415    0.9690   22.0869 C.ar    1  UNL1        0.0051
      9 C           1.3538    0.8551   23.4920 C.ar    1  UNL1        0.0623
     10 C           0.6831    1.6138   24.5987 C.2     1  UNL1        0.2419
     11 N          -0.4930    2.5447   24.6081 N.2     1  UNL1       -0.0302
     12 C          -0.7076    3.0061   26.0191 C.2     1  UNL1        0.3765
     13 N           0.3359    2.3604   26.8817 N.2     1  UNL1       -0.0256
     14 C           1.1954    1.4999   26.0039 C.2     1  UNL1        0.2907
     15 C          -1.7779    3.9480   26.4856 C.ar    1  UNL1        0.0989
     16 C          -3.2137    3.5141   26.4793 C.ar    1  UNL1        0.0085
     17 C          -4.2838    4.4559   26.9458 C.ar    1  UNL1        0.0003
     18 C          -3.9182    5.8317   27.4185 C.ar    1  UNL1        0.0009
     19 C          -2.4823    6.2657   27.4248 C.ar    1  UNL1        0.0116
     20 C          -1.4122    5.3238   26.9583 C.ar    1  UNL1        0.0651
     21 CL          0.0237    5.7577   26.9646 Cl      1  UNL1       -0.0820
     22 C           3.3659   -1.4210   20.1723 C.ar    1  UNL1        0.0295
     23 C           3.7377   -2.8739   20.1986 C.ar    1  UNL1        0.0070
     24 C           4.3841   -3.2108   18.8876 C.ar    1  UNL1        0.0075
     25 C           4.4117   -1.9661   18.0510 C.ar    1  UNL1        0.0354
     26 S           3.7824   -0.8599   18.8450 S.2     1  UNL1       -0.0864
@<TRIPOS>BOND
     1     1     2    2
     2     2     3    1
     3     3     4    2
     4     4     5   ar
     5     5     6   ar
     6     6    22    1
     7    22    23   ar
     8    23    24   ar
     9    24    25   ar
    10    25    26   ar
    11     6     7   ar
    12     7     8   ar
    13     8     9   ar
    14     9    10    2
    15    10    11    1
    16    11    12    2
    17    12    15    1
    18    15    16   ar
    19    16    17   ar
    20    17    18   ar
    21    18    19   ar
    22    19    20   ar
    23    20    21    1
    24    12    13    1
    25    13    14    2
    26    14     2    1
    27     9     4   ar
    28    14    10    1
    29    26    22   ar
    30    20    15   ar
