@<TRIPOS>MOLECULE
*****
 26 29 0 0 0
SMALL
GASTEIGER

@<TRIPOS>ATOM
      1 C         -10.7463  -20.2796   21.6156 C.3     1  UNL1        0.0497
      2 C          -9.9661  -19.1955   22.2983 C.ar    1  UNL1        0.0342
      3 C          -8.5892  -18.7315   21.9253 C.ar    1  UNL1       -0.0031
      4 C          -8.1980  -17.6343   22.8703 C.ar    1  UNL1        0.0155
      5 C          -6.9549  -16.8025   22.9830 C.ar    1  UNL1        0.0308
      6 C          -6.8467  -15.7566   24.0527 C.ar    1  UNL1        0.1402
      7 F          -5.6036  -14.9248   24.1655 F       1  UNL1       -0.2042
      8 C          -7.9817  -15.5425   25.0098 C.ar    1  UNL1        0.0311
      9 C          -9.2249  -16.3743   24.8971 C.ar    1  UNL1        0.0195
     10 C          -9.3330  -17.4202   23.8274 C.ar    1  UNL1        0.0598
     11 N         -10.4257  -18.3850   23.4739 N.ar    1  UNL1       -0.3256
     12 C          -7.7509  -19.2701   20.8041 C.3     1  UNL1        0.0732
     13 C          -6.2544  -19.2298   20.9003 C.ar    1  UNL1        0.0634
     14 C          -5.5629  -19.8295   22.0887 C.ar    1  UNL1        0.0151
     15 C          -4.0666  -19.7892   22.1849 C.ar    1  UNL1        0.0027
     16 C          -3.2617  -19.1493   21.0927 C.ar    1  UNL1        0.0177
     17 C          -1.7654  -19.1091   21.1890 C.ar    1  UNL1        0.0015
     18 C          -0.9605  -18.4692   20.0968 C.ar    1  UNL1        0.0001
     19 C          -1.6521  -17.8696   18.9085 C.ar    1  UNL1        0.0015
     20 C          -3.1484  -17.9098   18.8122 C.ar    1  UNL1        0.0191
     21 C          -3.9532  -18.5497   19.9044 C.ar    1  UNL1        0.0809
     22 N          -5.4496  -18.5900   19.8082 N.ar    1  UNL1       -0.2493
     23 C         -11.7462  -18.5165   24.1731 C.3     1  UNL1        0.1474
     24 C         -12.9942  -17.9971   23.5228 C.2     1  UNL1        0.0732
     25 O         -12.9280  -17.3835   22.1557 O.co2   1  UNL1       -0.5472
     26 O         -14.3085  -18.0914   24.2396 O.co2   1  UNL1       -0.5472
@<TRIPOS>UNITY_ATOM_ATTR
25 1
charge -1
@<TRIPOS>BOND
     1     1     2    1
     2     2     3   ar
     3     3    12    1
     4    12    13    1
     5    13    14   ar
     6    14    15   ar
     7    15    16   ar
     8    16    17   ar
     9    17    18   ar
    10    18    19   ar
    11    19    20   ar
    12    20    21   ar
    13    21    22   ar
    14     3     4   ar
    15     4     5   ar
    16     5     6   ar
    17     6     7    1
    18     6     8   ar
    19     8     9   ar
    20     9    10   ar
    21    10    11   ar
    22    11    23    1
    23    23    24    1
    24    24    25   ar
    25    24    26   ar
    26    11     2   ar
    27    22    13   ar
    28    10     4   ar
    29    21    16   ar
@<TRIPOS>MOLECULE
*****
 26 29 0 0 0
SMALL
GASTEIGER

@<TRIPOS>ATOM
      1 C          -8.7251  -19.9578   19.2383 C.3     1  UNL1        0.0497
      2 C          -8.8946  -19.0936   20.4526 C.ar    1  UNL1        0.0342
      3 C          -8.0165  -19.0999   21.6688 C.ar    1  UNL1       -0.0031
      4 C          -8.5511  -18.0816   22.6318 C.ar    1  UNL1        0.0155
      5 C          -8.0937  -17.6511   23.9939 C.ar    1  UNL1        0.0308
      6 C          -8.8447  -16.5849   24.7350 C.ar    1  UNL1        0.1402
      7 F          -8.3873  -16.1543   26.0970 F       1  UNL1       -0.2042
      8 C         -10.0531  -15.9492   24.1139 C.ar    1  UNL1        0.0311
      9 C         -10.5105  -16.3798   22.7517 C.ar    1  UNL1        0.0195
     10 C          -9.7596  -17.4459   22.0107 C.ar    1  UNL1        0.0598
     11 N          -9.9718  -18.0714   20.6640 N.ar    1  UNL1       -0.3256
     12 C          -6.8149  -19.9715   21.8843 C.3     1  UNL1        0.0732
     13 C          -5.4867  -19.5724   21.3126 C.ar    1  UNL1        0.0634
     14 C          -4.9115  -20.3294   20.1524 C.ar    1  UNL1        0.0151
     15 C          -3.5834  -19.9304   19.5808 C.ar    1  UNL1        0.0027
     16 C          -2.8304  -18.7742   20.1693 C.ar    1  UNL1        0.0177
     17 C          -1.5023  -18.3752   19.5977 C.ar    1  UNL1        0.0015
     18 C          -0.7493  -17.2191   20.1863 C.ar    1  UNL1        0.0001
     19 C          -1.3245  -16.4620   21.3465 C.ar    1  UNL1        0.0015
     20 C          -2.6526  -16.8611   21.9181 C.ar    1  UNL1        0.0191
     21 C          -3.4056  -18.0172   21.3295 C.ar    1  UNL1        0.0809
     22 N          -4.7337  -18.4163   21.9012 N.ar    1  UNL1       -0.2493
     23 C         -11.0687  -17.7339   19.6981 C.3     1  UNL1        0.1474
     24 C         -11.6030  -16.3340   19.6292 C.2     1  UNL1        0.0732
     25 O         -10.7491  -15.2316   19.0763 O.co2   1  UNL1       -0.5472
     26 O         -12.9912  -16.0364   20.1132 O.co2   1  UNL1       -0.5472
@<TRIPOS>UNITY_ATOM_ATTR
25 1
charge -1
@<TRIPOS>BOND
     1     1     2    1
     2     2     3   ar
     3     3    12    1
     4    12    13    1
     5    13    14   ar
     6    14    15   ar
     7    15    16   ar
     8    16    17   ar
     9    17    18   ar
    10    18    19   ar
    11    19    20   ar
    12    20    21   ar
    13    21    22   ar
    14     3     4   ar
    15     4     5   ar
    16     5     6   ar
    17     6     7    1
    18     6     8   ar
    19     8     9   ar
    20     9    10   ar
    21    10    11   ar
    22    11    23    1
    23    23    24    1
    24    24    25   ar
    25    24    26   ar
    26    11     2   ar
    27    22    13   ar
    28    10     4   ar
    29    21    16   ar
@<TRIPOS>MOLECULE
*****
 26 29 0 0 0
SMALL
GASTEIGER

@<TRIPOS>ATOM
      1 C          -9.4527  -18.0660   25.8886 C.3     1  UNL1        0.0497
      2 C          -9.9951  -17.6518   24.5528 C.ar    1  UNL1        0.0342
      3 C          -9.3276  -16.7269   23.5785 C.ar    1  UNL1       -0.0031
      4 C         -10.2202  -16.5933   22.3804 C.ar    1  UNL1        0.0155
      5 C         -10.0803  -15.8134   21.1067 C.ar    1  UNL1        0.0308
      6 C         -11.1595  -15.8758   20.0668 C.ar    1  UNL1        0.1402
      7 F         -11.0198  -15.0961   18.7931 F       1  UNL1       -0.2042
      8 C         -12.3786  -16.7180   20.3006 C.ar    1  UNL1        0.0311
      9 C         -12.5184  -17.4979   21.5743 C.ar    1  UNL1        0.0195
     10 C         -11.4392  -17.4355   22.6141 C.ar    1  UNL1        0.0598
     11 N         -11.3001  -18.0897   23.9568 N.ar    1  UNL1       -0.3256
     12 C          -8.0007  -16.0539   23.7689 C.3     1  UNL1        0.0732
     13 C          -6.7396  -16.7505   23.3511 C.ar    1  UNL1        0.0634
     14 C          -5.4260  -16.3487   23.9534 C.ar    1  UNL1        0.0151
     15 C          -4.1649  -17.0453   23.5357 C.ar    1  UNL1        0.0027
     16 C          -4.2175  -18.1437   22.5155 C.ar    1  UNL1        0.0177
     17 C          -2.9565  -18.8403   22.0977 C.ar    1  UNL1        0.0015
     18 C          -3.0091  -19.9387   21.0776 C.ar    1  UNL1        0.0001
     19 C          -4.3228  -20.3406   20.4753 C.ar    1  UNL1        0.0015
     20 C          -5.5838  -19.6440   20.8930 C.ar    1  UNL1        0.0191
     21 C          -5.5312  -18.5456   21.9131 C.ar    1  UNL1        0.0809
     22 N          -6.7922  -17.8490   22.3310 N.ar    1  UNL1       -0.2493
     23 C         -12.2918  -19.0187   24.5919 C.3     1  UNL1        0.1474
     24 C         -13.6677  -18.5279   24.9328 C.2     1  UNL1        0.0732
     25 O         -14.4838  -17.8071   23.9011 O.co2   1  UNL1       -0.5472
     26 O         -14.2274  -18.7578   26.3053 O.co2   1  UNL1       -0.5472
@<TRIPOS>UNITY_ATOM_ATTR
25 1
charge -1
@<TRIPOS>BOND
     1     1     2    1
     2     2     3   ar
     3     3    12    1
     4    12    13    1
     5    13    14   ar
     6    14    15   ar
     7    15    16   ar
     8    16    17   ar
     9    17    18   ar
    10    18    19   ar
    11    19    20   ar
    12    20    21   ar
    13    21    22   ar
    14     3     4   ar
    15     4     5   ar
    16     5     6   ar
    17     6     7    1
    18     6     8   ar
    19     8     9   ar
    20     9    10   ar
    21    10    11   ar
    22    11    23    1
    23    23    24    1
    24    24    25   ar
    25    24    26   ar
    26    11     2   ar
    27    22    13   ar
    28    10     4   ar
    29    21    16   ar
@<TRIPOS>MOLECULE
*****
 26 29 0 0 0
SMALL
GASTEIGER

@<TRIPOS>ATOM
      1 C          -8.0238  -16.7931   23.5056 C.3     1  UNL1        0.0497
      2 C          -8.3799  -17.6477   22.3253 C.ar    1  UNL1        0.0342
      3 C          -7.5869  -18.8110   21.8077 C.ar    1  UNL1       -0.0031
      4 C          -8.3086  -19.3712   20.6180 C.ar    1  UNL1        0.0155
      5 C          -7.9975  -20.5198   19.7047 C.ar    1  UNL1        0.0308
      6 C          -8.9254  -20.8513   18.5738 C.ar    1  UNL1        0.1402
      7 F          -8.6145  -21.9998   17.6605 F       1  UNL1       -0.2042
      8 C         -10.1644  -20.0343   18.3561 C.ar    1  UNL1        0.0311
      9 C         -10.4755  -18.8856   19.2694 C.ar    1  UNL1        0.0195
     10 C          -9.5475  -18.5542   20.4003 C.ar    1  UNL1        0.0598
     11 N          -9.5916  -17.4890   21.4555 N.ar    1  UNL1       -0.3256
     12 C          -6.2985  -19.3240   22.3794 C.3     1  UNL1        0.0732
     13 C          -5.0095  -19.0959   21.6469 C.ar    1  UNL1        0.0634
     14 C          -4.5850  -20.0424   20.5634 C.ar    1  UNL1        0.0151
     15 C          -3.2960  -19.8143   19.8309 C.ar    1  UNL1        0.0027
     16 C          -2.4315  -18.6398   20.1819 C.ar    1  UNL1        0.0177
     17 C          -1.1426  -18.4118   19.4495 C.ar    1  UNL1        0.0015
     18 C          -0.2781  -17.2373   19.8005 C.ar    1  UNL1        0.0001
     19 C          -0.7026  -16.2909   20.8841 C.ar    1  UNL1        0.0015
     20 C          -1.9916  -16.5189   21.6165 C.ar    1  UNL1        0.0191
     21 C          -2.8560  -17.6934   21.2655 C.ar    1  UNL1        0.0809
     22 N          -4.1451  -17.9215   21.9980 N.ar    1  UNL1       -0.2493
     23 C         -10.6599  -16.4479   21.6132 C.3     1  UNL1        0.1474
     24 C         -11.3842  -15.9277   20.4070 C.2     1  UNL1        0.0732
     25 O         -10.6521  -15.1029   19.3904 O.co2   1  UNL1       -0.5472
     26 O         -12.8407  -16.2325   20.2175 O.co2   1  UNL1       -0.5472
@<TRIPOS>UNITY_ATOM_ATTR
25 1
charge -1
@<TRIPOS>BOND
     1     1     2    1
     2     2     3   ar
     3     3    12    1
     4    12    13    1
     5    13    14   ar
     6    14    15   ar
     7    15    16   ar
     8    16    17   ar
     9    17    18   ar
    10    18    19   ar
    11    19    20   ar
    12    20    21   ar
    13    21    22   ar
    14     3     4   ar
    15     4     5   ar
    16     5     6   ar
    17     6     7    1
    18     6     8   ar
    19     8     9   ar
    20     9    10   ar
    21    10    11   ar
    22    11    23    1
    23    23    24    1
    24    24    25   ar
    25    24    26   ar
    26    11     2   ar
    27    22    13   ar
    28    10     4   ar
    29    21    16   ar
@<TRIPOS>MOLECULE
*****
 26 29 0 0 0
SMALL
GASTEIGER

@<TRIPOS>ATOM
      1 C          -8.2884  -16.6097   23.6790 C.3     1  UNL1        0.0497
      2 C          -8.5421  -17.4907   22.4918 C.ar    1  UNL1        0.0342
      3 C          -7.6868  -18.6404   22.0481 C.ar    1  UNL1       -0.0031
      4 C          -8.3117  -19.2369   20.8219 C.ar    1  UNL1        0.0155
      5 C          -7.9107  -20.3903   19.9509 C.ar    1  UNL1        0.0308
      6 C          -8.7512  -20.7628   18.7656 C.ar    1  UNL1        0.1402
      7 F          -8.3502  -21.9162   17.8945 F       1  UNL1       -0.2042
      8 C          -9.9927  -19.9818   18.4514 C.ar    1  UNL1        0.0311
      9 C         -10.3938  -18.8283   19.3225 C.ar    1  UNL1        0.0195
     10 C          -9.5533  -18.4559   20.5077 C.ar    1  UNL1        0.0598
     11 N          -9.6956  -17.3767   21.5397 N.ar    1  UNL1       -0.3256
     12 C          -6.4276  -19.1109   22.7138 C.3     1  UNL1        0.0732
     13 C          -5.1020  -18.5481   22.2940 C.ar    1  UNL1        0.0634
     14 C          -4.3358  -17.6579   23.2270 C.ar    1  UNL1        0.0151
     15 C          -3.0102  -17.0952   22.8073 C.ar    1  UNL1        0.0027
     16 C          -2.4508  -17.4227   21.4546 C.ar    1  UNL1        0.0177
     17 C          -1.1252  -16.8600   21.0349 C.ar    1  UNL1        0.0015
     18 C          -0.5658  -17.1876   19.6822 C.ar    1  UNL1        0.0001
     19 C          -1.3320  -18.0778   18.7493 C.ar    1  UNL1        0.0015
     20 C          -2.6575  -18.6405   19.1690 C.ar    1  UNL1        0.0191
     21 C          -3.2169  -18.3130   20.5216 C.ar    1  UNL1        0.0809
     22 N          -4.5426  -18.8757   20.9414 N.ar    1  UNL1       -0.2493
     23 C         -10.7980  -16.3617   21.6078 C.3     1  UNL1        0.1474
     24 C         -11.4555  -15.8829   20.3475 C.2     1  UNL1        0.0732
     25 O         -10.6592  -15.1242   19.3276 O.co2   1  UNL1       -0.5472
     26 O         -12.9094  -16.1628   20.1071 O.co2   1  UNL1       -0.5472
@<TRIPOS>UNITY_ATOM_ATTR
25 1
charge -1
@<TRIPOS>BOND
     1     1     2    1
     2     2     3   ar
     3     3    12    1
     4    12    13    1
     5    13    14   ar
     6    14    15   ar
     7    15    16   ar
     8    16    17   ar
     9    17    18   ar
    10    18    19   ar
    11    19    20   ar
    12    20    21   ar
    13    21    22   ar
    14     3     4   ar
    15     4     5   ar
    16     5     6   ar
    17     6     7    1
    18     6     8   ar
    19     8     9   ar
    20     9    10   ar
    21    10    11   ar
    22    11    23    1
    23    23    24    1
    24    24    25   ar
    25    24    26   ar
    26    11     2   ar
    27    22    13   ar
    28    10     4   ar
    29    21    16   ar
@<TRIPOS>MOLECULE
*****
 26 29 0 0 0
SMALL
GASTEIGER

@<TRIPOS>ATOM
      1 C          -5.3500  -17.0064   23.4821 C.3     1  UNL1        0.0497
      2 C          -6.8174  -17.1469   23.2046 C.ar    1  UNL1        0.0342
      3 C          -7.4566  -18.2042   22.3539 C.ar    1  UNL1       -0.0031
      4 C          -8.9375  -17.9655   22.3526 C.ar    1  UNL1        0.0155
      5 C         -10.0702  -18.6896   21.6873 C.ar    1  UNL1        0.0308
      6 C         -11.4790  -18.2089   21.8719 C.ar    1  UNL1        0.1402
      7 F         -12.6118  -18.9329   21.2067 F       1  UNL1       -0.2042
      8 C         -11.7552  -17.0041   22.7218 C.ar    1  UNL1        0.0311
      9 C         -10.6223  -16.2800   23.3872 C.ar    1  UNL1        0.0195
     10 C          -9.2136  -16.7607   23.2025 C.ar    1  UNL1        0.0598
     11 N          -7.9033  -16.2548   23.7291 N.ar    1  UNL1       -0.3256
     12 C          -6.7406  -19.3066   21.6313 C.3     1  UNL1        0.0732
     13 C          -5.2722  -19.1881   21.3487 C.ar    1  UNL1        0.0634
     14 C          -4.2747  -19.7675   22.3076 C.ar    1  UNL1        0.0151
     15 C          -2.8064  -19.6490   22.0250 C.ar    1  UNL1        0.0027
     16 C          -2.3354  -18.9512   20.7836 C.ar    1  UNL1        0.0177
     17 C          -0.8671  -18.8327   20.5010 C.ar    1  UNL1        0.0015
     18 C          -0.3961  -18.1348   19.2596 C.ar    1  UNL1        0.0001
     19 C          -1.3936  -17.5554   18.3007 C.ar    1  UNL1        0.0015
     20 C          -2.8619  -17.6739   18.5833 C.ar    1  UNL1        0.0191
     21 C          -3.3328  -18.3717   19.8247 C.ar    1  UNL1        0.0809
     22 N          -4.8012  -18.4902   20.1073 N.ar    1  UNL1       -0.2493
     23 C          -7.7124  -15.0656   24.6231 C.3     1  UNL1        0.1474
     24 C          -7.3670  -15.2624   26.0695 C.2     1  UNL1        0.0732
     25 O          -5.9302  -15.3208   26.4963 O.co2   1  UNL1       -0.5472
     26 O          -8.4585  -15.4008   27.0891 O.co2   1  UNL1       -0.5472
@<TRIPOS>UNITY_ATOM_ATTR
25 1
charge -1
@<TRIPOS>BOND
     1     1     2    1
     2     2     3   ar
     3     3    12    1
     4    12    13    1
     5    13    14   ar
     6    14    15   ar
     7    15    16   ar
     8    16    17   ar
     9    17    18   ar
    10    18    19   ar
    11    19    20   ar
    12    20    21   ar
    13    21    22   ar
    14     3     4   ar
    15     4     5   ar
    16     5     6   ar
    17     6     7    1
    18     6     8   ar
    19     8     9   ar
    20     9    10   ar
    21    10    11   ar
    22    11    23    1
    23    23    24    1
    24    24    25   ar
    25    24    26   ar
    26    11     2   ar
    27    22    13   ar
    28    10     4   ar
    29    21    16   ar
@<TRIPOS>MOLECULE
*****
 26 29 0 0 0
SMALL
GASTEIGER

@<TRIPOS>ATOM
      1 C         -16.8015   -6.0383   19.5077 C.3     1  UNL1        0.0497
      2 C         -15.3305   -6.1500   19.2362 C.ar    1  UNL1        0.0342
      3 C         -14.2737   -5.1897   19.6955 C.ar    1  UNL1       -0.0031
      4 C         -12.9481   -5.6878   19.2009 C.ar    1  UNL1        0.0155
      5 C         -11.5554   -5.1505   19.3483 C.ar    1  UNL1        0.0308
      6 C         -10.4003   -5.8813   18.7307 C.ar    1  UNL1        0.1402
      7 F          -9.0076   -5.3440   18.8780 F       1  UNL1       -0.2042
      8 C         -10.6378   -7.1496   17.9657 C.ar    1  UNL1        0.0311
      9 C         -12.0305   -7.6869   17.8183 C.ar    1  UNL1        0.0195
     10 C         -13.1856   -6.9561   18.4359 C.ar    1  UNL1        0.0598
     11 N         -14.6580   -7.2417   18.4577 N.ar    1  UNL1       -0.3256
     12 C         -14.5023   -3.9490   20.5070 C.3     1  UNL1        0.0732
     13 C         -14.4663   -2.6031   19.8456 C.ar    1  UNL1        0.0634
     14 C         -15.6703   -1.7099   19.8968 C.ar    1  UNL1        0.0151
     15 C         -15.6343   -0.3640   19.2355 C.ar    1  UNL1        0.0027
     16 C         -14.3943    0.0887   18.5231 C.ar    1  UNL1        0.0177
     17 C         -14.3583    1.4346   17.8618 C.ar    1  UNL1        0.0015
     18 C         -13.1183    1.8873   17.1495 C.ar    1  UNL1        0.0001
     19 C         -11.9143    0.9941   17.0984 C.ar    1  UNL1        0.0015
     20 C         -11.9503   -0.3518   17.7596 C.ar    1  UNL1        0.0191
     21 C         -13.1903   -0.8044   18.4720 C.ar    1  UNL1        0.0809
     22 N         -13.2263   -2.1504   19.1333 N.ar    1  UNL1       -0.2493
     23 C         -15.3385   -8.4133   17.8141 C.3     1  UNL1        0.1474
     24 C         -15.5652   -9.6722   18.5975 C.2     1  UNL1        0.0732
     25 O         -15.1430  -10.9950   18.0300 O.co2   1  UNL1       -0.5472
     26 O         -16.2141   -9.6084   19.9483 O.co2   1  UNL1       -0.5472
@<TRIPOS>UNITY_ATOM_ATTR
25 1
charge -1
@<TRIPOS>BOND
     1     1     2    1
     2     2     3   ar
     3     3    12    1
     4    12    13    1
     5    13    14   ar
     6    14    15   ar
     7    15    16   ar
     8    16    17   ar
     9    17    18   ar
    10    18    19   ar
    11    19    20   ar
    12    20    21   ar
    13    21    22   ar
    14     3     4   ar
    15     4     5   ar
    16     5     6   ar
    17     6     7    1
    18     6     8   ar
    19     8     9   ar
    20     9    10   ar
    21    10    11   ar
    22    11    23    1
    23    23    24    1
    24    24    25   ar
    25    24    26   ar
    26    11     2   ar
    27    22    13   ar
    28    10     4   ar
    29    21    16   ar
@<TRIPOS>MOLECULE
*****
 26 29 0 0 0
SMALL
GASTEIGER

@<TRIPOS>ATOM
      1 C         -15.6403   -1.4065   18.8440 C.3     1  UNL1        0.0497
      2 C         -14.3207   -2.1051   18.7002 C.ar    1  UNL1        0.0342
      3 C         -13.9151   -3.3741   19.3895 C.ar    1  UNL1       -0.0031
      4 C         -12.5187   -3.7106   18.9571 C.ar    1  UNL1        0.0155
      5 C         -11.6046   -4.8460   19.3109 C.ar    1  UNL1        0.0308
      6 C         -10.2331   -4.9205   18.7080 C.ar    1  UNL1        0.1402
      7 F          -9.3190   -6.0559   19.0617 F       1  UNL1       -0.2042
      8 C          -9.7757   -3.8595   17.7514 C.ar    1  UNL1        0.0311
      9 C         -10.6899   -2.7239   17.3977 C.ar    1  UNL1        0.0195
     10 C         -12.0613   -2.6496   18.0006 C.ar    1  UNL1        0.0598
     11 N         -13.1750   -1.6573   17.8418 N.ar    1  UNL1       -0.3256
     12 C         -14.7579   -4.1674   20.3437 C.3     1  UNL1        0.0732
     13 C         -15.6612   -5.2477   19.8269 C.ar    1  UNL1        0.0634
     14 C         -17.1063   -4.9509   19.5555 C.ar    1  UNL1        0.0151
     15 C         -18.0096   -6.0310   19.0387 C.ar    1  UNL1        0.0027
     16 C         -17.4678   -7.4081   18.7931 C.ar    1  UNL1        0.0177
     17 C         -18.3711   -8.4883   18.2762 C.ar    1  UNL1        0.0015
     18 C         -17.8293   -9.8653   18.0307 C.ar    1  UNL1        0.0001
     19 C         -16.3842  -10.1621   18.3021 C.ar    1  UNL1        0.0015
     20 C         -15.4809   -9.0819   18.8189 C.ar    1  UNL1        0.0191
     21 C         -16.0227   -7.7049   19.0644 C.ar    1  UNL1        0.0809
     22 N         -15.1194   -6.6246   19.5813 N.ar    1  UNL1       -0.2493
     23 C         -13.1478   -0.4324   16.9765 C.3     1  UNL1        0.1474
     24 C         -12.8159    0.9020   17.5758 C.2     1  UNL1        0.0732
     25 O         -13.5299    1.3685   18.8097 O.co2   1  UNL1       -0.5472
     26 O         -11.7699    1.7699   16.9412 O.co2   1  UNL1       -0.5472
@<TRIPOS>UNITY_ATOM_ATTR
25 1
charge -1
@<TRIPOS>BOND
     1     1     2    1
     2     2     3   ar
     3     3    12    1
     4    12    13    1
     5    13    14   ar
     6    14    15   ar
     7    15    16   ar
     8    16    17   ar
     9    17    18   ar
    10    18    19   ar
    11    19    20   ar
    12    20    21   ar
    13    21    22   ar
    14     3     4   ar
    15     4     5   ar
    16     5     6   ar
    17     6     7    1
    18     6     8   ar
    19     8     9   ar
    20     9    10   ar
    21    10    11   ar
    22    11    23    1
    23    23    24    1
    24    24    25   ar
    25    24    26   ar
    26    11     2   ar
    27    22    13   ar
    28    10     4   ar
    29    21    16   ar
@<TRIPOS>MOLECULE
*****
 26 29 0 0 0
SMALL
GASTEIGER

@<TRIPOS>ATOM
      1 C         -13.4144   -8.0244   18.3994 C.3     1  UNL1        0.0497
      2 C         -14.6095   -7.1716   18.7069 C.ar    1  UNL1        0.0342
      3 C         -14.6009   -5.8892   19.4849 C.ar    1  UNL1       -0.0031
      4 C         -16.0091   -5.3766   19.5492 C.ar    1  UNL1        0.0155
      5 C         -16.6046   -4.1553   20.1846 C.ar    1  UNL1        0.0308
      6 C         -18.0791   -3.8996   20.0817 C.ar    1  UNL1        0.1402
      7 F         -18.6746   -2.6783   20.7171 F       1  UNL1       -0.2042
      8 C         -18.9580   -4.8652   19.3434 C.ar    1  UNL1        0.0311
      9 C         -18.3625   -6.0865   18.7080 C.ar    1  UNL1        0.0195
     10 C         -16.8881   -6.3422   18.8109 C.ar    1  UNL1        0.0598
     11 N         -16.0230   -7.4516   18.2903 N.ar    1  UNL1       -0.3256
     12 C         -13.3957   -5.2343   20.0921 C.3     1  UNL1        0.0732
     13 C         -12.7240   -4.0955   19.3835 C.ar    1  UNL1        0.0634
     14 C         -11.3505   -4.2758   18.8080 C.ar    1  UNL1        0.0151
     15 C         -10.6788   -3.1371   18.0994 C.ar    1  UNL1        0.0027
     16 C         -11.3806   -1.8181   17.9662 C.ar    1  UNL1        0.0177
     17 C         -10.7089   -0.6794   17.2576 C.ar    1  UNL1        0.0015
     18 C         -11.4106    0.6396   17.1245 C.ar    1  UNL1        0.0001
     19 C         -12.7841    0.8199   17.6999 C.ar    1  UNL1        0.0015
     20 C         -13.4558   -0.3188   18.4085 C.ar    1  UNL1        0.0191
     21 C         -12.7540   -1.6378   18.5417 C.ar    1  UNL1        0.0809
     22 N         -13.4257   -2.7766   19.2503 N.ar    1  UNL1       -0.2493
     23 C         -16.4896   -8.6334   17.4932 C.3     1  UNL1        0.1474
     24 C         -16.6536   -9.9684   18.1571 C.2     1  UNL1        0.0732
     25 O         -15.4968  -10.9210   18.2219 O.co2   1  UNL1       -0.5472
     26 O         -17.9745  -10.3509   18.7563 O.co2   1  UNL1       -0.5472
@<TRIPOS>UNITY_ATOM_ATTR
25 1
charge -1
@<TRIPOS>BOND
     1     1     2    1
     2     2     3   ar
     3     3    12    1
     4    12    13    1
     5    13    14   ar
     6    14    15   ar
     7    15    16   ar
     8    16    17   ar
     9    17    18   ar
    10    18    19   ar
    11    19    20   ar
    12    20    21   ar
    13    21    22   ar
    14     3     4   ar
    15     4     5   ar
    16     5     6   ar
    17     6     7    1
    18     6     8   ar
    19     8     9   ar
    20     9    10   ar
    21    10    11   ar
    22    11    23    1
    23    23    24    1
    24    24    25   ar
    25    24    26   ar
    26    11     2   ar
    27    22    13   ar
    28    10     4   ar
    29    21    16   ar
