@<TRIPOS>MOLECULE
*****
 43 46 0 0 0
SMALL
GASTEIGER

@<TRIPOS>ATOM
      1 C           3.9945   -1.0547   27.0502 C.3     1  UNL1        0.0943
      2 C           2.8593   -0.8005   27.9971 C.3     1  UNL1        0.1163
      3 N           3.1286   -0.2100   29.3493 N.am    1  UNL1       -0.2443
      4 C           1.9933    0.0442   30.2963 C.2     1  UNL1        0.4047
      5 O           2.2626    0.6348   31.6486 O.2     1  UNL1       -0.2262
      6 C           4.5330    0.1264   29.7547 C.3     1  UNL1        0.0969
      7 C           5.6682   -0.1277   28.8078 C.3     1  UNL1        0.0247
      8 C           5.3990   -0.7183   27.4556 C.3     1  UNL1        0.0374
      9 N           3.3786   -1.3459   23.1404 N.am    1  UNL1       -0.2485
     10 C           3.6478   -0.7554   24.4928 C.2     1  UNL1        0.3059
     11 O           3.8395    0.7251   24.6401 O.2     1  UNL1       -0.2524
     12 N           3.7253   -1.6452   25.6978 N.am    1  UNL1       -0.2885
     13 H           3.2528   -2.3175   23.0438 H       1  UNL1        0.1583
     14 H           3.5995   -2.6169   25.6011 H       1  UNL1        0.1510
     15 C           2.4339    0.8574   20.0878 C.ar    1  UNL1        0.0803
     16 S           2.0455   -0.0235   21.2380 S.2     1  UNL1       -0.0488
     17 C           3.3011   -0.4560   21.9354 C.ar    1  UNL1        0.1664
     18 N           4.4656    0.1576   21.2161 N.ar    1  UNL1       -0.2282
     19 C           3.9297    0.9694   20.0742 C.ar    1  UNL1        0.0701
     20 C           4.7462    1.7551   19.0914 C.3     1  UNL1        0.0528
     21 C           1.2388    2.9876   19.2027 C.3     1  UNL1        0.0779
     22 C           1.4920    1.5115   19.1208 C.2     1  UNL1        0.1807
     23 O           0.8034    0.6894   18.0721 O.2     1  UNL1       -0.2908
     24 O           0.5889   -0.2922   29.8909 O.3     1  UNL1       -0.4418
     25 C          -0.1664    0.6228   28.9732 C.3     1  UNL1        0.1378
     26 C          -0.9835   -0.5379   28.4884 C.3     1  UNL1        0.0437
     27 C           0.6507    1.7835   29.4579 C.3     1  UNL1        0.0437
     28 C          -0.9217    1.5379   28.0554 C.3     1  UNL1        0.0437
     29 C           6.5342   -0.9725   26.5086 C.3     1  UNL1        0.0738
     30 N           6.7414   -2.3437   25.9370 N.3     1  UNL1       -0.2726
     31 C           6.6079   -3.5512   26.8170 C.3     1  UNL1        0.0721
     32 C           6.8150   -4.9224   26.2454 C.3     1  UNL1        0.0174
     33 C           7.1556   -5.0863   24.7937 C.3     1  UNL1        0.0031
     34 C           7.2890   -3.8789   23.9138 C.3     1  UNL1        0.0204
     35 C           7.0819   -2.5076   24.4854 C.3     1  UNL1        0.0724
     36 C           7.6296   -4.0427   22.4621 C.3     1  UNL1        0.0277
     37 C           6.6465   -3.6244   21.4093 C.ar    1  UNL1       -0.0220
     38 C           7.1063   -2.8152   20.2329 C.ar    1  UNL1       -0.0020
     39 C           6.1232   -2.3968   19.1800 C.ar    1  UNL1        0.0293
     40 C           4.6803   -2.7877   19.3036 C.ar    1  UNL1        0.1401
     41 F           3.6971   -2.3693   18.2507 F       1  UNL1       -0.2042
     42 C           4.2205   -3.5968   20.4799 C.ar    1  UNL1        0.0293
     43 C           5.2036   -4.0152   21.5328 C.ar    1  UNL1       -0.0020
@<TRIPOS>BOND
     1    21    22    1
     2    22    23    2
     3    22    15    1
     4    15    16   ar
     5    16    17   ar
     6    17     9    1
     7     9    10   am
     8    10    11    2
     9    10    12   am
    10     1    12    1
    11     1     2    1
    12     2     3    1
    13     3     4   am
    14     4     5    2
    15     4    24    1
    16    24    25    1
    17    25    26    1
    18    25    27    1
    19    25    28    1
    20     3     6    1
    21     6     7    1
    22     7     8    1
    23     8    29    1
    24    29    30    1
    25    30    31    1
    26    31    32    1
    27    32    33    1
    28    33    34    1
    29    34    36    1
    30    36    37    1
    31    37    38   ar
    32    38    39   ar
    33    39    40   ar
    34    40    41    1
    35    40    42   ar
    36    42    43   ar
    37    34    35    1
    38    17    18   ar
    39    18    19   ar
    40    19    20    1
    41    19    15   ar
    42     8     1    1
    43    35    30    1
    44    43    37   ar
    45     9    13    1
    46    12    14    1
@<TRIPOS>MOLECULE
*****
 43 46 0 0 0
SMALL
GASTEIGER

@<TRIPOS>ATOM
      1 C           0.9718    3.0242   21.0646 C.3     1  UNL1        0.0943
      2 C           1.9899    1.9955   20.6705 C.3     1  UNL1        0.1163
      3 N           2.0008    1.4475   19.2743 N.am    1  UNL1       -0.2443
      4 C           3.0189    0.4188   18.8803 C.2     1  UNL1        0.4047
      5 O           3.0297   -0.1293   17.4840 O.2     1  UNL1       -0.2262
      6 C           0.9935    1.9281   18.2721 C.3     1  UNL1        0.0969
      7 C          -0.0246    2.9567   18.6661 C.3     1  UNL1        0.0247
      8 C          -0.0355    3.5048   20.0623 C.3     1  UNL1        0.0374
      9 N           0.7881    3.1935   25.0253 N.am    1  UNL1       -0.2485
     10 C           0.7990    2.6455   23.6291 C.2     1  UNL1        0.3059
     11 O           0.6478    1.1706   23.4011 O.2     1  UNL1       -0.2524
     12 N           0.9610    3.5723   22.4608 N.am    1  UNL1       -0.2885
     13 H           0.8873    4.1615   25.1750 H       1  UNL1        0.1583
     14 H           1.0601    4.5403   22.6105 H       1  UNL1        0.1510
     15 C           1.1181    0.8540   28.1048 C.ar    1  UNL1        0.0803
     16 S           1.7302    1.7438   27.0639 S.2     1  UNL1       -0.0488
     17 C           0.6261    2.2667   26.1936 C.ar    1  UNL1        0.1664
     18 N          -0.6684    1.7002   26.6967 N.ar    1  UNL1       -0.2282
     19 C          -0.3644    0.8271   27.8779 C.ar    1  UNL1        0.0701
     20 C          -1.3669    0.0614   28.6896 C.3     1  UNL1        0.0528
     21 C           3.0053   -0.7787   28.8275 C.3     1  UNL1        0.0779
     22 C           1.8584    0.1201   29.1834 C.2     1  UNL1        0.1807
     23 O           1.4519    0.2850   30.6177 O.2     1  UNL1       -0.2908
     24 O           4.0262   -0.0618   19.8825 O.3     1  UNL1       -0.4418
     25 C           4.2422   -1.5326   20.0825 C.3     1  UNL1        0.1378
     26 C           2.8870   -1.6456   20.7153 C.3     1  UNL1        0.0437
     27 C           5.5975   -1.4196   19.4497 C.3     1  UNL1        0.0437
     28 C           4.4583   -3.0035   20.2826 C.3     1  UNL1        0.0437
     29 C          -1.0536    4.5335   20.4564 C.3     1  UNL1        0.0738
     30 N          -2.4821    4.1304   20.6727 N.3     1  UNL1       -0.2726
     31 C          -3.4567    4.1820   19.5335 C.3     1  UNL1        0.0721
     32 C          -4.8852    3.7788   19.7498 C.3     1  UNL1        0.0174
     33 C          -5.3392    3.3241   21.1052 C.3     1  UNL1        0.0031
     34 C          -4.3647    3.2726   22.2443 C.3     1  UNL1        0.0204
     35 C          -2.9362    3.6757   22.0281 C.3     1  UNL1        0.0724
     36 C          -4.8187    2.8179   23.5998 C.3     1  UNL1        0.0277
     37 C          -5.2182    3.8275   24.6347 C.ar    1  UNL1       -0.0220
     38 C          -6.3699    4.7527   24.3744 C.ar    1  UNL1       -0.0020
     39 C          -6.7695    5.7624   25.4093 C.ar    1  UNL1        0.0293
     40 C          -6.0173    5.8469   26.7044 C.ar    1  UNL1        0.1401
     41 F          -6.4168    6.8566   27.7392 F       1  UNL1       -0.2042
     42 C          -4.8656    4.9217   26.9645 C.ar    1  UNL1        0.0293
     43 C          -4.4661    3.9121   25.9297 C.ar    1  UNL1       -0.0020
@<TRIPOS>BOND
     1    21    22    1
     2    22    23    2
     3    22    15    1
     4    15    16   ar
     5    16    17   ar
     6    17     9    1
     7     9    10   am
     8    10    11    2
     9    10    12   am
    10     1    12    1
    11     1     2    1
    12     2     3    1
    13     3     4   am
    14     4     5    2
    15     4    24    1
    16    24    25    1
    17    25    26    1
    18    25    27    1
    19    25    28    1
    20     3     6    1
    21     6     7    1
    22     7     8    1
    23     8    29    1
    24    29    30    1
    25    30    31    1
    26    31    32    1
    27    32    33    1
    28    33    34    1
    29    34    36    1
    30    36    37    1
    31    37    38   ar
    32    38    39   ar
    33    39    40   ar
    34    40    41    1
    35    40    42   ar
    36    42    43   ar
    37    34    35    1
    38    17    18   ar
    39    18    19   ar
    40    19    20    1
    41    19    15   ar
    42     8     1    1
    43    35    30    1
    44    43    37   ar
    45     9    13    1
    46    12    14    1
@<TRIPOS>MOLECULE
*****
 43 46 0 0 0
SMALL
GASTEIGER

@<TRIPOS>ATOM
      1 C           0.6003    1.7243   25.5839 C.3     1  UNL1        0.0943
      2 C          -0.7848    2.2472   25.3430 C.3     1  UNL1        0.1163
      3 N          -1.0032    3.3761   24.3797 N.am    1  UNL1       -0.2443
      4 C          -2.3883    3.8990   24.1387 C.2     1  UNL1        0.4047
      5 O          -2.6067    5.0279   23.1754 O.2     1  UNL1       -0.2262
      6 C           0.1635    3.9821   23.6574 C.3     1  UNL1        0.0969
      7 C           1.5486    3.4592   23.8984 C.3     1  UNL1        0.0247
      8 C           1.7670    2.3303   24.8617 C.3     1  UNL1        0.0374
      9 N           1.5677   -0.2541   28.8855 N.am    1  UNL1       -0.2485
     10 C           1.3492    0.8748   27.9222 C.2     1  UNL1        0.3059
     11 O           1.6612    2.2831   28.3339 O.2     1  UNL1       -0.2524
     12 N           0.8188    0.5954   26.5472 N.am    1  UNL1       -0.2885
     13 H           1.3629   -1.1783   28.6153 H       1  UNL1        0.1583
     14 H           0.6140   -0.3289   26.2770 H       1  UNL1        0.1510
     15 C           3.3673   -0.1401   32.3227 C.ar    1  UNL1        0.0803
     16 S           3.1427   -0.7738   30.9818 S.2     1  UNL1       -0.0488
     17 C           2.0981    0.0253   30.2605 C.ar    1  UNL1        0.1664
     18 N           1.6771    1.1529   31.1556 N.ar    1  UNL1       -0.2282
     19 C           2.4615    1.0507   32.4301 C.ar    1  UNL1        0.0701
     20 C           2.3582    1.9766   33.6057 C.3     1  UNL1        0.0528
     21 C           5.6236    0.1124   33.5855 C.3     1  UNL1        0.0779
     22 C           4.3288   -0.6141   33.3719 C.2     1  UNL1        0.1807
     23 O           3.9955   -1.8143   34.2073 O.2     1  UNL1       -0.2908
     24 O          -3.5550    3.2930   24.8610 O.3     1  UNL1       -0.4418
     25 C          -4.5653    4.1779   25.5290 C.3     1  UNL1        0.1378
     26 C          -5.5155    3.9525   24.3905 C.3     1  UNL1        0.0437
     27 C          -3.6150    4.4032   26.6675 C.3     1  UNL1        0.0437
     28 C          -5.5756    5.0627   26.1972 C.3     1  UNL1        0.0437
     29 C           3.1521    1.8074   25.1027 C.3     1  UNL1        0.0738
     30 N           3.5455    0.4574   24.5803 N.3     1  UNL1       -0.2726
     31 C           4.2204   -0.5297   25.4860 C.3     1  UNL1        0.0721
     32 C           4.6138   -1.8797   24.9636 C.3     1  UNL1        0.0174
     33 C           4.3324   -2.2424   23.5355 C.3     1  UNL1        0.0031
     34 C           3.6576   -1.2553   22.6300 C.3     1  UNL1        0.0204
     35 C           3.2642    0.0946   23.1523 C.3     1  UNL1        0.0724
     36 C           3.3762   -1.6181   21.2019 C.3     1  UNL1        0.0277
     37 C           2.5839   -0.6863   20.3335 C.ar    1  UNL1       -0.0220
     38 C           1.1446   -0.4072   20.6507 C.ar    1  UNL1       -0.0020
     39 C           0.3522    0.5245   19.7824 C.ar    1  UNL1        0.0293
     40 C           0.9993    1.1772   18.5968 C.ar    1  UNL1        0.1401
     41 F           0.2069    2.1090   17.7285 F       1  UNL1       -0.2042
     42 C           2.4385    0.8982   18.2797 C.ar    1  UNL1        0.0293
     43 C           3.2308   -0.0336   19.1481 C.ar    1  UNL1       -0.0020
@<TRIPOS>BOND
     1    21    22    1
     2    22    23    2
     3    22    15    1
     4    15    16   ar
     5    16    17   ar
     6    17     9    1
     7     9    10   am
     8    10    11    2
     9    10    12   am
    10     1    12    1
    11     1     2    1
    12     2     3    1
    13     3     4   am
    14     4     5    2
    15     4    24    1
    16    24    25    1
    17    25    26    1
    18    25    27    1
    19    25    28    1
    20     3     6    1
    21     6     7    1
    22     7     8    1
    23     8    29    1
    24    29    30    1
    25    30    31    1
    26    31    32    1
    27    32    33    1
    28    33    34    1
    29    34    36    1
    30    36    37    1
    31    37    38   ar
    32    38    39   ar
    33    39    40   ar
    34    40    41    1
    35    40    42   ar
    36    42    43   ar
    37    34    35    1
    38    17    18   ar
    39    18    19   ar
    40    19    20    1
    41    19    15   ar
    42     8     1    1
    43    35    30    1
    44    43    37   ar
    45     9    13    1
    46    12    14    1
@<TRIPOS>MOLECULE
*****
 43 46 0 0 0
SMALL
GASTEIGER

@<TRIPOS>ATOM
      1 C           7.7259   -3.0368   23.3448 C.3     1  UNL1        0.0943
      2 C           7.8865   -3.5376   24.7496 C.3     1  UNL1        0.1163
      3 N           8.3579   -4.9400   24.9965 N.am    1  UNL1       -0.2443
      4 C           8.5185   -5.4408   26.4013 C.2     1  UNL1        0.4047
      5 O           8.9900   -6.8432   26.6482 O.2     1  UNL1       -0.2262
      6 C           8.6688   -5.8415   23.8387 C.3     1  UNL1        0.0969
      7 C           8.5082   -5.3407   22.4339 C.3     1  UNL1        0.0247
      8 C           8.0368   -3.9383   22.1870 C.3     1  UNL1        0.0374
      9 N           5.3206    0.0927   22.9308 N.am    1  UNL1       -0.2485
     10 C           5.7921   -1.3097   23.1778 C.2     1  UNL1        0.3059
     11 O           4.8014   -2.3875   23.5047 O.2     1  UNL1       -0.2524
     12 N           7.2544   -1.6343   23.0978 N.am    1  UNL1       -0.2885
     13 H           5.9709    0.8000   22.7162 H       1  UNL1        0.1583
     14 H           7.9047   -0.9270   22.8832 H       1  UNL1        0.1510
     15 C           1.5782    0.9663   22.3860 C.ar    1  UNL1        0.0803
     16 S           2.9504    0.6880   21.8478 S.2     1  UNL1       -0.0488
     17 C           3.8584    0.4173   23.0107 C.ar    1  UNL1        0.1664
     18 N           3.0473    0.5283   24.2676 N.ar    1  UNL1       -0.2282
     19 C           1.6381    0.8676   23.8815 C.ar    1  UNL1        0.0701
     20 C           0.4903    1.0722   24.8253 C.3     1  UNL1        0.0528
     21 C          -0.2144    2.6724   21.5950 C.3     1  UNL1        0.0779
     22 C           0.3601    1.2869   21.5716 C.2     1  UNL1        0.1807
     23 O          -0.2836    0.2222   20.7338 O.2     1  UNL1       -0.2908
     24 O           8.2077   -4.5393   27.5591 O.3     1  UNL1       -0.4418
     25 C           7.5730   -5.1001   28.7971 C.3     1  UNL1        0.1378
     26 C           8.8811   -4.9816   29.5214 C.3     1  UNL1        0.0437
     27 C           6.2648   -5.2186   28.0727 C.3     1  UNL1        0.0437
     28 C           6.9382   -5.6610   30.0351 C.3     1  UNL1        0.0437
     29 C           7.8761   -3.4375   20.7822 C.3     1  UNL1        0.0738
     30 N           6.5054   -3.2853   20.1923 N.3     1  UNL1       -0.2726
     31 C           5.3894   -4.1780   20.6482 C.3     1  UNL1        0.0721
     32 C           4.0187   -4.0258   20.0583 C.3     1  UNL1        0.0174
     33 C           3.7639   -2.9809   19.0127 C.3     1  UNL1        0.0031
     34 C           4.8799   -2.0883   18.5569 C.3     1  UNL1        0.0204
     35 C           6.2506   -2.2404   19.1467 C.3     1  UNL1        0.0724
     36 C           4.6251   -1.0433   17.5112 C.3     1  UNL1        0.0277
     37 C           3.9666    0.2505   17.8887 C.ar    1  UNL1       -0.0220
     38 C           2.4724    0.3282   17.9959 C.ar    1  UNL1       -0.0020
     39 C           1.8139    1.6220   18.3734 C.ar    1  UNL1        0.0293
     40 C           2.6496    2.8381   18.6436 C.ar    1  UNL1        0.1401
     41 F           1.9911    4.1319   19.0210 F       1  UNL1       -0.2042
     42 C           4.1437    2.7603   18.5363 C.ar    1  UNL1        0.0293
     43 C           4.8022    1.4665   18.1589 C.ar    1  UNL1       -0.0020
@<TRIPOS>BOND
     1    21    22    1
     2    22    23    2
     3    22    15    1
     4    15    16   ar
     5    16    17   ar
     6    17     9    1
     7     9    10   am
     8    10    11    2
     9    10    12   am
    10     1    12    1
    11     1     2    1
    12     2     3    1
    13     3     4   am
    14     4     5    2
    15     4    24    1
    16    24    25    1
    17    25    26    1
    18    25    27    1
    19    25    28    1
    20     3     6    1
    21     6     7    1
    22     7     8    1
    23     8    29    1
    24    29    30    1
    25    30    31    1
    26    31    32    1
    27    32    33    1
    28    33    34    1
    29    34    36    1
    30    36    37    1
    31    37    38   ar
    32    38    39   ar
    33    39    40   ar
    34    40    41    1
    35    40    42   ar
    36    42    43   ar
    37    34    35    1
    38    17    18   ar
    39    18    19   ar
    40    19    20    1
    41    19    15   ar
    42     8     1    1
    43    35    30    1
    44    43    37   ar
    45     9    13    1
    46    12    14    1
@<TRIPOS>MOLECULE
*****
 43 46 0 0 0
SMALL
GASTEIGER

@<TRIPOS>ATOM
      1 C           2.2691    2.1669   20.9766 C.3     1  UNL1        0.0943
      2 C           3.1624    1.0936   20.4288 C.3     1  UNL1        0.1163
      3 N           2.8933    0.5141   19.0717 N.am    1  UNL1       -0.2443
      4 C           3.7866   -0.5592   18.5239 C.2     1  UNL1        0.4047
      5 O           3.5175   -1.1387   17.1668 O.2     1  UNL1       -0.2262
      6 C           1.7310    1.0080   18.2624 C.3     1  UNL1        0.0969
      7 C           0.8377    2.0813   18.8101 C.3     1  UNL1        0.0247
      8 C           1.1068    2.6608   20.1672 C.3     1  UNL1        0.0374
      9 N           2.4711    2.5385   24.9226 N.am    1  UNL1       -0.2485
     10 C           2.2021    1.9591   23.5655 C.2     1  UNL1        0.3059
     11 O           1.5969    0.5923   23.4400 O.2     1  UNL1       -0.2524
     12 N           2.5382    2.7464   22.3337 N.am    1  UNL1       -0.2885
     13 H           2.8683    3.4356   25.0049 H       1  UNL1        0.1583
     14 H           2.9354    3.6435   22.4161 H       1  UNL1        0.1510
     15 C           0.9309    0.8407   28.0548 C.ar    1  UNL1        0.0803
     16 S           0.8260    1.7755   26.8864 S.2     1  UNL1       -0.0488
     17 C           2.1350    1.7512   26.1543 C.ar    1  UNL1        0.1664
     18 N           3.0489    0.8013   26.8703 N.ar    1  UNL1       -0.2282
     19 C           2.3047    0.2386   28.0448 C.ar    1  UNL1        0.0701
     20 C           2.8403   -0.7522   29.0355 C.3     1  UNL1        0.0528
     21 C          -1.2312   -0.4293   28.7349 C.3     1  UNL1        0.0779
     22 C          -0.1486    0.5577   29.0571 C.2     1  UNL1        0.1807
     23 O          -0.1454    1.2615   30.3816 O.2     1  UNL1       -0.2908
     24 O           4.9489   -1.0531   19.3333 O.3     1  UNL1       -0.4418
     25 C           5.1802   -2.5266   19.4919 C.3     1  UNL1        0.1378
     26 C           3.9366   -2.6322   20.3240 C.3     1  UNL1        0.0437
     27 C           6.4238   -2.4210   18.6599 C.3     1  UNL1        0.0437
     28 C           5.4116   -4.0002   19.6506 C.3     1  UNL1        0.0437
     29 C           0.2135    3.7341   20.7150 C.3     1  UNL1        0.0738
     30 N          -1.1963    3.8620   20.2191 N.3     1  UNL1       -0.2726
     31 C          -1.4755    4.5716   18.9273 C.3     1  UNL1        0.0721
     32 C          -2.8854    4.6995   18.4314 C.3     1  UNL1        0.0174
     33 C          -4.0160    4.1178   19.2273 C.3     1  UNL1        0.0031
     34 C          -3.7368    3.4083   20.5190 C.3     1  UNL1        0.0204
     35 C          -2.3269    3.2804   21.0149 C.3     1  UNL1        0.0724
     36 C          -4.8675    2.8266   21.3149 C.3     1  UNL1        0.0277
     37 C          -5.3129    3.4931   22.5827 C.ar    1  UNL1       -0.0220
     38 C          -4.6106    3.1940   23.8740 C.ar    1  UNL1       -0.0020
     39 C          -5.0561    3.8605   25.1418 C.ar    1  UNL1        0.0293
     40 C          -6.2038    4.8261   25.1183 C.ar    1  UNL1        0.1401
     41 F          -6.6493    5.4926   26.3861 F       1  UNL1       -0.2042
     42 C          -6.9060    5.1251   23.8271 C.ar    1  UNL1        0.0293
     43 C          -6.4606    4.4586   22.5592 C.ar    1  UNL1       -0.0020
@<TRIPOS>BOND
     1    21    22    1
     2    22    23    2
     3    22    15    1
     4    15    16   ar
     5    16    17   ar
     6    17     9    1
     7     9    10   am
     8    10    11    2
     9    10    12   am
    10     1    12    1
    11     1     2    1
    12     2     3    1
    13     3     4   am
    14     4     5    2
    15     4    24    1
    16    24    25    1
    17    25    26    1
    18    25    27    1
    19    25    28    1
    20     3     6    1
    21     6     7    1
    22     7     8    1
    23     8    29    1
    24    29    30    1
    25    30    31    1
    26    31    32    1
    27    32    33    1
    28    33    34    1
    29    34    36    1
    30    36    37    1
    31    37    38   ar
    32    38    39   ar
    33    39    40   ar
    34    40    41    1
    35    40    42   ar
    36    42    43   ar
    37    34    35    1
    38    17    18   ar
    39    18    19   ar
    40    19    20    1
    41    19    15   ar
    42     8     1    1
    43    35    30    1
    44    43    37   ar
    45     9    13    1
    46    12    14    1
@<TRIPOS>MOLECULE
*****
 43 46 0 0 0
SMALL
GASTEIGER

@<TRIPOS>ATOM
      1 C           4.9164   -0.8773   26.9098 C.3     1  UNL1        0.0943
      2 C           3.5603   -0.2486   27.0350 C.3     1  UNL1        0.1163
      3 N           3.4025    1.0564   27.7573 N.am    1  UNL1       -0.2443
      4 C           2.0464    1.6852   27.8826 C.2     1  UNL1        0.4047
      5 O           1.8886    2.9903   28.6050 O.2     1  UNL1       -0.2262
      6 C           4.6008    1.7328   28.3545 C.3     1  UNL1        0.0969
      7 C           5.9569    1.1041   28.2293 C.3     1  UNL1        0.0247
      8 C           6.1147   -0.2009   27.5069 C.3     1  UNL1        0.0374
      9 N           5.3187   -3.5102   23.9676 N.am    1  UNL1       -0.2485
     10 C           5.1609   -2.2051   24.6900 C.2     1  UNL1        0.3059
     11 O           5.0897   -0.9227   23.9151 O.2     1  UNL1       -0.2524
     12 N           5.0742   -2.1824   26.1873 N.am    1  UNL1       -0.2885
     13 H           5.3655   -4.3518   24.4762 H       1  UNL1        0.1583
     14 H           5.1210   -3.0241   26.6959 H       1  UNL1        0.1510
     15 C           6.1333   -3.1115   20.1936 C.ar    1  UNL1        0.0803
     16 S           6.4184   -2.8080   21.6346 S.2     1  UNL1       -0.0488
     17 C           5.4054   -3.5329   22.4703 C.ar    1  UNL1        0.1664
     18 N           4.4942   -4.2844   21.5457 N.ar    1  UNL1       -0.2282
     19 C           4.9441   -4.0240   20.1386 C.ar    1  UNL1        0.0701
     20 C           4.3151   -4.5788   18.8949 C.3     1  UNL1        0.0528
     21 C           8.3818   -2.3708   19.1234 C.3     1  UNL1        0.0779
     22 C           6.9024   -2.5935   19.0145 C.2     1  UNL1        0.1807
     23 O           6.1923   -2.2984   17.7268 O.2     1  UNL1       -0.2908
     24 O           0.8481    1.0088   27.2854 O.3     1  UNL1       -0.4418
     25 C          -0.3549    0.7262   28.1356 C.3     1  UNL1        0.1378
     26 C          -1.1388    1.7476   27.3661 C.3     1  UNL1        0.0437
     27 C           0.4290   -0.2953   28.9051 C.3     1  UNL1        0.0437
     28 C          -1.5579    0.4434   28.9858 C.3     1  UNL1        0.0437
     29 C           7.4708   -0.8297   27.3817 C.3     1  UNL1        0.0738
     30 N           7.7378   -2.1674   28.0056 N.3     1  UNL1       -0.2726
     31 C           8.4602   -3.2271   27.2275 C.3     1  UNL1        0.0721
     32 C           8.7272   -4.5648   27.8514 C.3     1  UNL1        0.0174
     33 C           8.2717   -4.8429   29.2533 C.3     1  UNL1        0.0031
     34 C           7.5493   -3.7832   30.0313 C.3     1  UNL1        0.0204
     35 C           7.2823   -2.4455   29.4074 C.3     1  UNL1        0.0724
     36 C           7.0938   -4.0613   31.4332 C.3     1  UNL1        0.0277
     37 C           6.6716   -2.9299   32.3229 C.ar    1  UNL1       -0.0220
     38 C           5.2395   -2.8075   32.7522 C.ar    1  UNL1       -0.0020
     39 C           4.8174   -1.6760   33.6420 C.ar    1  UNL1        0.0293
     40 C           5.8273   -0.6670   34.1024 C.ar    1  UNL1        0.1401
     41 F           5.4052    0.4645   34.9921 F       1  UNL1       -0.2042
     42 C           7.2593   -0.7894   33.6731 C.ar    1  UNL1        0.0293
     43 C           7.6815   -1.9209   32.7833 C.ar    1  UNL1       -0.0020
@<TRIPOS>BOND
     1    21    22    1
     2    22    23    2
     3    22    15    1
     4    15    16   ar
     5    16    17   ar
     6    17     9    1
     7     9    10   am
     8    10    11    2
     9    10    12   am
    10     1    12    1
    11     1     2    1
    12     2     3    1
    13     3     4   am
    14     4     5    2
    15     4    24    1
    16    24    25    1
    17    25    26    1
    18    25    27    1
    19    25    28    1
    20     3     6    1
    21     6     7    1
    22     7     8    1
    23     8    29    1
    24    29    30    1
    25    30    31    1
    26    31    32    1
    27    32    33    1
    28    33    34    1
    29    34    36    1
    30    36    37    1
    31    37    38   ar
    32    38    39   ar
    33    39    40   ar
    34    40    41    1
    35    40    42   ar
    36    42    43   ar
    37    34    35    1
    38    17    18   ar
    39    18    19   ar
    40    19    20    1
    41    19    15   ar
    42     8     1    1
    43    35    30    1
    44    43    37   ar
    45     9    13    1
    46    12    14    1
@<TRIPOS>MOLECULE
*****
 43 46 0 0 0
SMALL
GASTEIGER

@<TRIPOS>ATOM
      1 C           4.3976    0.2125   29.5293 C.3     1  UNL1        0.0943
      2 C           5.3996   -0.8992   29.6293 C.3     1  UNL1        0.1163
      3 N           5.3965   -1.8065   30.8237 N.am    1  UNL1       -0.2443
      4 C           6.3985   -2.9183   30.9237 C.2     1  UNL1        0.4047
      5 O           6.3954   -3.8257   32.1181 O.2     1  UNL1       -0.2262
      6 C           4.3913   -1.6022   31.9182 C.3     1  UNL1        0.0969
      7 C           3.3893   -0.4905   31.8182 C.3     1  UNL1        0.0247
      8 C           3.3925    0.4169   30.6238 C.3     1  UNL1        0.0374
      9 N           3.7765    1.5766   25.8546 N.am    1  UNL1       -0.2485
     10 C           3.7734    0.6693   27.0491 C.2     1  UNL1        0.3059
     11 O           3.1429   -0.6887   26.9577 O.2     1  UNL1       -0.2524
     12 N           4.4007    1.1199   28.3349 N.am    1  UNL1       -0.2885
     13 H           4.1903    2.4679   25.9146 H       1  UNL1        0.1583
     14 H           4.8145    2.0112   28.3949 H       1  UNL1        0.1510
     15 C           1.6474    0.9508   22.6701 C.ar    1  UNL1        0.0803
     16 S           1.9127    1.6996   23.9425 S.2     1  UNL1       -0.0488
     17 C           3.1491    1.1260   24.5688 C.ar    1  UNL1        0.1664
     18 N           3.6479    0.0226   23.6836 N.ar    1  UNL1       -0.2282
     19 C           2.7198   -0.0857   22.5101 C.ar    1  UNL1        0.0701
     20 C           2.8426   -1.0595   21.3758 C.3     1  UNL1        0.0528
     21 C          -0.0789    2.5695   21.5980 C.3     1  UNL1        0.0779
     22 C           0.5095    1.1955   21.7240 C.2     1  UNL1        0.1807
     23 O          -0.0400    0.0662   20.9038 O.2     1  UNL1       -0.2908
     24 O           7.4037   -3.1227   29.8292 O.3     1  UNL1       -0.4418
     25 C           7.7508   -4.5109   29.3793 C.3     1  UNL1        0.1378
     26 C           9.0949   -4.3867   30.0335 C.3     1  UNL1        0.0437
     27 C           6.4068   -4.6350   28.7252 C.3     1  UNL1        0.0437
     28 C           8.0980   -5.8991   28.9295 C.3     1  UNL1        0.0437
     29 C           2.3904    1.5287   30.5238 C.3     1  UNL1        0.0738
     30 N           1.2648    1.4373   29.5366 N.3     1  UNL1       -0.2726
     31 C           0.5684    0.1277   29.3124 C.3     1  UNL1        0.0721
     32 C          -0.5572    0.0363   28.3252 C.3     1  UNL1        0.0174
     33 C          -0.9865    1.2544   27.5622 C.3     1  UNL1        0.0031
     34 C          -0.2901    2.5639   27.7865 C.3     1  UNL1        0.0204
     35 C           0.8356    2.6553   28.7737 C.3     1  UNL1        0.0724
     36 C          -0.7193    3.7820   27.0235 C.3     1  UNL1        0.0277
     37 C          -1.9641    3.7433   26.1875 C.ar    1  UNL1       -0.0220
     38 C          -3.3038    3.9605   26.8265 C.ar    1  UNL1       -0.0020
     39 C          -4.5486    3.9218   25.9904 C.ar    1  UNL1        0.0293
     40 C          -4.4537    3.6658   24.5154 C.ar    1  UNL1        0.1401
     41 F          -5.6985    3.6271   23.6794 F       1  UNL1       -0.2042
     42 C          -3.1141    3.4486   23.8765 C.ar    1  UNL1        0.0293
     43 C          -1.8693    3.4873   24.7126 C.ar    1  UNL1       -0.0020
@<TRIPOS>BOND
     1    21    22    1
     2    22    23    2
     3    22    15    1
     4    15    16   ar
     5    16    17   ar
     6    17     9    1
     7     9    10   am
     8    10    11    2
     9    10    12   am
    10     1    12    1
    11     1     2    1
    12     2     3    1
    13     3     4   am
    14     4     5    2
    15     4    24    1
    16    24    25    1
    17    25    26    1
    18    25    27    1
    19    25    28    1
    20     3     6    1
    21     6     7    1
    22     7     8    1
    23     8    29    1
    24    29    30    1
    25    30    31    1
    26    31    32    1
    27    32    33    1
    28    33    34    1
    29    34    36    1
    30    36    37    1
    31    37    38   ar
    32    38    39   ar
    33    39    40   ar
    34    40    41    1
    35    40    42   ar
    36    42    43   ar
    37    34    35    1
    38    17    18   ar
    39    18    19   ar
    40    19    20    1
    41    19    15   ar
    42     8     1    1
    43    35    30    1
    44    43    37   ar
    45     9    13    1
    46    12    14    1
@<TRIPOS>MOLECULE
*****
 43 46 0 0 0
SMALL
GASTEIGER

@<TRIPOS>ATOM
      1 C           4.4407   -1.2730   26.4026 C.3     1  UNL1        0.0943
      2 C           3.2648   -0.4086   26.7491 C.3     1  UNL1        0.1163
      3 N           3.3681    0.5849   27.8681 N.am    1  UNL1       -0.2443
      4 C           2.1922    1.4493   28.2146 C.2     1  UNL1        0.4047
      5 O           2.2955    2.4427   29.3337 O.2     1  UNL1       -0.2262
      6 C           4.6473    0.7139   28.6408 C.3     1  UNL1        0.0969
      7 C           5.8232   -0.1505   28.2943 C.3     1  UNL1        0.0247
      8 C           5.7199   -1.1439   27.1753 C.3     1  UNL1        0.0374
      9 N           4.4584   -2.8201   22.7480 N.am    1  UNL1       -0.2485
     10 C           4.5617   -1.8267   23.8671 C.2     1  UNL1        0.3059
     11 O           4.8893   -0.3933   23.5698 O.2     1  UNL1       -0.2524
     12 N           4.3374   -2.2665   25.2835 N.am    1  UNL1       -0.2885
     13 H           4.2434   -3.7608   22.9431 H       1  UNL1        0.1583
     14 H           4.1224   -3.2072   25.4787 H       1  UNL1        0.1510
     15 C           4.3369   -1.4126   19.1328 C.ar    1  UNL1        0.0803
     16 S           3.6965   -1.6512   20.4681 S.2     1  UNL1       -0.0488
     17 C           4.6828   -2.3803   21.3316 C.ar    1  UNL1        0.1664
     18 N           5.9328   -2.5923   20.5300 N.ar    1  UNL1       -0.2282
     19 C           5.7190   -1.9943   19.1711 C.ar    1  UNL1        0.0701
     20 C           6.7129   -1.9804   18.0477 C.3     1  UNL1        0.0528
     21 C           2.8229    0.4764   18.1899 C.3     1  UNL1        0.0779
     22 C           3.7060   -0.7149   17.9644 C.2     1  UNL1        0.1807
     23 O           3.9582   -1.2085   16.5707 O.2     1  UNL1       -0.2908
     24 O           0.9130    1.3202   27.4420 O.3     1  UNL1       -0.4418
     25 C          -0.3468    0.9031   28.1413 C.3     1  UNL1        0.1378
     26 C           0.4022   -0.1958   28.8350 C.3     1  UNL1        0.0437
     27 C          -1.0957    2.0021   27.4476 C.3     1  UNL1        0.0437
     28 C          -1.6066    0.4860   28.8407 C.3     1  UNL1        0.0437
     29 C           6.8958   -2.0084   26.8288 C.3     1  UNL1        0.0738
     30 N           7.1034   -3.3125   27.5401 N.3     1  UNL1       -0.2726
     31 C           7.3824   -4.5594   26.7542 C.3     1  UNL1        0.0721
     32 C           7.5900   -5.8636   27.4656 C.3     1  UNL1        0.0174
     33 C           7.5185   -5.9209   28.9628 C.3     1  UNL1        0.0031
     34 C           7.2396   -4.6741   29.7486 C.3     1  UNL1        0.0204
     35 C           7.0320   -3.3699   29.0373 C.3     1  UNL1        0.0724
     36 C           7.1681   -4.7314   31.2459 C.3     1  UNL1        0.0277
     37 C           7.0597   -3.4638   32.0406 C.ar    1  UNL1       -0.0220
     38 C           8.2993   -2.7138   32.4291 C.ar    1  UNL1       -0.0020
     39 C           8.1909   -1.4462   33.2238 C.ar    1  UNL1        0.0293
     40 C           6.8428   -0.9287   33.6300 C.ar    1  UNL1        0.1401
     41 F           6.7344    0.3388   34.4248 F       1  UNL1       -0.2042
     42 C           5.6033   -1.6787   33.2416 C.ar    1  UNL1        0.0293
     43 C           5.7117   -2.9463   32.4469 C.ar    1  UNL1       -0.0020
@<TRIPOS>BOND
     1    21    22    1
     2    22    23    2
     3    22    15    1
     4    15    16   ar
     5    16    17   ar
     6    17     9    1
     7     9    10   am
     8    10    11    2
     9    10    12   am
    10     1    12    1
    11     1     2    1
    12     2     3    1
    13     3     4   am
    14     4     5    2
    15     4    24    1
    16    24    25    1
    17    25    26    1
    18    25    27    1
    19    25    28    1
    20     3     6    1
    21     6     7    1
    22     7     8    1
    23     8    29    1
    24    29    30    1
    25    30    31    1
    26    31    32    1
    27    32    33    1
    28    33    34    1
    29    34    36    1
    30    36    37    1
    31    37    38   ar
    32    38    39   ar
    33    39    40   ar
    34    40    41    1
    35    40    42   ar
    36    42    43   ar
    37    34    35    1
    38    17    18   ar
    39    18    19   ar
    40    19    20    1
    41    19    15   ar
    42     8     1    1
    43    35    30    1
    44    43    37   ar
    45     9    13    1
    46    12    14    1
@<TRIPOS>MOLECULE
*****
 43 46 0 0 0
SMALL
GASTEIGER

@<TRIPOS>ATOM
      1 C          -0.8388    4.0136   21.0477 C.3     1  UNL1        0.0943
      2 C          -2.2416    3.5944   21.3738 C.3     1  UNL1        0.1163
      3 N          -3.2909    3.5888   20.3021 N.am    1  UNL1       -0.2443
      4 C          -4.6938    3.1696   20.6281 C.2     1  UNL1        0.4047
      5 O          -5.7432    3.1640   19.5563 O.2     1  UNL1       -0.2262
      6 C          -2.9375    4.0025   18.9042 C.3     1  UNL1        0.0969
      7 C          -1.5347    4.4217   18.5781 C.3     1  UNL1        0.0247
      8 C          -0.4853    4.4273   19.6499 C.3     1  UNL1        0.0374
      9 N           1.9640    2.7520   23.5583 N.am    1  UNL1       -0.2485
     10 C           0.9146    2.7465   22.4866 C.2     1  UNL1        0.3059
     11 O           0.5690    1.4682   21.7819 O.2     1  UNL1       -0.2524
     12 N           0.2107    4.0192   22.1195 N.am    1  UNL1       -0.2885
     13 H           2.1908    3.5910   24.0208 H       1  UNL1        0.1583
     14 H           0.4375    4.8582   22.5820 H       1  UNL1        0.1510
     15 C           3.9870   -0.5530   23.7822 C.ar    1  UNL1        0.0803
     16 S           3.4634    0.6119   22.9955 S.2     1  UNL1       -0.0488
     17 C           2.6679    1.4793   23.9254 C.ar    1  UNL1        0.1664
     18 N           2.6997    0.8504   25.2868 N.ar    1  UNL1       -0.2282
     19 C           3.5150   -0.4056   25.1983 C.ar    1  UNL1        0.0701
     20 C           3.8070   -1.3486   26.3277 C.3     1  UNL1        0.0528
     21 C           6.1340   -1.3632   22.5640 C.3     1  UNL1        0.0779
     22 C           4.8339   -1.6693   23.2467 C.2     1  UNL1        0.1807
     23 O           4.3807   -3.0915   23.3940 O.2     1  UNL1       -0.2908
     24 O          -5.0472    2.7559   22.0260 O.3     1  UNL1       -0.4418
     25 C          -5.5171    3.7808   23.0153 C.3     1  UNL1        0.1378
     26 C          -4.5823    3.2167   24.0437 C.3     1  UNL1        0.0437
     27 C          -6.4519    4.3450   21.9868 C.3     1  UNL1        0.0437
     28 C          -5.9870    4.8058   24.0046 C.3     1  UNL1        0.0437
     29 C           0.9175    4.8465   19.3238 C.3     1  UNL1        0.0738
     30 N           2.0279    3.8385   19.3548 N.3     1  UNL1       -0.2726
     31 C           3.2959    4.1420   20.0965 C.3     1  UNL1        0.0721
     32 C           4.4063    3.1340   20.1275 C.3     1  UNL1        0.0174
     33 C           4.2486    1.8224   19.4168 C.3     1  UNL1        0.0031
     34 C           2.9806    1.5189   18.6752 C.3     1  UNL1        0.0204
     35 C           1.8703    2.5270   18.6442 C.3     1  UNL1        0.0724
     36 C           2.8230    0.2073   17.9645 C.3     1  UNL1        0.0277
     37 C           3.5987   -0.9919   18.4227 C.ar    1  UNL1       -0.0220
     38 C           4.8855   -1.3571   17.7438 C.ar    1  UNL1       -0.0020
     39 C           5.6612   -2.5564   18.2020 C.ar    1  UNL1        0.0293
     40 C           5.1501   -3.3905   19.3392 C.ar    1  UNL1        0.1401
     41 F           5.9258   -4.5898   19.7974 F       1  UNL1       -0.2042
     42 C           3.8634   -3.0254   20.0180 C.ar    1  UNL1        0.0293
     43 C           3.0876   -1.8261   19.5598 C.ar    1  UNL1       -0.0020
@<TRIPOS>BOND
     1    21    22    1
     2    22    23    2
     3    22    15    1
     4    15    16   ar
     5    16    17   ar
     6    17     9    1
     7     9    10   am
     8    10    11    2
     9    10    12   am
    10     1    12    1
    11     1     2    1
    12     2     3    1
    13     3     4   am
    14     4     5    2
    15     4    24    1
    16    24    25    1
    17    25    26    1
    18    25    27    1
    19    25    28    1
    20     3     6    1
    21     6     7    1
    22     7     8    1
    23     8    29    1
    24    29    30    1
    25    30    31    1
    26    31    32    1
    27    32    33    1
    28    33    34    1
    29    34    36    1
    30    36    37    1
    31    37    38   ar
    32    38    39   ar
    33    39    40   ar
    34    40    41    1
    35    40    42   ar
    36    42    43   ar
    37    34    35    1
    38    17    18   ar
    39    18    19   ar
    40    19    20    1
    41    19    15   ar
    42     8     1    1
    43    35    30    1
    44    43    37   ar
    45     9    13    1
    46    12    14    1
