@<TRIPOS>MOLECULE
*****
 41 45 0 0 0
SMALL
GASTEIGER

@<TRIPOS>ATOM
      1 C           6.6112   -1.8339   24.6305 C.3     1  UNL1        0.0777
      2 C           6.9260   -2.9208   25.6151 C.3     1  UNL1        0.0412
      3 C           7.4441   -4.2431   25.1323 C.3     1  UNL1        0.0951
      4 N           7.6474   -4.4784   23.6649 N.am    1  UNL1       -0.2794
      5 C           8.1656   -5.8008   23.1821 C.2     1  UNL1        0.2251
      6 O           8.3689   -6.0361   21.7147 O.2     1  UNL1       -0.2749
      7 C           7.3327   -3.3915   22.6803 C.3     1  UNL1        0.0964
      8 C           6.8146   -2.0693   23.1631 C.3     1  UNL1        0.0539
      9 N           4.1612    0.9297   26.0830 N.am    1  UNL1       -0.2485
     10 C           4.6793   -0.3926   25.6003 C.2     1  UNL1        0.3058
     11 O           3.7837   -1.5959   25.6045 O.2     1  UNL1       -0.2524
     12 N           6.0931   -0.5116   25.1133 N.am    1  UNL1       -0.2901
     13 H           4.7490    1.7195   26.0802 H       1  UNL1        0.1583
     14 H           6.6809    0.2782   25.1105 H       1  UNL1        0.1509
     15 C           0.7494    0.8364   27.9316 C.ar    1  UNL1        0.0803
     16 S           2.2037    0.4789   27.8466 S.2     1  UNL1       -0.0488
     17 C           2.7474    1.0487   26.5700 C.ar    1  UNL1        0.1664
     18 N           1.6291    1.7584   25.8660 N.ar    1  UNL1       -0.2282
     19 C           0.3943    1.6272   26.7074 C.ar    1  UNL1        0.0701
     20 C          -0.9582    2.1883   26.3819 C.3     1  UNL1        0.0528
     21 C          -1.2807   -0.5288   28.8059 C.3     1  UNL1        0.0779
     22 C          -0.1855    0.4679   29.0451 C.2     1  UNL1        0.1807
     23 O          -0.0253    1.0960   30.3977 O.2     1  UNL1       -0.2908
     24 C           8.4803   -6.8877   24.1668 C.3     1  UNL1        0.0767
     25 C           8.0370   -7.8338   25.2430 C.3     1  UNL1        0.0096
     26 C           9.4688   -7.8242   24.7959 C.3     1  UNL1        0.0096
     27 C           6.4998   -0.9823   22.1785 C.3     1  UNL1        0.0754
     28 N           5.6316   -1.2746   20.9907 N.3     1  UNL1       -0.2726
     29 C           6.2525   -1.7142   19.6979 C.3     1  UNL1        0.0721
     30 C           5.3843   -2.0066   18.5102 C.3     1  UNL1        0.0174
     31 C           3.8952   -1.8593   18.6152 C.3     1  UNL1        0.0031
     32 C           3.2744   -1.4197   19.9080 C.3     1  UNL1        0.0204
     33 C           4.1426   -1.1274   21.0957 C.3     1  UNL1        0.0724
     34 C           1.7853   -1.2724   20.0130 C.3     1  UNL1        0.0277
     35 C           1.1506    0.0752   19.8366 C.ar    1  UNL1       -0.0220
     36 C           0.4594    0.7358   20.9925 C.ar    1  UNL1       -0.0020
     37 C          -0.1752    2.0834   20.8161 C.ar    1  UNL1        0.0293
     38 C          -0.1187    2.7704   19.4838 C.ar    1  UNL1        0.1401
     39 F          -0.7534    4.1181   19.3074 F       1  UNL1       -0.2042
     40 C           0.5724    2.1098   18.3280 C.ar    1  UNL1        0.0293
     41 C           1.2071    0.7622   18.5045 C.ar    1  UNL1       -0.0020
@<TRIPOS>BOND
     1    21    22    1
     2    22    23    2
     3    22    15    1
     4    15    16   ar
     5    16    17   ar
     6    17     9    1
     7     9    10   am
     8    10    11    2
     9    10    12   am
    10     1    12    1
    11     1     2    1
    12     2     3    1
    13     3     4    1
    14     4     5   am
    15     5     6    2
    16     5    24    1
    17    24    25    1
    18    25    26    1
    19     4     7    1
    20     7     8    1
    21     8    27    1
    22    27    28    1
    23    28    29    1
    24    29    30    1
    25    30    31    1
    26    31    32    1
    27    32    34    1
    28    34    35    1
    29    35    36   ar
    30    36    37   ar
    31    37    38   ar
    32    38    39    1
    33    38    40   ar
    34    40    41   ar
    35    32    33    1
    36    17    18   ar
    37    18    19   ar
    38    19    20    1
    39    19    15   ar
    40     8     1    1
    41    33    28    1
    42    26    24    1
    43    41    35   ar
    44     9    13    1
    45    12    14    1
@<TRIPOS>MOLECULE
*****
 41 45 0 0 0
SMALL
GASTEIGER

@<TRIPOS>ATOM
      1 C           2.2466    0.9879   20.0093 C.3     1  UNL1        0.0777
      2 C           2.0139   -0.2391   19.1785 C.3     1  UNL1        0.0412
      3 C           2.8321   -1.4732   19.4179 C.3     1  UNL1        0.0951
      4 N           3.8831   -1.4804   20.4882 N.am    1  UNL1       -0.2794
      5 C           4.7013   -2.7146   20.7275 C.2     1  UNL1        0.2251
      6 O           5.7523   -2.7218   21.7978 O.2     1  UNL1       -0.2749
      7 C           4.1158   -0.2534   21.3190 C.3     1  UNL1        0.0964
      8 C           3.2976    0.9807   21.0796 C.3     1  UNL1        0.0539
      9 N          -0.8241    3.5017   19.9674 N.am    1  UNL1       -0.2485
     10 C          -0.0059    2.2675   20.2067 C.2     1  UNL1        0.3058
     11 O          -0.6219    1.0786   20.8829 O.2     1  UNL1       -0.2524
     12 N           1.4284    2.2222   19.7700 N.am    1  UNL1       -0.2901
     13 H          -0.4198    4.2819   19.5236 H       1  UNL1        0.1583
     14 H           1.8328    3.0024   19.3262 H       1  UNL1        0.1509
     15 C          -4.6717    3.8043   20.3800 C.ar    1  UNL1        0.0803
     16 S          -3.4350    3.8770   19.5342 S.2     1  UNL1       -0.0488
     17 C          -2.2584    3.5470   20.4041 C.ar    1  UNL1        0.1664
     18 N          -2.7680    3.2703   21.7875 N.ar    1  UNL1       -0.2282
     19 C          -4.2594    3.4293   21.7726 C.ar    1  UNL1        0.0701
     20 C          -5.1775    3.2456   22.9445 C.3     1  UNL1        0.0528
     21 C          -6.6405    3.2755   18.7694 C.3     1  UNL1        0.0779
     22 C          -6.0743    4.0614   19.9147 C.2     1  UNL1        0.1807
     23 O          -6.9108    5.1043   20.5948 O.2     1  UNL1       -0.2908
     24 C           4.4685   -3.9416   19.8967 C.3     1  UNL1        0.0767
     25 C           4.9344   -4.9084   18.8487 C.3     1  UNL1        0.0096
     26 C           3.5996   -5.1000   19.5057 C.3     1  UNL1        0.0096
     27 C           3.5304    2.2078   21.9104 C.3     1  UNL1        0.0754
     28 N           2.4249    2.7575   22.7624 N.3     1  UNL1       -0.2726
     29 C           2.0806    4.2159   22.6951 C.3     1  UNL1        0.0721
     30 C           0.9751    4.7656   23.5471 C.3     1  UNL1        0.0174
     31 C           0.2140    3.8568   24.4663 C.3     1  UNL1        0.0031
     32 C           0.5584    2.3984   24.5335 C.3     1  UNL1        0.0204
     33 C           1.6638    1.8488   23.6815 C.3     1  UNL1        0.0724
     34 C          -0.2028    1.4896   25.4527 C.3     1  UNL1        0.0277
     35 C           0.1358    1.4455   26.9133 C.ar    1  UNL1       -0.0220
     36 C           1.4542    1.9757   27.3940 C.ar    1  UNL1       -0.0020
     37 C           1.7928    1.9316   28.8546 C.ar    1  UNL1        0.0293
     38 C           0.8130    1.3573   29.8346 C.ar    1  UNL1        0.1401
     39 F           1.1516    1.3132   31.2952 F       1  UNL1       -0.2042
     40 C          -0.5052    0.8272   29.3539 C.ar    1  UNL1        0.0293
     41 C          -0.8438    0.8713   27.8933 C.ar    1  UNL1       -0.0020
@<TRIPOS>BOND
     1    21    22    1
     2    22    23    2
     3    22    15    1
     4    15    16   ar
     5    16    17   ar
     6    17     9    1
     7     9    10   am
     8    10    11    2
     9    10    12   am
    10     1    12    1
    11     1     2    1
    12     2     3    1
    13     3     4    1
    14     4     5   am
    15     5     6    2
    16     5    24    1
    17    24    25    1
    18    25    26    1
    19     4     7    1
    20     7     8    1
    21     8    27    1
    22    27    28    1
    23    28    29    1
    24    29    30    1
    25    30    31    1
    26    31    32    1
    27    32    34    1
    28    34    35    1
    29    35    36   ar
    30    36    37   ar
    31    37    38   ar
    32    38    39    1
    33    38    40   ar
    34    40    41   ar
    35    32    33    1
    36    17    18   ar
    37    18    19   ar
    38    19    20    1
    39    19    15   ar
    40     8     1    1
    41    33    28    1
    42    26    24    1
    43    41    35   ar
    44     9    13    1
    45    12    14    1
@<TRIPOS>MOLECULE
*****
 41 45 0 0 0
SMALL
GASTEIGER

@<TRIPOS>ATOM
      1 C           6.5327   -2.5443   28.3177 C.3     1  UNL1        0.0777
      2 C           6.5033   -3.8944   28.9706 C.3     1  UNL1        0.0412
      3 C           7.2462   -5.0421   28.3537 C.3     1  UNL1        0.0951
      4 N           8.0185   -4.8398   27.0838 N.am    1  UNL1       -0.2794
      5 C           8.7614   -5.9877   26.4669 C.2     1  UNL1        0.2251
      6 O           9.5337   -5.7853   25.1970 O.2     1  UNL1       -0.2749
      7 C           8.0479   -3.4897   26.4309 C.3     1  UNL1        0.0964
      8 C           7.3050   -2.3420   27.0478 C.3     1  UNL1        0.0539
      9 N           3.6238    0.0203   29.1610 N.am    1  UNL1       -0.2485
     10 C           4.3667   -1.1275   28.5441 C.2     1  UNL1        0.3058
     11 O           3.6866   -2.0063   27.5365 O.2     1  UNL1       -0.2524
     12 N           5.7897   -1.3964   28.9347 N.am    1  UNL1       -0.2901
     13 H           4.0701    0.5971   29.8222 H       1  UNL1        0.1583
     14 H           6.2361   -0.8196   29.5959 H       1  UNL1        0.1509
     15 C           0.2477    1.1336   27.6026 C.ar    1  UNL1        0.0803
     16 S           1.7475    1.1438   27.6239 S.2     1  UNL1       -0.0488
     17 C           2.2007    0.2893   28.7704 C.ar    1  UNL1        0.1664
     18 N           0.9809   -0.2490   29.4577 N.ar    1  UNL1       -0.2282
     19 C          -0.2261    0.2728   28.7360 C.ar    1  UNL1        0.0701
     20 C          -1.6558   -0.0155   29.0862 C.3     1  UNL1        0.0528
     21 C          -0.3736    1.7169   25.1483 C.3     1  UNL1        0.0779
     22 C          -0.6251    1.8572   26.6204 C.2     1  UNL1        0.1807
     23 O          -1.7492    2.7209   27.1103 O.2     1  UNL1       -0.2908
     24 C           8.7320   -7.3378   27.1198 C.3     1  UNL1        0.0767
     25 C           8.1988   -8.7383   27.1840 C.3     1  UNL1        0.0096
     26 C           9.2142   -8.2757   28.1864 C.3     1  UNL1        0.0096
     27 C           7.3344   -0.9918   26.3949 C.3     1  UNL1        0.0754
     28 N           6.1497   -0.5126   25.6094 N.3     1  UNL1       -0.2726
     29 C           5.6335    0.8820   25.8064 C.3     1  UNL1        0.0721
     30 C           4.4489    1.3611   25.0209 C.3     1  UNL1        0.0174
     31 C           3.7805    0.4457   24.0384 C.3     1  UNL1        0.0031
     32 C           4.2967   -0.9488   23.8414 C.3     1  UNL1        0.0204
     33 C           5.4813   -1.4280   24.6269 C.3     1  UNL1        0.0724
     34 C           3.6282   -1.8642   22.8589 C.3     1  UNL1        0.0277
     35 C           3.5130   -1.4628   21.4182 C.ar    1  UNL1       -0.0220
     36 C           4.6286   -1.7680   20.4631 C.ar    1  UNL1       -0.0020
     37 C           4.5134   -1.3666   19.0224 C.ar    1  UNL1        0.0293
     38 C           3.2826   -0.6598   18.5369 C.ar    1  UNL1        0.1401
     39 F           3.1673   -0.2583   17.0962 F       1  UNL1       -0.2042
     40 C           2.1670   -0.3546   19.4920 C.ar    1  UNL1        0.0293
     41 C           2.2823   -0.7561   20.9327 C.ar    1  UNL1       -0.0020
@<TRIPOS>BOND
     1    21    22    1
     2    22    23    2
     3    22    15    1
     4    15    16   ar
     5    16    17   ar
     6    17     9    1
     7     9    10   am
     8    10    11    2
     9    10    12   am
    10     1    12    1
    11     1     2    1
    12     2     3    1
    13     3     4    1
    14     4     5   am
    15     5     6    2
    16     5    24    1
    17    24    25    1
    18    25    26    1
    19     4     7    1
    20     7     8    1
    21     8    27    1
    22    27    28    1
    23    28    29    1
    24    29    30    1
    25    30    31    1
    26    31    32    1
    27    32    34    1
    28    34    35    1
    29    35    36   ar
    30    36    37   ar
    31    37    38   ar
    32    38    39    1
    33    38    40   ar
    34    40    41   ar
    35    32    33    1
    36    17    18   ar
    37    18    19   ar
    38    19    20    1
    39    19    15   ar
    40     8     1    1
    41    33    28    1
    42    26    24    1
    43    41    35   ar
    44     9    13    1
    45    12    14    1
@<TRIPOS>MOLECULE
*****
 41 45 0 0 0
SMALL
GASTEIGER

@<TRIPOS>ATOM
      1 C           4.4556    0.6980   26.1405 C.3     1  UNL1        0.0777
      2 C           2.9897    0.8713   25.8740 C.3     1  UNL1        0.0412
      3 C           1.9896    0.5491   26.9444 C.3     1  UNL1        0.0951
      4 N           2.4554    0.0536   28.2814 N.am    1  UNL1       -0.2794
      5 C           1.4552   -0.2686   29.3519 C.2     1  UNL1        0.2251
      6 O           1.9209   -0.7641   30.6889 O.2     1  UNL1       -0.2749
      7 C           3.9213   -0.1197   28.5480 C.3     1  UNL1        0.0964
      8 C           4.9214    0.2025   27.4775 C.3     1  UNL1        0.0539
      9 N           6.7341    0.3499   22.9098 N.am    1  UNL1       -0.2485
     10 C           5.7340    0.0277   23.9803 C.2     1  UNL1        0.3058
     11 O           5.0119   -1.2870   23.9610 O.2     1  UNL1       -0.2524
     12 N           5.4558    1.0202   25.0700 N.am    1  UNL1       -0.2901
     13 H           7.2080    1.2127   22.9225 H       1  UNL1        0.1583
     14 H           5.9297    1.8831   25.0827 H       1  UNL1        0.1509
     15 C           6.8012   -1.9750   19.8024 C.ar    1  UNL1        0.0803
     16 S           6.1417   -0.9106   20.6284 S.2     1  UNL1       -0.0488
     17 C           7.0123   -0.6426   21.8201 C.ar    1  UNL1        0.1664
     18 N           8.2099   -1.5413   21.7306 N.ar    1  UNL1       -0.2282
     19 C           8.0795   -2.3648   20.4837 C.ar    1  UNL1        0.0701
     20 C           9.0559   -3.3968   20.0025 C.3     1  UNL1        0.0528
     21 C           5.1230   -3.5093   18.5457 C.3     1  UNL1        0.0779
     22 C           6.2749   -2.5488   18.5203 C.2     1  UNL1        0.1807
     23 O           6.9004   -2.1621   17.2130 O.2     1  UNL1       -0.2908
     24 C          -0.0107   -0.0954   29.0853 C.3     1  UNL1        0.0767
     25 C          -1.2252    0.7829   29.0252 C.3     1  UNL1        0.0096
     26 C          -1.3353   -0.6735   28.6838 C.3     1  UNL1        0.0096
     27 C           6.3874    0.0292   27.7440 C.3     1  UNL1        0.0754
     28 N           6.9080   -1.2844   28.2473 N.3     1  UNL1       -0.2726
     29 C           7.9706   -1.3142   29.3057 C.3     1  UNL1        0.0721
     30 C           8.4913   -2.6278   29.8089 C.3     1  UNL1        0.0174
     31 C           7.9493   -3.9117   29.2539 C.3     1  UNL1        0.0031
     32 C           6.8867   -3.8818   28.1956 C.3     1  UNL1        0.0204
     33 C           6.3661   -2.5682   27.6923 C.3     1  UNL1        0.0724
     34 C           6.3448   -5.1657   27.6405 C.3     1  UNL1        0.0277
     35 C           6.9820   -5.7895   26.4343 C.ar    1  UNL1       -0.0220
     36 C           7.1707   -4.9825   25.1840 C.ar    1  UNL1       -0.0020
     37 C           7.8079   -5.6062   23.9778 C.ar    1  UNL1        0.0293
     38 C           8.2564   -7.0370   24.0219 C.ar    1  UNL1        0.1401
     39 F           8.8936   -7.6607   22.8157 F       1  UNL1       -0.2042
     40 C           8.0676   -7.8439   25.2722 C.ar    1  UNL1        0.0293
     41 C           7.4304   -7.2202   26.4784 C.ar    1  UNL1       -0.0020
@<TRIPOS>BOND
     1    21    22    1
     2    22    23    2
     3    22    15    1
     4    15    16   ar
     5    16    17   ar
     6    17     9    1
     7     9    10   am
     8    10    11    2
     9    10    12   am
    10     1    12    1
    11     1     2    1
    12     2     3    1
    13     3     4    1
    14     4     5   am
    15     5     6    2
    16     5    24    1
    17    24    25    1
    18    25    26    1
    19     4     7    1
    20     7     8    1
    21     8    27    1
    22    27    28    1
    23    28    29    1
    24    29    30    1
    25    30    31    1
    26    31    32    1
    27    32    34    1
    28    34    35    1
    29    35    36   ar
    30    36    37   ar
    31    37    38   ar
    32    38    39    1
    33    38    40   ar
    34    40    41   ar
    35    32    33    1
    36    17    18   ar
    37    18    19   ar
    38    19    20    1
    39    19    15   ar
    40     8     1    1
    41    33    28    1
    42    26    24    1
    43    41    35   ar
    44     9    13    1
    45    12    14    1
@<TRIPOS>MOLECULE
*****
 41 45 0 0 0
SMALL
GASTEIGER

@<TRIPOS>ATOM
      1 C           6.3098   -2.7804   27.3160 C.3     1  UNL1        0.0777
      2 C           6.6787   -3.9689   28.1535 C.3     1  UNL1        0.0412
      3 C           7.1810   -5.2212   27.4984 C.3     1  UNL1        0.0951
      4 N           7.3143   -5.2852   26.0057 N.am    1  UNL1       -0.2794
      5 C           7.8165   -6.5377   25.3505 C.2     1  UNL1        0.2251
      6 O           7.9499   -6.6016   23.8578 O.2     1  UNL1       -0.2749
      7 C           6.9454   -4.0968   25.1681 C.3     1  UNL1        0.0964
      8 C           6.4432   -2.8444   25.8233 C.3     1  UNL1        0.0539
      9 N           3.8659    0.1210   28.4818 N.am    1  UNL1       -0.2485
     10 C           4.3682   -1.1314   27.8267 C.2     1  UNL1        0.3058
     11 O           3.4310   -1.9874   27.0272 O.2     1  UNL1       -0.2524
     12 N           5.8076   -1.5280   27.9711 N.am    1  UNL1       -0.2901
     13 H           4.4810    0.6827   29.0066 H       1  UNL1        0.1583
     14 H           6.4227   -0.9662   28.4959 H       1  UNL1        0.1509
     15 C           0.4049    1.6455   27.6083 C.ar    1  UNL1        0.0803
     16 S           1.8935    1.5883   27.4323 S.2     1  UNL1       -0.0488
     17 C           2.4265    0.5175   28.3374 C.ar    1  UNL1        0.1664
     18 N           1.2673   -0.0872   29.0727 N.ar    1  UNL1       -0.2282
     19 C           0.0179    0.6099   28.6221 C.ar    1  UNL1        0.0701
     20 C          -1.3740    0.3220   29.1012 C.3     1  UNL1        0.0528
     21 C          -1.0025    2.2480   25.5092 C.3     1  UNL1        0.0779
     22 C          -0.5321    2.5750   26.8955 C.2     1  UNL1        0.1807
     23 O          -0.9987    3.8313   27.5690 O.2     1  UNL1       -0.2908
     24 C           8.1854   -7.7261   26.1881 C.3     1  UNL1        0.0767
     25 C           7.7930   -8.8154   27.1417 C.3     1  UNL1        0.0096
     26 C           9.2168   -8.6952   26.6851 C.3     1  UNL1        0.0096
     27 C           6.0742   -1.6559   24.9857 C.3     1  UNL1        0.0754
     28 N           6.1729   -1.7321   23.4909 N.3     1  UNL1       -0.2726
     29 C           7.4796   -1.4505   22.8102 C.3     1  UNL1        0.0721
     30 C           7.5783   -1.5267   21.3154 C.3     1  UNL1        0.0174
     31 C           6.3703   -1.8845   20.5013 C.3     1  UNL1        0.0031
     32 C           5.0636   -2.1660   21.1820 C.3     1  UNL1        0.0204
     33 C           4.9649   -2.0898   22.6768 C.3     1  UNL1        0.0724
     34 C           3.8556   -2.5238   20.3679 C.3     1  UNL1        0.0277
     35 C           3.0105   -1.4414   19.7643 C.ar    1  UNL1       -0.0220
     36 C           1.7224   -1.0416   20.4208 C.ar    1  UNL1       -0.0020
     37 C           0.8774    0.0408   19.8172 C.ar    1  UNL1        0.0293
     38 C           1.3205    0.7235   18.5571 C.ar    1  UNL1        0.1401
     39 F           0.4755    1.8059   17.9535 F       1  UNL1       -0.2042
     40 C           2.6086    0.3237   17.9007 C.ar    1  UNL1        0.0293
     41 C           3.4536   -0.7587   18.5043 C.ar    1  UNL1       -0.0020
@<TRIPOS>BOND
     1    21    22    1
     2    22    23    2
     3    22    15    1
     4    15    16   ar
     5    16    17   ar
     6    17     9    1
     7     9    10   am
     8    10    11    2
     9    10    12   am
    10     1    12    1
    11     1     2    1
    12     2     3    1
    13     3     4    1
    14     4     5   am
    15     5     6    2
    16     5    24    1
    17    24    25    1
    18    25    26    1
    19     4     7    1
    20     7     8    1
    21     8    27    1
    22    27    28    1
    23    28    29    1
    24    29    30    1
    25    30    31    1
    26    31    32    1
    27    32    34    1
    28    34    35    1
    29    35    36   ar
    30    36    37   ar
    31    37    38   ar
    32    38    39    1
    33    38    40   ar
    34    40    41   ar
    35    32    33    1
    36    17    18   ar
    37    18    19   ar
    38    19    20    1
    39    19    15   ar
    40     8     1    1
    41    33    28    1
    42    26    24    1
    43    41    35   ar
    44     9    13    1
    45    12    14    1
@<TRIPOS>MOLECULE
*****
 41 45 0 0 0
SMALL
GASTEIGER

@<TRIPOS>ATOM
      1 C           2.8865    1.2127   21.3494 C.3     1  UNL1        0.0777
      2 C           2.6762   -0.2367   21.6733 C.3     1  UNL1        0.0412
      3 C           3.1242   -1.2936   20.7078 C.3     1  UNL1        0.0951
      4 N           3.7824   -0.9012   19.4184 N.am    1  UNL1       -0.2794
      5 C           4.2304   -1.9582   18.4529 C.2     1  UNL1        0.2251
      6 O           4.8887   -1.5657   17.1634 O.2     1  UNL1       -0.2749
      7 C           3.9927    0.5482   19.0944 C.3     1  UNL1        0.0964
      8 C           3.5448    1.6051   20.0599 C.3     1  UNL1        0.0539
      9 N           0.5526    3.7523   23.3123 N.am    1  UNL1       -0.2485
     10 C           1.0006    2.6953   22.3469 C.2     1  UNL1        0.3058
     11 O           0.0106    2.0640   21.4134 O.2     1  UNL1       -0.2524
     12 N           2.4385    2.2697   22.3149 N.am    1  UNL1       -0.2901
     13 H           1.2023    4.1666   23.9250 H       1  UNL1        0.1583
     14 H           3.0883    2.6840   22.9275 H       1  UNL1        0.1509
     15 C          -3.2741    4.2103   23.7728 C.ar    1  UNL1        0.0803
     16 S          -2.0152    3.4207   23.9768 S.2     1  UNL1       -0.0488
     17 C          -0.8854    4.1780   23.3443 C.ar    1  UNL1        0.1664
     18 N          -1.4461    5.4356   22.7495 N.ar    1  UNL1       -0.2282
     19 C          -2.9224    5.4557   23.0143 C.ar    1  UNL1        0.0701
     20 C          -3.8789    6.5320   22.5943 C.3     1  UNL1        0.0528
     21 C          -5.7555    3.6420   23.2534 C.3     1  UNL1        0.0779
     22 C          -4.6442    3.8227   24.2446 C.2     1  UNL1        0.1807
     23 O          -4.9031    3.6157   25.7075 O.2     1  UNL1       -0.2908
     24 C           4.0201   -3.4076   18.7768 C.3     1  UNL1        0.0767
     25 C           3.1030   -4.5378   19.1395 C.3     1  UNL1        0.0096
     26 C           4.5728   -4.7878   18.9753 C.3     1  UNL1        0.0096
     27 C           3.7551    3.0546   19.7360 C.3     1  UNL1        0.0754
     28 N           2.5740    3.9571   19.5347 N.3     1  UNL1       -0.2726
     29 C           2.5143    5.2819   20.2357 C.3     1  UNL1        0.0721
     30 C           1.3332    6.1844   20.0344 C.3     1  UNL1        0.0174
     31 C           0.2118    5.7621   19.1320 C.3     1  UNL1        0.0031
     32 C           0.2716    4.4374   18.4310 C.3     1  UNL1        0.0204
     33 C           1.4527    3.5349   18.6323 C.3     1  UNL1        0.0724
     34 C          -0.8498    4.0151   17.5286 C.3     1  UNL1        0.0277
     35 C          -2.2400    3.8759   18.0746 C.ar    1  UNL1       -0.0220
     36 C          -2.4495    3.6365   19.5405 C.ar    1  UNL1       -0.0020
     37 C          -3.8397    3.4973   20.0865 C.ar    1  UNL1        0.0293
     38 C          -5.0203    3.5974   19.1665 C.ar    1  UNL1        0.1401
     39 F          -6.4104    3.4581   19.7125 F       1  UNL1       -0.2042
     40 C          -4.8107    3.8367   17.7007 C.ar    1  UNL1        0.0293
     41 C          -3.4205    3.9760   17.1547 C.ar    1  UNL1       -0.0020
@<TRIPOS>BOND
     1    21    22    1
     2    22    23    2
     3    22    15    1
     4    15    16   ar
     5    16    17   ar
     6    17     9    1
     7     9    10   am
     8    10    11    2
     9    10    12   am
    10     1    12    1
    11     1     2    1
    12     2     3    1
    13     3     4    1
    14     4     5   am
    15     5     6    2
    16     5    24    1
    17    24    25    1
    18    25    26    1
    19     4     7    1
    20     7     8    1
    21     8    27    1
    22    27    28    1
    23    28    29    1
    24    29    30    1
    25    30    31    1
    26    31    32    1
    27    32    34    1
    28    34    35    1
    29    35    36   ar
    30    36    37   ar
    31    37    38   ar
    32    38    39    1
    33    38    40   ar
    34    40    41   ar
    35    32    33    1
    36    17    18   ar
    37    18    19   ar
    38    19    20    1
    39    19    15   ar
    40     8     1    1
    41    33    28    1
    42    26    24    1
    43    41    35   ar
    44     9    13    1
    45    12    14    1
@<TRIPOS>MOLECULE
*****
 41 45 0 0 0
SMALL
GASTEIGER

@<TRIPOS>ATOM
      1 C           4.1897    0.7967   29.1952 C.3     1  UNL1        0.0777
      2 C           5.3944   -0.0875   29.0653 C.3     1  UNL1        0.0412
      3 C           5.6681   -1.1389   30.0994 C.3     1  UNL1        0.0951
      4 N           4.7371   -1.3061   31.2636 N.am    1  UNL1       -0.2794
      5 C           5.0109   -2.3576   32.2978 C.2     1  UNL1        0.2251
      6 O           4.0799   -2.5248   33.4620 O.2     1  UNL1       -0.2749
      7 C           3.5325   -0.4220   31.3936 C.3     1  UNL1        0.0964
      8 C           3.2587    0.6294   30.3594 C.3     1  UNL1        0.0539
      9 N           3.2588    2.4988   25.7331 N.am    1  UNL1       -0.2485
     10 C           3.5326    1.4474   26.7673 C.2     1  UNL1        0.3058
     11 O           3.4230   -0.0048   26.4078 O.2     1  UNL1       -0.2524
     12 N           3.9160    1.8482   28.1610 N.am    1  UNL1       -0.2901
     13 H           3.3308    3.4519   25.9690 H       1  UNL1        0.1583
     14 H           3.9879    2.8013   28.3970 H       1  UNL1        0.1509
     15 C           1.5604    1.5279   22.3807 C.ar    1  UNL1        0.0803
     16 S           1.4769    1.9377   23.8212 S.2     1  UNL1       -0.0488
     17 C           2.8754    2.0981   24.3394 C.ar    1  UNL1        0.1664
     18 N           3.8232    1.7873   23.2191 N.ar    1  UNL1       -0.2282
     19 C           3.0105    1.4349   22.0086 C.ar    1  UNL1        0.0701
     20 C           3.5528    1.0561   20.6623 C.3     1  UNL1        0.0528
     21 C           0.3797    0.0209   20.6244 C.3     1  UNL1        0.0779
     22 C           0.3979    1.2584   21.4720 C.2     1  UNL1        0.1807
     23 O          -0.7464    2.2262   21.4108 O.2     1  UNL1       -0.2908
     24 C           6.2156   -3.2417   32.1679 C.3     1  UNL1        0.0767
     25 C           6.8130   -4.5953   31.9210 C.3     1  UNL1        0.0096
     26 C           7.7048   -3.4196   32.1895 C.3     1  UNL1        0.0096
     27 C           2.0540    1.5137   30.4893 C.3     1  UNL1        0.0754
     28 N           0.9526    1.4344   29.4742 N.3     1  UNL1       -0.2726
     29 C           0.2552    0.1301   29.2244 C.3     1  UNL1        0.0721
     30 C          -0.8462    0.0508   28.2092 C.3     1  UNL1        0.0174
     31 C          -1.2503    1.2760   27.4438 C.3     1  UNL1        0.0031
     32 C          -0.5530    2.5803   27.6936 C.3     1  UNL1        0.0204
     33 C           0.5485    2.6595   28.7088 C.3     1  UNL1        0.0724
     34 C          -0.9570    3.8055   26.9283 C.3     1  UNL1        0.0277
     35 C          -2.1795    3.7778   26.0595 C.ar    1  UNL1       -0.0220
     36 C          -2.0446    3.5591   24.5816 C.ar    1  UNL1       -0.0020
     37 C          -3.2671    3.5314   23.7129 C.ar    1  UNL1        0.0293
     38 C          -4.6245    3.7225   24.3220 C.ar    1  UNL1        0.1401
     39 F          -5.8470    3.6948   23.4532 F       1  UNL1       -0.2042
     40 C          -4.7594    3.9412   25.7998 C.ar    1  UNL1        0.0293
     41 C          -3.5369    3.9689   26.6685 C.ar    1  UNL1       -0.0020
@<TRIPOS>BOND
     1    21    22    1
     2    22    23    2
     3    22    15    1
     4    15    16   ar
     5    16    17   ar
     6    17     9    1
     7     9    10   am
     8    10    11    2
     9    10    12   am
    10     1    12    1
    11     1     2    1
    12     2     3    1
    13     3     4    1
    14     4     5   am
    15     5     6    2
    16     5    24    1
    17    24    25    1
    18    25    26    1
    19     4     7    1
    20     7     8    1
    21     8    27    1
    22    27    28    1
    23    28    29    1
    24    29    30    1
    25    30    31    1
    26    31    32    1
    27    32    34    1
    28    34    35    1
    29    35    36   ar
    30    36    37   ar
    31    37    38   ar
    32    38    39    1
    33    38    40   ar
    34    40    41   ar
    35    32    33    1
    36    17    18   ar
    37    18    19   ar
    38    19    20    1
    39    19    15   ar
    40     8     1    1
    41    33    28    1
    42    26    24    1
    43    41    35   ar
    44     9    13    1
    45    12    14    1
@<TRIPOS>MOLECULE
*****
 41 45 0 0 0
SMALL
GASTEIGER

@<TRIPOS>ATOM
      1 C           4.6520   -1.8650   23.4212 C.3     1  UNL1        0.0777
      2 C           3.5513   -1.7061   22.4147 C.3     1  UNL1        0.0412
      3 C           3.8733   -1.2861   21.0112 C.3     1  UNL1        0.0951
      4 N           5.2961   -1.0249   20.6143 N.am    1  UNL1       -0.2794
      5 C           5.6181   -0.6049   19.2107 C.2     1  UNL1        0.2251
      6 O           7.0409   -0.3438   18.8137 O.2     1  UNL1       -0.2749
      7 C           6.3968   -1.1838   21.6208 C.3     1  UNL1        0.0964
      8 C           6.0748   -1.6039   23.0243 C.3     1  UNL1        0.0539
      9 N           3.6164   -1.6767   27.2477 N.am    1  UNL1       -0.2485
     10 C           3.9384   -1.2567   25.8442 C.2     1  UNL1        0.3058
     11 O           3.8688    0.1916   25.4601 O.2     1  UNL1       -0.2524
     12 N           4.3300   -2.2850   24.8248 N.am    1  UNL1       -0.2901
     13 H           3.6621   -2.6272   27.4999 H       1  UNL1        0.1583
     14 H           4.3757   -3.2356   25.0769 H       1  UNL1        0.1509
     15 C           1.9339    0.9658   29.5395 C.ar    1  UNL1        0.0803
     16 S           1.8810    0.0074   28.3869 S.2     1  UNL1       -0.0488
     17 C           3.2248   -0.6484   28.2672 C.ar    1  UNL1        0.1664
     18 N           4.1081   -0.0952   29.3459 N.ar    1  UNL1       -0.2282
     19 C           3.3104    0.9024   30.1323 C.ar    1  UNL1        0.0701
     20 C           3.8027    1.6970   31.3054 C.3     1  UNL1        0.0528
     21 C           0.7452    3.2751   29.6012 C.3     1  UNL1        0.0779
     22 C           0.8080    1.8350   30.0159 C.2     1  UNL1        0.1807
     23 O          -0.2550    1.2640   30.9068 O.2     1  UNL1       -0.2908
     24 C           4.5174   -0.4460   18.2042 C.3     1  UNL1        0.0767
     25 C           3.2388    0.2069   17.7696 C.3     1  UNL1        0.0096
     26 C           3.8895   -0.8237   16.8954 C.3     1  UNL1        0.0096
     27 C           7.1755   -1.7628   24.0309 C.3     1  UNL1        0.0754
     28 N           7.5746   -3.1319   24.4960 N.3     1  UNL1       -0.2726
     29 C           7.2880   -4.3285   23.6381 C.3     1  UNL1        0.0721
     30 C           7.6871   -5.6976   24.1032 C.3     1  UNL1        0.0174
     31 C           8.3727   -5.8701   25.4262 C.3     1  UNL1        0.0031
     32 C           8.6592   -4.6734   26.2840 C.3     1  UNL1        0.0204
     33 C           8.2602   -3.3043   25.8189 C.3     1  UNL1        0.0724
     34 C           9.3449   -4.8459   27.6070 C.3     1  UNL1        0.0277
     35 C           8.5643   -4.7052   28.8802 C.ar    1  UNL1       -0.0220
     36 C           7.7462   -5.8549   29.3892 C.ar    1  UNL1       -0.0020
     37 C           6.9657   -5.7143   30.6624 C.ar    1  UNL1        0.0293
     38 C           7.0032   -4.4240   31.4265 C.ar    1  UNL1        0.1401
     39 F           6.2227   -4.2834   32.6997 F       1  UNL1       -0.2042
     40 C           7.8213   -3.2744   30.9174 C.ar    1  UNL1        0.0293
     41 C           8.6018   -3.4150   29.6443 C.ar    1  UNL1       -0.0020
@<TRIPOS>BOND
     1    21    22    1
     2    22    23    2
     3    22    15    1
     4    15    16   ar
     5    16    17   ar
     6    17     9    1
     7     9    10   am
     8    10    11    2
     9    10    12   am
    10     1    12    1
    11     1     2    1
    12     2     3    1
    13     3     4    1
    14     4     5   am
    15     5     6    2
    16     5    24    1
    17    24    25    1
    18    25    26    1
    19     4     7    1
    20     7     8    1
    21     8    27    1
    22    27    28    1
    23    28    29    1
    24    29    30    1
    25    30    31    1
    26    31    32    1
    27    32    34    1
    28    34    35    1
    29    35    36   ar
    30    36    37   ar
    31    37    38   ar
    32    38    39    1
    33    38    40   ar
    34    40    41   ar
    35    32    33    1
    36    17    18   ar
    37    18    19   ar
    38    19    20    1
    39    19    15   ar
    40     8     1    1
    41    33    28    1
    42    26    24    1
    43    41    35   ar
    44     9    13    1
    45    12    14    1
@<TRIPOS>MOLECULE
*****
 41 45 0 0 0
SMALL
GASTEIGER

@<TRIPOS>ATOM
      1 C           3.4128    0.4772   21.7497 C.3     1  UNL1        0.0777
      2 C           4.8644    0.2326   22.0374 C.3     1  UNL1        0.0412
      3 C           5.6621   -0.6763   21.1501 C.3     1  UNL1        0.0951
      4 N           5.0081   -1.3406   19.9749 N.am    1  UNL1       -0.2794
      5 C           5.8059   -2.2496   19.0875 C.2     1  UNL1        0.2251
      6 O           5.1520   -2.9139   17.9123 O.2     1  UNL1       -0.2749
      7 C           3.5565   -1.0961   19.6871 C.3     1  UNL1        0.0964
      8 C           2.7588   -0.1871   20.5745 C.3     1  UNL1        0.0539
      9 N           1.4013    1.8344   24.8901 N.am    1  UNL1       -0.2485
     10 C           2.1990    0.9255   24.0027 C.2     1  UNL1        0.3058
     11 O           2.5808   -0.4441   24.4808 O.2     1  UNL1       -0.2524
     12 N           2.6150    1.3861   22.6371 N.am    1  UNL1       -0.2901
     13 H           1.1507    2.7333   24.5762 H       1  UNL1        0.1583
     14 H           2.3644    2.2850   22.3233 H       1  UNL1        0.1509
     15 C           1.0470    0.7610   28.6033 C.ar    1  UNL1        0.0803
     16 S           1.8764    1.2584   27.4567 S.2     1  UNL1       -0.0488
     17 C           0.9853    1.3738   26.2556 C.ar    1  UNL1        0.1664
     18 N          -0.3949    0.9476   26.6599 N.ar    1  UNL1       -0.2282
     19 C          -0.3568    0.5688   28.1108 C.ar    1  UNL1        0.0701
     20 C          -1.5185    0.0833   28.9261 C.3     1  UNL1        0.0528
     21 C           2.5599   -0.5659   30.2466 C.3     1  UNL1        0.0779
     22 C           1.5356    0.5012   29.9975 C.2     1  UNL1        0.1807
     23 O           1.0000    1.3086   31.1425 O.2     1  UNL1       -0.2908
     24 C           7.2576   -2.4942   19.3752 C.3     1  UNL1        0.0767
     25 C           8.3275   -3.0991   20.2351 C.3     1  UNL1        0.0096
     26 C           8.7020   -2.3129   19.0138 C.3     1  UNL1        0.0096
     27 C           1.3071    0.0575   20.2868 C.3     1  UNL1        0.0754
     28 N           0.8394    1.4302   19.9035 N.3     1  UNL1       -0.2726
     29 C           1.7648    2.3629   19.1797 C.3     1  UNL1        0.0721
     30 C           1.2972    3.7356   18.7964 C.3     1  UNL1        0.0174
     31 C          -0.0959    4.1756   19.1369 C.3     1  UNL1        0.0031
     32 C          -1.0212    3.2430   19.8606 C.3     1  UNL1        0.0204
     33 C          -0.5536    1.8702   20.2439 C.3     1  UNL1        0.0724
     34 C          -2.4143    3.6830   20.2010 C.3     1  UNL1        0.0277
     35 C          -2.8970    3.6138   21.6195 C.ar    1  UNL1       -0.0220
     36 C          -4.3227    3.2486   21.9097 C.ar    1  UNL1       -0.0020
     37 C          -4.8055    3.1795   23.3282 C.ar    1  UNL1        0.0293
     38 C          -3.8625    3.4756   24.4566 C.ar    1  UNL1        0.1401
     39 F          -4.3452    3.4065   25.8751 F       1  UNL1       -0.2042
     40 C          -2.4369    3.8408   24.1664 C.ar    1  UNL1        0.0293
     41 C          -1.9542    3.9099   22.7479 C.ar    1  UNL1       -0.0020
@<TRIPOS>BOND
     1    21    22    1
     2    22    23    2
     3    22    15    1
     4    15    16   ar
     5    16    17   ar
     6    17     9    1
     7     9    10   am
     8    10    11    2
     9    10    12   am
    10     1    12    1
    11     1     2    1
    12     2     3    1
    13     3     4    1
    14     4     5   am
    15     5     6    2
    16     5    24    1
    17    24    25    1
    18    25    26    1
    19     4     7    1
    20     7     8    1
    21     8    27    1
    22    27    28    1
    23    28    29    1
    24    29    30    1
    25    30    31    1
    26    31    32    1
    27    32    34    1
    28    34    35    1
    29    35    36   ar
    30    36    37   ar
    31    37    38   ar
    32    38    39    1
    33    38    40   ar
    34    40    41   ar
    35    32    33    1
    36    17    18   ar
    37    18    19   ar
    38    19    20    1
    39    19    15   ar
    40     8     1    1
    41    33    28    1
    42    26    24    1
    43    41    35   ar
    44     9    13    1
    45    12    14    1
