@<TRIPOS>MOLECULE
*****
 35 39 0 0 0
SMALL
GASTEIGER

@<TRIPOS>ATOM
      1 C         -10.0007  -17.8988   19.7431 C.3     1  UNL1        0.0730
      2 N          -9.3446  -18.8295   20.7195 N.3     1  UNL1       -0.2726
      3 C         -10.0444  -19.8327   21.5879 C.3     1  UNL1        0.0721
      4 C          -9.0058  -20.5436   22.4039 C.3     1  UNL1        0.0190
      5 C          -7.6643  -19.9799   22.0399 C.3     1  UNL1        0.0201
      6 C          -6.8716  -20.8466   22.9729 C.3     1  UNL1        0.0061
      7 C          -6.1719  -19.8435   22.1045 C.3     1  UNL1        0.0237
      8 C          -7.8737  -18.9205   20.9989 C.3     1  UNL1        0.0724
      9 C          -4.9063  -19.1855   21.6404 C.ar    1  UNL1       -0.0225
     10 C          -4.5459  -19.1959   20.1844 C.ar    1  UNL1       -0.0043
     11 C          -3.2803  -18.5380   19.7203 C.ar    1  UNL1        0.0035
     12 C          -2.3752  -17.8696   20.7122 C.ar    1  UNL1        0.0714
     13 C          -2.7356  -17.8592   22.1683 C.ar    1  UNL1        0.0035
     14 C          -4.0012  -18.5172   22.6324 C.ar    1  UNL1       -0.0043
     15 C          -1.1096  -17.2117   20.2482 C.3     1  UNL1        0.4186
     16 F           0.1561  -16.5537   19.7840 F       1  UNL1       -0.1659
     17 F          -1.3499  -16.0778   21.2003 F       1  UNL1       -0.1659
     18 F          -0.8693  -18.3456   19.2960 F       1  UNL1       -0.1659
     19 C         -11.4956  -17.8691   19.6237 C.3     1  UNL1        0.0294
     20 C         -12.3026  -16.9812   20.5240 C.3     1  UNL1        0.0666
     21 S         -12.6991  -17.4592   21.8894 S.3     1  UNL1       -0.0756
     22 C         -10.0897  -15.5220   22.1857 C.3     1  UNL1        0.1340
     23 N         -10.4819  -16.6228   23.1261 N.ar    1  UNL1       -0.2884
     24 C         -11.6814  -17.5132   22.9900 C.ar    1  UNL1        0.1932
     25 N         -11.6844  -18.4671   24.1476 N.ar    1  UNL1       -0.1221
     26 N         -10.4868  -18.1663   24.9992 N.ar    1  UNL1       -0.1282
     27 C          -9.7436  -17.0264   24.3680 C.ar    1  UNL1        0.1683
     28 C          -8.4834  -16.4001   24.8874 C.ar    1  UNL1        0.0534
     29 C          -8.3613  -16.0559   26.3422 C.ar    1  UNL1        0.0094
     30 C          -7.1011  -15.4297   26.8616 C.ar    1  UNL1        0.0609
     31 C          -5.9630  -15.1477   25.9260 C.ar    1  UNL1        0.2610
     32 O          -4.7028  -14.5214   26.4453 O.2     1  UNL1       -0.2670
     33 N          -6.0851  -15.4919   24.4711 N.ar    1  UNL1       -0.2921
     34 C          -4.9470  -15.2098   23.5356 C.3     1  UNL1        0.1336
     35 C          -7.3454  -16.1181   23.9518 C.ar    1  UNL1        0.0814
@<TRIPOS>BOND
     1    22    23    1
     2    23    24   ar
     3    24    21    1
     4    21    20    1
     5    20    19    1
     6    19     1    1
     7     1     2    1
     8     2     3    1
     9     3     4    1
    10     5     4    1
    11     5     6    1
    12     6     7    1
    13     7     9    1
    14     9    10   ar
    15    10    11   ar
    16    11    12   ar
    17    12    15    1
    18    15    16    1
    19    15    17    1
    20    15    18    1
    21    12    13   ar
    22    13    14   ar
    23     5     8    1
    24    24    25   ar
    25    25    26   ar
    26    26    27   ar
    27    27    28    1
    28    28    29   ar
    29    29    30   ar
    30    30    31   ar
    31    31    32    2
    32    31    33   ar
    33    33    34    1
    34    33    35   ar
    35    27    23   ar
    36    35    28   ar
    37     8     2    1
    38     7     5    1
    39    14     9   ar
@<TRIPOS>MOLECULE
*****
 35 39 0 0 0
SMALL
GASTEIGER

@<TRIPOS>ATOM
      1 C         -11.0892  -18.7955   19.2782 C.3     1  UNL1        0.0730
      2 N         -10.4916  -19.2968   20.5595 N.3     1  UNL1       -0.2726
      3 C         -11.2522  -19.8200   21.7417 C.3     1  UNL1        0.0721
      4 C         -10.2592  -20.2095   22.7963 C.3     1  UNL1        0.0190
      5 C          -8.8848  -19.9269   22.2658 C.3     1  UNL1        0.0201
      6 C          -8.1469  -20.3959   23.4846 C.3     1  UNL1        0.0061
      7 C          -7.3863  -19.8726   22.3024 C.3     1  UNL1        0.0237
      8 C          -9.0285  -19.3628   20.8834 C.3     1  UNL1        0.0724
      9 C          -6.0819  -19.5392   21.6409 C.ar    1  UNL1       -0.0225
     10 C          -4.8067  -19.5897   22.4292 C.ar    1  UNL1       -0.0043
     11 C          -3.5024  -19.2563   21.7677 C.ar    1  UNL1        0.0035
     12 C          -3.4733  -18.8724   20.3180 C.ar    1  UNL1        0.0714
     13 C          -4.7485  -18.8219   19.5297 C.ar    1  UNL1        0.0035
     14 C          -6.0528  -19.1553   20.1912 C.ar    1  UNL1       -0.0043
     15 C          -2.1690  -18.5389   19.6566 C.3     1  UNL1        0.4186
     16 F          -0.8646  -18.2055   18.9950 F       1  UNL1       -0.1659
     17 F          -1.4531  -19.4501   20.6090 F       1  UNL1       -0.1659
     18 F          -2.8849  -17.6278   18.7041 F       1  UNL1       -0.1659
     19 C         -11.3924  -17.3358   19.1127 C.3     1  UNL1        0.0294
     20 C         -12.4011  -16.6735   20.0037 C.3     1  UNL1        0.0666
     21 S         -11.9906  -16.1673   21.3547 S.3     1  UNL1       -0.0756
     22 C         -10.3090  -17.0050   24.0231 C.3     1  UNL1        0.1340
     23 N          -9.7792  -16.2273   22.8550 N.ar    1  UNL1       -0.2884
     24 C         -10.5521  -15.8422   21.6285 C.ar    1  UNL1        0.1932
     25 N          -9.6340  -15.0751   20.7238 N.ar    1  UNL1       -0.1221
     26 N          -8.2936  -14.9859   21.3912 N.ar    1  UNL1       -0.1282
     27 C          -8.3832  -15.6980   22.7083 C.ar    1  UNL1        0.1683
     28 C          -7.2722  -15.8536   23.7040 C.ar    1  UNL1        0.0534
     29 C          -5.9258  -16.3396   23.2556 C.ar    1  UNL1        0.0094
     30 C          -4.8147  -16.4952   24.2512 C.ar    1  UNL1        0.0609
     31 C          -5.0501  -16.1646   25.6954 C.ar    1  UNL1        0.2610
     32 O          -3.9390  -16.3201   26.6910 O.2     1  UNL1       -0.2670
     33 N          -6.3965  -15.6785   26.1438 N.ar    1  UNL1       -0.2921
     34 C          -6.6317  -15.3480   27.5879 C.3     1  UNL1        0.1336
     35 C          -7.5075  -15.5230   25.1480 C.ar    1  UNL1        0.0814
@<TRIPOS>BOND
     1    22    23    1
     2    23    24   ar
     3    24    21    1
     4    21    20    1
     5    20    19    1
     6    19     1    1
     7     1     2    1
     8     2     3    1
     9     3     4    1
    10     5     4    1
    11     5     6    1
    12     6     7    1
    13     7     9    1
    14     9    10   ar
    15    10    11   ar
    16    11    12   ar
    17    12    15    1
    18    15    16    1
    19    15    17    1
    20    15    18    1
    21    12    13   ar
    22    13    14   ar
    23     5     8    1
    24    24    25   ar
    25    25    26   ar
    26    26    27   ar
    27    27    28    1
    28    28    29   ar
    29    29    30   ar
    30    30    31   ar
    31    31    32    2
    32    31    33   ar
    33    33    34    1
    34    33    35   ar
    35    27    23   ar
    36    35    28   ar
    37     8     2    1
    38     7     5    1
    39    14     9   ar
@<TRIPOS>MOLECULE
*****
 35 39 0 0 0
SMALL
GASTEIGER

@<TRIPOS>ATOM
      1 C          -2.8494  -19.9801   21.7193 C.3     1  UNL1        0.0730
      2 N          -2.7723  -18.4828   21.7647 N.3     1  UNL1       -0.2726
      3 C          -1.8574  -17.6218   20.9451 C.3     1  UNL1        0.0721
      4 C          -2.1161  -16.1905   21.3116 C.3     1  UNL1        0.0190
      5 C          -3.1910  -16.1668   22.3576 C.3     1  UNL1        0.0201
      6 C          -3.2266  -14.6753   22.5121 C.3     1  UNL1        0.0061
      7 C          -4.1415  -15.5362   23.3317 C.3     1  UNL1        0.0237
      8 C          -3.5965  -17.5836   22.6376 C.3     1  UNL1        0.0724
      9 C          -5.2185  -15.6692   24.3672 C.ar    1  UNL1       -0.0225
     10 C          -6.6571  -15.7400   23.9484 C.ar    1  UNL1       -0.0043
     11 C          -7.7341  -15.8730   24.9839 C.ar    1  UNL1        0.0035
     12 C          -7.3725  -15.9352   26.4383 C.ar    1  UNL1        0.0714
     13 C          -5.9339  -15.8644   26.8572 C.ar    1  UNL1        0.0035
     14 C          -4.8569  -15.7314   25.8217 C.ar    1  UNL1       -0.0043
     15 C          -8.4495  -16.0682   27.4739 C.3     1  UNL1        0.4186
     16 F          -9.5265  -16.2012   28.5095 F       1  UNL1       -0.1659
     17 F          -8.6673  -17.4946   27.0641 F       1  UNL1       -0.1659
     18 F          -8.2316  -14.6418   27.8836 F       1  UNL1       -0.1659
     19 C          -3.3256  -20.6692   20.4749 C.3     1  UNL1        0.0294
     20 C          -4.7876  -20.6861   20.1395 C.3     1  UNL1        0.0666
     21 S          -5.4811  -19.4161   19.7446 S.3     1  UNL1       -0.0756
     22 C          -7.1028  -18.8825   22.5258 C.3     1  UNL1        0.1340
     23 N          -7.7149  -19.0532   21.1671 N.ar    1  UNL1       -0.2884
     24 C          -6.9696  -19.2984   19.8887 C.ar    1  UNL1        0.1932
     25 N          -7.9739  -19.4054   18.7797 N.ar    1  UNL1       -0.1221
     26 N          -9.3400  -19.2262   19.3727 N.ar    1  UNL1       -0.1282
     27 C          -9.1800  -19.0085   20.8482 C.ar    1  UNL1        0.1683
     28 C         -10.2901  -18.7854   21.8320 C.ar    1  UNL1        0.0534
     29 C         -10.5743  -19.8123   22.8878 C.ar    1  UNL1        0.0094
     30 C         -11.6844  -19.5892   23.8716 C.ar    1  UNL1        0.0609
     31 C         -12.5103  -18.3391   23.7995 C.ar    1  UNL1        0.2610
     32 O         -13.6205  -18.1159   24.7833 O.2     1  UNL1       -0.2670
     33 N         -12.2262  -17.3121   22.7438 N.ar    1  UNL1       -0.2921
     34 C         -13.0521  -16.0621   22.6718 C.3     1  UNL1        0.1336
     35 C         -11.1160  -17.5354   21.7600 C.ar    1  UNL1        0.0814
@<TRIPOS>BOND
     1    22    23    1
     2    23    24   ar
     3    24    21    1
     4    21    20    1
     5    20    19    1
     6    19     1    1
     7     1     2    1
     8     2     3    1
     9     3     4    1
    10     5     4    1
    11     5     6    1
    12     6     7    1
    13     7     9    1
    14     9    10   ar
    15    10    11   ar
    16    11    12   ar
    17    12    15    1
    18    15    16    1
    19    15    17    1
    20    15    18    1
    21    12    13   ar
    22    13    14   ar
    23     5     8    1
    24    24    25   ar
    25    25    26   ar
    26    26    27   ar
    27    27    28    1
    28    28    29   ar
    29    29    30   ar
    30    30    31   ar
    31    31    32    2
    32    31    33   ar
    33    33    34    1
    34    33    35   ar
    35    27    23   ar
    36    35    28   ar
    37     8     2    1
    38     7     5    1
    39    14     9   ar
@<TRIPOS>MOLECULE
*****
 35 39 0 0 0
SMALL
GASTEIGER

@<TRIPOS>ATOM
      1 C           1.3797    3.3437   22.7767 C.3     1  UNL1        0.0730
      2 N           1.9353    2.3834   23.7861 N.3     1  UNL1       -0.2726
      3 C           2.0012    2.6026   25.2685 C.3     1  UNL1        0.0721
      4 C           2.6293    1.3899   25.8889 C.3     1  UNL1        0.0190
      5 C           2.9516    0.4212   24.7899 C.3     1  UNL1        0.0201
      6 C           3.5379   -0.6351   25.6789 C.3     1  UNL1        0.0061
      7 C           3.4720   -0.8543   24.1965 C.3     1  UNL1        0.0237
      8 C           2.5227    1.0352   23.4903 C.3     1  UNL1        0.0724
      9 C           3.7345   -1.7173   22.9980 C.ar    1  UNL1       -0.0225
     10 C           4.5084   -2.9935   23.1477 C.ar    1  UNL1       -0.0043
     11 C           4.7708   -3.8565   21.9492 C.ar    1  UNL1        0.0035
     12 C           4.2594   -3.4432   20.6010 C.ar    1  UNL1        0.0714
     13 C           3.4855   -2.1670   20.4513 C.ar    1  UNL1        0.0035
     14 C           3.2230   -1.3040   21.6498 C.ar    1  UNL1       -0.0043
     15 C           4.5218   -4.3062   19.4026 C.3     1  UNL1        0.4186
     16 F           4.7842   -5.1692   18.2040 F       1  UNL1       -0.1659
     17 F           5.9910   -4.0302   19.5256 F       1  UNL1       -0.1659
     18 F           3.0526   -4.5821   19.2795 F       1  UNL1       -0.1659
     19 C          -0.0774    3.6991   22.8023 C.3     1  UNL1        0.0294
     20 C          -1.0440    2.9658   21.9202 C.3     1  UNL1        0.0666
     21 S          -0.9524    3.1042   20.4294 S.3     1  UNL1       -0.0756
     22 C           0.6990    0.3132   20.0643 C.3     1  UNL1        0.1340
     23 N           1.1302    1.6635   19.5737 N.ar    1  UNL1       -0.2884
     24 C           0.3712    2.9464   19.7415 C.ar    1  UNL1        0.1932
     25 N           1.1681    4.0438   19.1007 N.ar    1  UNL1       -0.1221
     26 N           2.4197    3.4391   18.5368 N.ar    1  UNL1       -0.1282
     27 C           2.3964    1.9680   18.8291 C.ar    1  UNL1        0.1683
     28 C           3.4534    0.9757   18.4444 C.ar    1  UNL1        0.0534
     29 C           3.1486   -0.0916   17.4355 C.ar    1  UNL1        0.0094
     30 C           4.2057   -1.0839   17.0508 C.ar    1  UNL1        0.0609
     31 C           5.5676   -1.0087   17.6751 C.ar    1  UNL1        0.2610
     32 O           6.6247   -2.0010   17.2904 O.2     1  UNL1       -0.2670
     33 N           5.8724    0.0586   18.6840 N.ar    1  UNL1       -0.2921
     34 C           7.2343    0.1337   19.3082 C.3     1  UNL1        0.1336
     35 C           4.8153    1.0509   19.0686 C.ar    1  UNL1        0.0814
@<TRIPOS>BOND
     1    22    23    1
     2    23    24   ar
     3    24    21    1
     4    21    20    1
     5    20    19    1
     6    19     1    1
     7     1     2    1
     8     2     3    1
     9     3     4    1
    10     5     4    1
    11     5     6    1
    12     6     7    1
    13     7     9    1
    14     9    10   ar
    15    10    11   ar
    16    11    12   ar
    17    12    15    1
    18    15    16    1
    19    15    17    1
    20    15    18    1
    21    12    13   ar
    22    13    14   ar
    23     5     8    1
    24    24    25   ar
    25    25    26   ar
    26    26    27   ar
    27    27    28    1
    28    28    29   ar
    29    29    30   ar
    30    30    31   ar
    31    31    32    2
    32    31    33   ar
    33    33    34    1
    34    33    35   ar
    35    27    23   ar
    36    35    28   ar
    37     8     2    1
    38     7     5    1
    39    14     9   ar
@<TRIPOS>MOLECULE
*****
 35 39 0 0 0
SMALL
GASTEIGER

@<TRIPOS>ATOM
      1 C           7.1989   -4.0032   22.3472 C.3     1  UNL1        0.0730
      2 N           7.8759   -5.2188   22.9075 N.3     1  UNL1       -0.2726
      3 C           8.5868   -6.2759   22.1155 C.3     1  UNL1        0.0721
      4 C           9.1112   -7.3011   23.0767 C.3     1  UNL1        0.0190
      5 C           8.7244   -6.8776   24.4628 C.3     1  UNL1        0.0201
      6 C           9.3573   -8.0423   25.1649 C.3     1  UNL1        0.0061
      7 C           8.6464   -6.9852   25.9569 C.3     1  UNL1        0.0237
      8 C           7.9610   -5.5907   24.3582 C.3     1  UNL1        0.0724
      9 C           8.1910   -6.4370   27.2767 C.ar    1  UNL1       -0.0225
     10 C           9.1081   -6.4791   28.4630 C.ar    1  UNL1       -0.0043
     11 C           8.6526   -5.9309   29.7829 C.ar    1  UNL1        0.0035
     12 C           7.2801   -5.3406   29.9164 C.ar    1  UNL1        0.0714
     13 C           6.3631   -5.2985   28.7301 C.ar    1  UNL1        0.0035
     14 C           6.8185   -5.8467   27.4103 C.ar    1  UNL1       -0.0043
     15 C           6.8247   -4.7924   31.2363 C.3     1  UNL1        0.4186
     16 F           6.3692   -4.2442   32.5562 F       1  UNL1       -0.1659
     17 F           6.8306   -3.4064   30.6626 F       1  UNL1       -0.1659
     18 F           6.8188   -6.1783   31.8099 F       1  UNL1       -0.1659
     19 C           7.1566   -3.7851   20.8637 C.3     1  UNL1        0.0294
     20 C           8.2804   -3.0652   20.1790 C.3     1  UNL1        0.0666
     21 S           7.9822   -2.0209   19.1444 S.3     1  UNL1       -0.0756
     22 C           5.7586   -0.3983   20.8973 C.3     1  UNL1        0.1340
     23 N           5.5416   -1.0061   19.5433 N.ar    1  UNL1       -0.2884
     24 C           6.5637   -1.7519   18.7376 C.ar    1  UNL1        0.1932
     25 N           5.9182   -2.1816   17.4535 N.ar    1  UNL1       -0.1221
     26 N           4.4972   -1.7014   17.4656 N.ar    1  UNL1       -0.1282
     27 C           4.2644   -0.9748   18.7572 C.ar    1  UNL1        0.1683
     28 C           2.9800   -0.3303   19.1871 C.ar    1  UNL1        0.0534
     29 C           2.1483   -0.9608   20.2644 C.ar    1  UNL1        0.0094
     30 C           0.8639   -0.3162   20.6943 C.ar    1  UNL1        0.0609
     31 C           0.4113    0.9590   20.0468 C.ar    1  UNL1        0.2610
     32 O          -0.8732    1.6035   20.4768 O.2     1  UNL1       -0.2670
     33 N           1.2430    1.5895   18.9695 N.ar    1  UNL1       -0.2921
     34 C           0.7903    2.8646   18.3221 C.3     1  UNL1        0.1336
     35 C           2.5274    0.9448   18.5397 C.ar    1  UNL1        0.0814
@<TRIPOS>BOND
     1    22    23    1
     2    23    24   ar
     3    24    21    1
     4    21    20    1
     5    20    19    1
     6    19     1    1
     7     1     2    1
     8     2     3    1
     9     3     4    1
    10     5     4    1
    11     5     6    1
    12     6     7    1
    13     7     9    1
    14     9    10   ar
    15    10    11   ar
    16    11    12   ar
    17    12    15    1
    18    15    16    1
    19    15    17    1
    20    15    18    1
    21    12    13   ar
    22    13    14   ar
    23     5     8    1
    24    24    25   ar
    25    25    26   ar
    26    26    27   ar
    27    27    28    1
    28    28    29   ar
    29    29    30   ar
    30    30    31   ar
    31    31    32    2
    32    31    33   ar
    33    33    34    1
    34    33    35   ar
    35    27    23   ar
    36    35    28   ar
    37     8     2    1
    38     7     5    1
    39    14     9   ar
@<TRIPOS>MOLECULE
*****
 35 39 0 0 0
SMALL
GASTEIGER

@<TRIPOS>ATOM
      1 C           5.7184    4.6411   19.7826 C.3     1  UNL1        0.0730
      2 N           4.3162    4.2653   19.4047 N.3     1  UNL1       -0.2726
      3 C           3.1764    5.2161   19.1884 C.3     1  UNL1        0.0721
      4 C           1.9635    4.4110   18.8269 C.3     1  UNL1        0.0190
      5 C           2.3537    2.9626   18.8197 C.3     1  UNL1        0.0201
      6 C           1.0001    2.4374   18.4431 C.3     1  UNL1        0.0061
      7 C           2.1399    1.4866   18.6594 C.3     1  UNL1        0.0237
      8 C           3.8078    2.8726   19.1768 C.3     1  UNL1        0.0724
      9 C           2.6745    0.0855   18.6918 C.ar    1  UNL1       -0.0225
     10 C           3.4871   -0.4339   17.5429 C.ar    1  UNL1       -0.0043
     11 C           4.0217   -1.8350   17.5752 C.ar    1  UNL1        0.0035
     12 C           3.7438   -2.7167   18.7565 C.ar    1  UNL1        0.0714
     13 C           2.9312   -2.1972   19.9054 C.ar    1  UNL1        0.0035
     14 C           2.3966   -0.7961   19.8731 C.ar    1  UNL1       -0.0043
     15 C           4.2784   -4.1178   18.7889 C.3     1  UNL1        0.4186
     16 F           4.8130   -5.5190   18.8213 F       1  UNL1       -0.1659
     17 F           5.5207   -3.6600   18.0839 F       1  UNL1       -0.1659
     18 F           3.0361   -4.5755   19.4939 F       1  UNL1       -0.1659
     19 C           6.6892    5.0758   18.7250 C.3     1  UNL1        0.0294
     20 C           6.7994    4.3024   17.4444 C.3     1  UNL1        0.0666
     21 S           7.8935    3.2911   17.2708 S.3     1  UNL1       -0.0756
     22 C           8.0672    1.7010   20.1153 C.3     1  UNL1        0.1340
     23 N           7.6887    1.1032   18.7927 N.ar    1  UNL1       -0.2884
     24 C           7.6089    1.8340   17.4852 C.ar    1  UNL1        0.1932
     25 N           7.1944    0.8521   16.4298 N.ar    1  UNL1       -0.1221
     26 N           7.0181   -0.4857   17.0849 N.ar    1  UNL1       -0.1282
     27 C           7.3236   -0.3306   18.5453 C.ar    1  UNL1        0.1683
     28 C           7.2729   -1.4182   19.5771 C.ar    1  UNL1        0.0534
     29 C           8.2165   -2.5808   19.4884 C.ar    1  UNL1        0.0094
     30 C           8.1658   -3.6684   20.5201 C.ar    1  UNL1        0.0609
     31 C           7.1714   -3.5933   21.6407 C.ar    1  UNL1        0.2610
     32 O           7.1206   -4.6809   22.6725 O.2     1  UNL1       -0.2670
     33 N           6.2277   -2.4307   21.7294 N.ar    1  UNL1       -0.2921
     34 C           5.2334   -2.3556   22.8500 C.3     1  UNL1        0.1336
     35 C           6.2785   -1.3431   20.6976 C.ar    1  UNL1        0.0814
@<TRIPOS>BOND
     1    22    23    1
     2    23    24   ar
     3    24    21    1
     4    21    20    1
     5    20    19    1
     6    19     1    1
     7     1     2    1
     8     2     3    1
     9     3     4    1
    10     5     4    1
    11     5     6    1
    12     6     7    1
    13     7     9    1
    14     9    10   ar
    15    10    11   ar
    16    11    12   ar
    17    12    15    1
    18    15    16    1
    19    15    17    1
    20    15    18    1
    21    12    13   ar
    22    13    14   ar
    23     5     8    1
    24    24    25   ar
    25    25    26   ar
    26    26    27   ar
    27    27    28    1
    28    28    29   ar
    29    29    30   ar
    30    30    31   ar
    31    31    32    2
    32    31    33   ar
    33    33    34    1
    34    33    35   ar
    35    27    23   ar
    36    35    28   ar
    37     8     2    1
    38     7     5    1
    39    14     9   ar
@<TRIPOS>MOLECULE
*****
 35 39 0 0 0
SMALL
GASTEIGER

@<TRIPOS>ATOM
      1 C         -12.4540  -16.0690   20.9366 C.3     1  UNL1        0.0730
      2 N         -12.3433  -17.0282   22.0845 N.3     1  UNL1       -0.2726
      3 C         -13.2882  -18.1530   22.3878 C.3     1  UNL1        0.0721
      4 C         -12.7971  -18.8510   23.6213 C.3     1  UNL1        0.0190
      5 C         -11.5488  -18.1575   24.0804 C.3     1  UNL1        0.0201
      6 C         -11.3082  -19.0390   25.2700 C.3     1  UNL1        0.0061
      7 C         -10.3633  -17.9142   24.9667 C.3     1  UNL1        0.0237
      8 C         -11.2683  -17.0310   23.1306 C.3     1  UNL1        0.0724
      9 C          -9.1334  -17.1243   25.3032 C.ar    1  UNL1       -0.0225
     10 C          -8.3404  -16.4695   24.2112 C.ar    1  UNL1       -0.0043
     11 C          -7.1104  -15.6796   24.5478 C.ar    1  UNL1        0.0035
     12 C          -6.6735  -15.5445   25.9763 C.ar    1  UNL1        0.0714
     13 C          -7.4665  -16.1992   27.0683 C.ar    1  UNL1        0.0035
     14 C          -8.6964  -16.9891   26.7318 C.ar    1  UNL1       -0.0043
     15 C          -5.4436  -14.7546   26.3129 C.3     1  UNL1        0.4186
     16 F          -4.2135  -13.9646   26.6494 F       1  UNL1       -0.1659
     17 F          -6.0568  -14.3578   27.6230 F       1  UNL1       -0.1659
     18 F          -4.8303  -15.1513   25.0027 F       1  UNL1       -0.1659
     19 C         -11.4786  -16.1442   19.7996 C.3     1  UNL1        0.0294
     20 C         -11.2696  -17.4408   19.0750 C.3     1  UNL1        0.0666
     21 S         -10.8728  -18.6703   19.8370 S.3     1  UNL1       -0.0756
     22 C          -8.2601  -17.6032   21.4756 C.3     1  UNL1        0.1340
     23 N          -8.2766  -18.7177   20.4718 N.ar    1  UNL1       -0.2884
     24 C          -9.4775  -19.2082   19.7186 C.ar    1  UNL1        0.1932
     25 N          -9.0383  -20.3311   18.8263 N.ar    1  UNL1       -0.1221
     26 N          -7.5659  -20.5345   19.0279 N.ar    1  UNL1       -0.1282
     27 C          -7.0951  -19.5374   20.0449 C.ar    1  UNL1        0.1683
     28 C          -5.6896  -19.3866   20.5469 C.ar    1  UNL1        0.0534
     29 C          -5.3790  -19.6352   21.9931 C.ar    1  UNL1        0.0094
     30 C          -3.9736  -19.4843   22.4951 C.ar    1  UNL1        0.0609
     31 C          -2.8788  -19.0848   21.5506 C.ar    1  UNL1        0.2610
     32 O          -1.4733  -18.9339   22.0526 O.2     1  UNL1       -0.2670
     33 N          -3.1894  -18.8361   20.1044 N.ar    1  UNL1       -0.2921
     34 C          -2.0946  -18.4365   19.1601 C.3     1  UNL1        0.1336
     35 C          -4.5949  -18.9870   19.6025 C.ar    1  UNL1        0.0814
@<TRIPOS>BOND
     1    22    23    1
     2    23    24   ar
     3    24    21    1
     4    21    20    1
     5    20    19    1
     6    19     1    1
     7     1     2    1
     8     2     3    1
     9     3     4    1
    10     5     4    1
    11     5     6    1
    12     6     7    1
    13     7     9    1
    14     9    10   ar
    15    10    11   ar
    16    11    12   ar
    17    12    15    1
    18    15    16    1
    19    15    17    1
    20    15    18    1
    21    12    13   ar
    22    13    14   ar
    23     5     8    1
    24    24    25   ar
    25    25    26   ar
    26    26    27   ar
    27    27    28    1
    28    28    29   ar
    29    29    30   ar
    30    30    31   ar
    31    31    32    2
    32    31    33   ar
    33    33    34    1
    34    33    35   ar
    35    27    23   ar
    36    35    28   ar
    37     8     2    1
    38     7     5    1
    39    14     9   ar
@<TRIPOS>MOLECULE
*****
 35 39 0 0 0
SMALL
GASTEIGER

@<TRIPOS>ATOM
      1 C          -1.2608    4.8855   17.8779 C.3     1  UNL1        0.0730
      2 N          -2.6896    4.4289   17.8809 N.3     1  UNL1       -0.2726
      3 C          -3.4957    4.0472   16.6748 C.3     1  UNL1        0.0721
      4 C          -4.8675    3.6564   17.1390 C.3     1  UNL1        0.0190
      5 C          -4.9092    3.7965   18.6319 C.3     1  UNL1        0.0201
      6 C          -6.3346    3.3572   18.7908 C.3     1  UNL1        0.0061
      7 C          -5.5285    3.7389   19.9969 C.3     1  UNL1        0.0237
      8 C          -3.5632    4.2740   19.0904 C.3     1  UNL1        0.0724
      9 C          -5.4206    3.9261   21.4812 C.ar    1  UNL1       -0.0225
     10 C          -5.9513    5.1751   22.1202 C.ar    1  UNL1       -0.0043
     11 C          -5.8434    5.3623   23.6046 C.ar    1  UNL1        0.0035
     12 C          -5.2049    4.3003   24.4499 C.ar    1  UNL1        0.0714
     13 C          -4.6742    3.0513   23.8109 C.ar    1  UNL1        0.0035
     14 C          -4.7821    2.8641   22.3265 C.ar    1  UNL1       -0.0043
     15 C          -5.0970    4.4875   25.9342 C.3     1  UNL1        0.4186
     16 F          -4.9891    4.6746   27.4187 F       1  UNL1       -0.1659
     17 F          -3.8072    3.7218   25.9370 F       1  UNL1       -0.1659
     18 F          -6.3868    5.2532   25.9315 F       1  UNL1       -0.1659
     19 C          -0.4911    4.9491   19.1638 C.3     1  UNL1        0.0294
     20 C           0.5051    3.8778   19.4956 C.3     1  UNL1        0.0666
     21 S           0.5264    2.6029   18.7057 S.3     1  UNL1       -0.0756
     22 C           3.4370    1.1342   18.5604 C.3     1  UNL1        0.1340
     23 N           2.2350    0.6374   19.3077 N.ar    1  UNL1       -0.2884
     24 C           0.8972    1.3124   19.3745 C.ar    1  UNL1        0.1932
     25 N          -0.0049    0.4705   20.2274 N.ar    1  UNL1       -0.1221
     26 N           0.7755   -0.7249   20.6879 N.ar    1  UNL1       -0.1282
     27 C           2.1598   -0.6219   20.1195 C.ar    1  UNL1        0.1683
     28 C           3.2734   -1.6053   20.3265 C.ar    1  UNL1        0.0534
     29 C           4.2895   -1.3717   21.4049 C.ar    1  UNL1        0.0094
     30 C           5.4031   -2.3551   21.6119 C.ar    1  UNL1        0.0609
     31 C           5.5005   -3.5721   20.7403 C.ar    1  UNL1        0.2610
     32 O           6.6141   -4.5555   20.9473 O.2     1  UNL1       -0.2670
     33 N           4.4845   -3.8057   19.6619 N.ar    1  UNL1       -0.2921
     34 C           4.5820   -5.0226   18.7905 C.3     1  UNL1        0.1336
     35 C           3.3709   -2.8222   19.4550 C.ar    1  UNL1        0.0814
@<TRIPOS>BOND
     1    22    23    1
     2    23    24   ar
     3    24    21    1
     4    21    20    1
     5    20    19    1
     6    19     1    1
     7     1     2    1
     8     2     3    1
     9     3     4    1
    10     5     4    1
    11     5     6    1
    12     6     7    1
    13     7     9    1
    14     9    10   ar
    15    10    11   ar
    16    11    12   ar
    17    12    15    1
    18    15    16    1
    19    15    17    1
    20    15    18    1
    21    12    13   ar
    22    13    14   ar
    23     5     8    1
    24    24    25   ar
    25    25    26   ar
    26    26    27   ar
    27    27    28    1
    28    28    29   ar
    29    29    30   ar
    30    30    31   ar
    31    31    32    2
    32    31    33   ar
    33    33    34    1
    34    33    35   ar
    35    27    23   ar
    36    35    28   ar
    37     8     2    1
    38     7     5    1
    39    14     9   ar
@<TRIPOS>MOLECULE
*****
 35 39 0 0 0
SMALL
GASTEIGER

@<TRIPOS>ATOM
      1 C           5.0639   -2.2081   24.1270 C.3     1  UNL1        0.0730
      2 N           4.8225   -2.6796   22.7237 N.3     1  UNL1       -0.2726
      3 C           5.3834   -3.9247   22.1032 C.3     1  UNL1        0.0721
      4 C           4.8853   -4.0034   20.6905 C.3     1  UNL1        0.0190
      5 C           4.0166   -2.8070   20.4379 C.3     1  UNL1        0.0201
      6 C           3.6857   -3.1509   19.0158 C.3     1  UNL1        0.0061
      7 C           3.1247   -1.9058   19.6364 C.3     1  UNL1        0.0237
      8 C           3.9777   -1.9888   21.6945 C.3     1  UNL1        0.0724
      9 C           2.2860   -0.6666   19.5319 C.ar    1  UNL1       -0.0225
     10 C           1.0631   -0.5143   20.3872 C.ar    1  UNL1       -0.0043
     11 C           0.2244    0.7248   20.2827 C.ar    1  UNL1        0.0035
     12 C           0.6084    1.8117   19.3229 C.ar    1  UNL1        0.0714
     13 C           1.8313    1.6594   18.4676 C.ar    1  UNL1        0.0035
     14 C           2.6700    0.4203   18.5721 C.ar    1  UNL1       -0.0043
     15 C          -0.2303    3.0509   19.2184 C.3     1  UNL1        0.4186
     16 F          -1.0691    4.2901   19.1139 F       1  UNL1       -0.1659
     17 F          -1.2208    2.4614   20.1783 F       1  UNL1       -0.1659
     18 F           0.7602    3.6404   18.2586 F       1  UNL1       -0.1659
     19 C           4.1386   -1.2058   24.7511 C.3     1  UNL1        0.0294
     20 C           3.8266   -1.2836   26.2162 C.3     1  UNL1        0.0666
     21 S           3.2123   -0.1074   26.9156 S.3     1  UNL1       -0.0756
     22 C           5.3075   -0.1615   29.4169 C.3     1  UNL1        0.1340
     23 N           3.8124   -0.2290   29.5175 N.ar    1  UNL1       -0.2884
     24 C           2.8493   -0.2041   28.3678 C.ar    1  UNL1        0.1932
     25 N           1.4596   -0.2929   28.9252 N.ar    1  UNL1       -0.1221
     26 N           1.5637   -0.3727   30.4195 N.ar    1  UNL1       -0.1282
     27 C           3.0179   -0.3332   30.7856 C.ar    1  UNL1        0.1683
     28 C           3.5789   -0.3882   32.1757 C.ar    1  UNL1        0.0534
     29 C           4.2517   -1.6367   32.6641 C.ar    1  UNL1        0.0094
     30 C           4.8127   -1.6918   34.0541 C.ar    1  UNL1        0.0609
     31 C           4.7010   -0.4981   34.9557 C.ar    1  UNL1        0.2610
     32 O           5.2620   -0.5532   36.3458 O.2     1  UNL1       -0.2670
     33 N           4.0282    0.7504   34.4673 N.ar    1  UNL1       -0.2921
     34 C           3.9165    1.9439   35.3690 C.3     1  UNL1        0.1336
     35 C           3.4672    0.8053   33.0772 C.ar    1  UNL1        0.0814
@<TRIPOS>BOND
     1    22    23    1
     2    23    24   ar
     3    24    21    1
     4    21    20    1
     5    20    19    1
     6    19     1    1
     7     1     2    1
     8     2     3    1
     9     3     4    1
    10     5     4    1
    11     5     6    1
    12     6     7    1
    13     7     9    1
    14     9    10   ar
    15    10    11   ar
    16    11    12   ar
    17    12    15    1
    18    15    16    1
    19    15    17    1
    20    15    18    1
    21    12    13   ar
    22    13    14   ar
    23     5     8    1
    24    24    25   ar
    25    25    26   ar
    26    26    27   ar
    27    27    28    1
    28    28    29   ar
    29    29    30   ar
    30    30    31   ar
    31    31    32    2
    32    31    33   ar
    33    33    34    1
    34    33    35   ar
    35    27    23   ar
    36    35    28   ar
    37     8     2    1
    38     7     5    1
    39    14     9   ar
