@<TRIPOS>MOLECULE
*****
 39 41 0 0 0
SMALL
GASTEIGER

@<TRIPOS>ATOM
      1 N           7.2351   -3.3070   21.4217 N.pl3   1  UNL1       -0.1898
      2 C           5.9982   -3.3896   20.5771 C.ar    1  UNL1        0.0793
      3 C           5.6980   -4.6414   19.8071 C.ar    1  UNL1        0.0170
      4 C           4.4612   -4.7240   18.9625 C.ar    1  UNL1        0.0014
      5 C           3.5246   -3.5548   18.8878 C.ar    1  UNL1        0.0009
      6 C           3.8247   -2.3030   19.6577 C.ar    1  UNL1        0.0118
      7 C           5.0616   -2.2204   20.5024 C.ar    1  UNL1        0.0725
      8 CL          5.3618   -0.9685   21.2724 Cl      1  UNL1       -0.0809
      9 C           2.8881   -1.1337   19.5831 C.ar    1  UNL1        0.0008
     10 C           2.9917   -0.1612   18.4458 C.ar    1  UNL1       -0.0000
     11 C           2.0550    1.0080   18.3711 C.ar    1  UNL1        0.0039
     12 C           1.0148    1.2048   19.4337 C.ar    1  UNL1        0.0714
     13 C           0.9112    0.2323   20.5710 C.ar    1  UNL1        0.0039
     14 C           1.8479   -0.9370   20.6457 C.ar    1  UNL1       -0.0000
     15 C           0.0782    2.3740   19.3590 C.3     1  UNL1        0.4186
     16 F          -0.8585    3.5432   19.2843 F       1  UNL1       -0.1659
     17 F           0.9180    2.9774   18.2725 F       1  UNL1       -0.1659
     18 F          -0.7617    1.7706   20.4455 F       1  UNL1       -0.1659
     19 S           7.2460   -3.9074   22.7963 S.O2    1  UNL1        0.0763
     20 O           5.8652   -4.4483   22.5710 O.2     1  UNL1       -0.1497
     21 O           8.6268   -3.3664   23.0216 O.2     1  UNL1       -0.1497
     22 C           7.2569   -4.5077   24.1709 C.ar    1  UNL1        0.1213
     23 C           6.6929   -3.7396   25.3293 C.ar    1  UNL1        0.0230
     24 C           6.7038   -4.3400   26.7039 C.ar    1  UNL1        0.0379
     25 C           7.2788   -5.7084   26.9201 C.ar    1  UNL1        0.1347
     26 C           7.8428   -6.4766   25.7616 C.ar    1  UNL1        0.0095
     27 C           8.4178   -7.8450   25.9779 C.3     1  UNL1        0.0339
     28 C           7.8319   -5.8762   24.3871 C.ar    1  UNL1       -0.0040
     29 C           8.3959   -6.6443   23.2287 C.3     1  UNL1        0.0322
     30 O           7.2897   -6.3087   28.2946 O.3     1  UNL1       -0.4739
     31 C           7.8635   -5.5368   29.4456 C.3     1  UNL1        0.2020
     32 C           9.2926   -5.0830   29.4063 C.3     1  UNL1        0.0536
     33 C           7.0080   -5.2186   30.6361 C.2     1  UNL1        0.0900
     34 O           6.7779   -6.2574   31.6934 O.co2   1  UNL1       -0.5455
     35 O           6.3829   -3.8617   30.7692 O.co2   1  UNL1       -0.5455
     36 C           8.4609   -2.6241   20.8918 C.3     1  UNL1        0.1159
     37 C           8.5516   -2.2680   19.4375 C.3     1  UNL1        0.0234
     38 C           7.0431   -0.6916   18.0272 C.3     1  UNL1        0.0001
     39 C           8.1857   -0.8875   18.9791 C.3     1  UNL1        0.0018
@<TRIPOS>UNITY_ATOM_ATTR
34 1
charge -1
@<TRIPOS>BOND
     1    38    39    1
     2    39    37    1
     3    37    36    1
     4    36     1    1
     5     1     2    1
     6     2     3   ar
     7     3     4   ar
     8     4     5   ar
     9     5     6   ar
    10     6     9    1
    11     9    10   ar
    12    10    11   ar
    13    11    12   ar
    14    12    15    1
    15    15    16    1
    16    15    17    1
    17    15    18    1
    18    12    13   ar
    19    13    14   ar
    20     6     7   ar
    21     7     8    1
    22     1    19    1
    23    19    20    2
    24    19    21    2
    25    19    22    1
    26    22    23   ar
    27    23    24   ar
    28    24    25   ar
    29    25    30    1
    30    30    31    1
    31    31    32    1
    32    31    33    1
    33    33    34   ar
    34    33    35   ar
    35    25    26   ar
    36    26    27    1
    37    26    28   ar
    38    28    29    1
    39     7     2   ar
    40    28    22   ar
    41    14     9   ar
@<TRIPOS>MOLECULE
*****
 39 41 0 0 0
SMALL
GASTEIGER

@<TRIPOS>ATOM
      1 N          -0.3065    3.8032   19.8051 N.pl3   1  UNL1       -0.1898
      2 C           1.0192    3.2593   20.2488 C.ar    1  UNL1        0.0793
      3 C           1.9254    4.0960   21.1024 C.ar    1  UNL1        0.0170
      4 C           3.2510    3.5520   21.5461 C.ar    1  UNL1        0.0014
      5 C           3.6703    2.1714   21.1362 C.ar    1  UNL1        0.0009
      6 C           2.7641    1.3347   20.2827 C.ar    1  UNL1        0.0118
      7 C           1.4385    1.8787   19.8390 C.ar    1  UNL1        0.0725
      8 CL          0.5322    1.0420   18.9853 Cl      1  UNL1       -0.0809
      9 C           3.1834   -0.0459   19.8728 C.ar    1  UNL1        0.0008
     10 C           3.0892   -1.1796   20.8504 C.ar    1  UNL1       -0.0000
     11 C           3.5086   -2.5602   20.4405 C.ar    1  UNL1        0.0039
     12 C           4.0221   -2.8072   19.0530 C.ar    1  UNL1        0.0714
     13 C           4.1163   -1.6735   18.0754 C.ar    1  UNL1        0.0039
     14 C           3.6969   -0.2929   18.4853 C.ar    1  UNL1       -0.0000
     15 C           4.4414   -4.1878   18.6431 C.3     1  UNL1        0.4186
     16 F           4.8608   -5.5685   18.2333 F       1  UNL1       -0.1659
     17 F           3.0806   -4.7074   19.0010 F       1  UNL1       -0.1659
     18 F           5.8023   -3.6682   18.2853 F       1  UNL1       -0.1659
     19 S          -1.4675    3.8166   20.7547 S.O2    1  UNL1        0.0763
     20 O          -1.4489    5.3165   20.7564 O.2     1  UNL1       -0.1497
     21 O          -1.4862    2.3167   20.7530 O.2     1  UNL1       -0.1497
     22 C          -2.6286    3.8299   21.7044 C.ar    1  UNL1        0.1213
     23 C          -4.0312    3.8584   21.1737 C.ar    1  UNL1        0.0230
     24 C          -5.1923    3.8718   22.1233 C.ar    1  UNL1        0.0379
     25 C          -4.9507    3.8566   23.6036 C.ar    1  UNL1        0.1347
     26 C          -3.5479    3.8281   24.1344 C.ar    1  UNL1        0.0095
     27 C          -3.3063    3.8130   25.6147 C.3     1  UNL1        0.0339
     28 C          -2.3869    3.8148   23.1847 C.ar    1  UNL1       -0.0040
     29 C          -0.9842    3.7863   23.7154 C.3     1  UNL1        0.0322
     30 O          -6.1117    3.8700   24.5533 O.3     1  UNL1       -0.4739
     31 C          -6.9594    5.1005   24.6842 C.3     1  UNL1        0.2020
     32 C          -6.5888    6.1646   25.6744 C.3     1  UNL1        0.0536
     33 C          -8.1777    5.2670   23.8250 C.2     1  UNL1        0.0900
     34 O          -9.4494    4.5556   24.1810 O.co2   1  UNL1       -0.5455
     35 O          -8.1242    6.1448   22.6099 O.co2   1  UNL1       -0.5455
     36 C          -0.4711    4.3338   18.4118 C.3     1  UNL1        0.1159
     37 C          -1.5378    3.7748   17.5175 C.3     1  UNL1        0.0234
     38 C          -4.0994    3.7770   17.0842 C.3     1  UNL1        0.0001
     39 C          -2.8215    4.5256   17.3214 C.3     1  UNL1        0.0018
@<TRIPOS>UNITY_ATOM_ATTR
34 1
charge -1
@<TRIPOS>BOND
     1    38    39    1
     2    39    37    1
     3    37    36    1
     4    36     1    1
     5     1     2    1
     6     2     3   ar
     7     3     4   ar
     8     4     5   ar
     9     5     6   ar
    10     6     9    1
    11     9    10   ar
    12    10    11   ar
    13    11    12   ar
    14    12    15    1
    15    15    16    1
    16    15    17    1
    17    15    18    1
    18    12    13   ar
    19    13    14   ar
    20     6     7   ar
    21     7     8    1
    22     1    19    1
    23    19    20    2
    24    19    21    2
    25    19    22    1
    26    22    23   ar
    27    23    24   ar
    28    24    25   ar
    29    25    30    1
    30    30    31    1
    31    31    32    1
    32    31    33    1
    33    33    34   ar
    34    33    35   ar
    35    25    26   ar
    36    26    27    1
    37    26    28   ar
    38    28    29    1
    39     7     2   ar
    40    28    22   ar
    41    14     9   ar
@<TRIPOS>MOLECULE
*****
 39 41 0 0 0
SMALL
GASTEIGER

@<TRIPOS>ATOM
      1 N          -0.1383    3.8394   19.9858 N.pl3   1  UNL1       -0.1898
      2 C           1.2080    3.2887   20.3523 C.ar    1  UNL1        0.0793
      3 C           2.1792    4.1331   21.1229 C.ar    1  UNL1        0.0170
      4 C           3.5254    3.5825   21.4894 C.ar    1  UNL1        0.0014
      5 C           3.9005    2.1874   21.0854 C.ar    1  UNL1        0.0009
      6 C           2.9293    1.3431   20.3148 C.ar    1  UNL1        0.0118
      7 C           1.5831    1.8937   19.9483 C.ar    1  UNL1        0.0725
      8 CL          0.6118    1.0493   19.1777 Cl      1  UNL1       -0.0809
      9 C           3.3044   -0.0520   19.9108 C.ar    1  UNL1        0.0008
     10 C           3.8887   -0.3081   18.5533 C.ar    1  UNL1       -0.0000
     11 C           4.2638   -1.7031   18.1492 C.ar    1  UNL1        0.0039
     12 C           4.0545   -2.8420   19.1027 C.ar    1  UNL1        0.0714
     13 C           3.4702   -2.5858   20.4602 C.ar    1  UNL1        0.0039
     14 C           3.0952   -1.1908   20.8643 C.ar    1  UNL1       -0.0000
     15 C           4.4296   -4.2370   18.6987 C.3     1  UNL1        0.4186
     16 F           4.8047   -5.6320   18.2946 F       1  UNL1       -0.1659
     17 F           3.2109   -4.7663   19.3948 F       1  UNL1       -0.1659
     18 F           5.6483   -3.7077   18.0025 F       1  UNL1       -0.1659
     19 S          -1.2435    3.8553   20.9998 S.O2    1  UNL1        0.0763
     20 O          -1.0684    5.3356   21.1675 O.2     1  UNL1       -0.1497
     21 O          -1.4186    2.3750   20.8322 O.2     1  UNL1       -0.1497
     22 C          -2.3487    3.8712   22.0138 C.ar    1  UNL1        0.1213
     23 C          -2.0269    3.7730   23.4756 C.ar    1  UNL1        0.0230
     24 C          -3.1321    3.7889   24.4896 C.ar    1  UNL1        0.0379
     25 C          -4.5591    3.9030   24.0419 C.ar    1  UNL1        0.1347
     26 C          -4.8810    4.0012   22.5801 C.ar    1  UNL1        0.0095
     27 C          -6.3081    4.1153   22.1324 C.3     1  UNL1        0.0339
     28 C          -3.7758    3.9853   21.5661 C.ar    1  UNL1       -0.0040
     29 C          -4.0977    4.0835   20.1043 C.3     1  UNL1        0.0322
     30 O          -5.6643    3.9189   25.0560 O.3     1  UNL1       -0.4739
     31 C          -6.0455    5.2037   25.7298 C.3     1  UNL1        0.2020
     32 C          -6.8449    6.2322   24.9862 C.3     1  UNL1        0.0536
     33 C          -5.6271    5.4600   27.1474 C.2     1  UNL1        0.0900
     34 O          -6.6449    5.8829   28.1649 O.co2   1  UNL1       -0.5455
     35 O          -4.1911    5.2933   27.5474 O.co2   1  UNL1       -0.5455
     36 C          -0.3794    4.3740   18.6052 C.3     1  UNL1        0.1159
     37 C          -0.9885    3.4927   17.5553 C.3     1  UNL1        0.0234
     38 C          -3.3118    3.7750   16.4275 C.3     1  UNL1        0.0001
     39 C          -1.8463    4.0903   16.4797 C.3     1  UNL1        0.0018
@<TRIPOS>UNITY_ATOM_ATTR
34 1
charge -1
@<TRIPOS>BOND
     1    38    39    1
     2    39    37    1
     3    37    36    1
     4    36     1    1
     5     1     2    1
     6     2     3   ar
     7     3     4   ar
     8     4     5   ar
     9     5     6   ar
    10     6     9    1
    11     9    10   ar
    12    10    11   ar
    13    11    12   ar
    14    12    15    1
    15    15    16    1
    16    15    17    1
    17    15    18    1
    18    12    13   ar
    19    13    14   ar
    20     6     7   ar
    21     7     8    1
    22     1    19    1
    23    19    20    2
    24    19    21    2
    25    19    22    1
    26    22    23   ar
    27    23    24   ar
    28    24    25   ar
    29    25    30    1
    30    30    31    1
    31    31    32    1
    32    31    33    1
    33    33    34   ar
    34    33    35   ar
    35    25    26   ar
    36    26    27    1
    37    26    28   ar
    38    28    29    1
    39     7     2   ar
    40    28    22   ar
    41    14     9   ar
@<TRIPOS>MOLECULE
*****
 39 41 0 0 0
SMALL
GASTEIGER

@<TRIPOS>ATOM
      1 N           4.3056   -1.4057   19.7884 N.pl3   1  UNL1       -0.1898
      2 C           5.5733   -1.4638   20.5882 C.ar    1  UNL1        0.0793
      3 C           6.7722   -0.6749   20.1521 C.ar    1  UNL1        0.0170
      4 C           8.0398   -0.7331   20.9519 C.ar    1  UNL1        0.0014
      5 C           8.1086   -1.5802   22.1878 C.ar    1  UNL1        0.0009
      6 C           6.9097   -2.3692   22.6240 C.ar    1  UNL1        0.0118
      7 C           5.6421   -2.3110   21.8242 C.ar    1  UNL1        0.0725
      8 CL          4.4432   -3.1000   22.2603 Cl      1  UNL1       -0.0809
      9 C           6.9785   -3.2164   23.8599 C.ar    1  UNL1        0.0008
     10 C           6.5876   -2.6388   25.1879 C.ar    1  UNL1       -0.0000
     11 C           6.6564   -3.4859   26.4238 C.ar    1  UNL1        0.0039
     12 C           7.1160   -4.9108   26.3318 C.ar    1  UNL1        0.0714
     13 C           7.5070   -5.4884   25.0039 C.ar    1  UNL1        0.0039
     14 C           7.4382   -4.6412   23.7679 C.ar    1  UNL1       -0.0000
     15 C           7.1848   -5.7579   27.5678 C.3     1  UNL1        0.4186
     16 F           7.2536   -6.6051   28.8037 F       1  UNL1       -0.1659
     17 F           5.7706   -5.3857   27.9016 F       1  UNL1       -0.1659
     18 F           8.5990   -6.1301   27.2339 F       1  UNL1       -0.1659
     19 S           3.1817   -0.5150   20.2281 S.O2    1  UNL1        0.0763
     20 O           4.1335    0.6407   20.3202 O.2     1  UNL1       -0.1497
     21 O           2.2298   -1.6706   20.1360 O.2     1  UNL1       -0.1497
     22 C           2.0577    0.3757   20.6678 C.ar    1  UNL1        0.1213
     23 C           1.1930    1.0521   19.6458 C.ar    1  UNL1        0.0230
     24 C           0.0690    1.9428   20.0855 C.ar    1  UNL1        0.0379
     25 C          -0.1903    2.1571   21.5473 C.ar    1  UNL1        0.1347
     26 C           0.6744    1.4806   22.5694 C.ar    1  UNL1        0.0095
     27 C           0.4152    1.6948   24.0312 C.3     1  UNL1        0.0339
     28 C           1.7984    0.5899   22.1297 C.ar    1  UNL1       -0.0040
     29 C           2.6631   -0.0865   23.1518 C.3     1  UNL1        0.0322
     30 O          -1.3143    3.0477   21.9870 O.3     1  UNL1       -0.4739
     31 C          -2.0845    3.8398   20.9724 C.3     1  UNL1        0.2020
     32 C          -1.5121    5.1126   20.4227 C.3     1  UNL1        0.0536
     33 C          -3.4272    3.3589   20.5075 C.2     1  UNL1        0.0900
     34 O          -3.8722    3.6232   19.0996 O.co2   1  UNL1       -0.5455
     35 O          -4.3248    2.6139   21.4504 O.co2   1  UNL1       -0.5455
     36 C           4.1620   -2.2381   18.5490 C.3     1  UNL1        0.1159
     37 C           5.0832   -3.3984   18.3138 C.3     1  UNL1        0.0234
     38 C           3.3818   -4.9933   19.4590 C.3     1  UNL1        0.0001
     39 C           4.7283   -4.7568   18.8418 C.3     1  UNL1        0.0018
@<TRIPOS>UNITY_ATOM_ATTR
34 1
charge -1
@<TRIPOS>BOND
     1    38    39    1
     2    39    37    1
     3    37    36    1
     4    36     1    1
     5     1     2    1
     6     2     3   ar
     7     3     4   ar
     8     4     5   ar
     9     5     6   ar
    10     6     9    1
    11     9    10   ar
    12    10    11   ar
    13    11    12   ar
    14    12    15    1
    15    15    16    1
    16    15    17    1
    17    15    18    1
    18    12    13   ar
    19    13    14   ar
    20     6     7   ar
    21     7     8    1
    22     1    19    1
    23    19    20    2
    24    19    21    2
    25    19    22    1
    26    22    23   ar
    27    23    24   ar
    28    24    25   ar
    29    25    30    1
    30    30    31    1
    31    31    32    1
    32    31    33    1
    33    33    34   ar
    34    33    35   ar
    35    25    26   ar
    36    26    27    1
    37    26    28   ar
    38    28    29    1
    39     7     2   ar
    40    28    22   ar
    41    14     9   ar
@<TRIPOS>MOLECULE
*****
 39 41 0 0 0
SMALL
GASTEIGER

@<TRIPOS>ATOM
      1 N          -0.4836    3.8341   20.3914 N.pl3   1  UNL1       -0.1898
      2 C           0.8035    3.4995   19.6976 C.ar    1  UNL1        0.0793
      3 C           1.6347    4.5912   19.0917 C.ar    1  UNL1        0.0170
      4 C           2.9218    4.2566   18.3979 C.ar    1  UNL1        0.0014
      5 C           3.3777    2.8302   18.3101 C.ar    1  UNL1        0.0009
      6 C           2.5465    1.7385   18.9161 C.ar    1  UNL1        0.0118
      7 C           1.2594    2.0732   19.6098 C.ar    1  UNL1        0.0725
      8 CL          0.4282    0.9814   20.2158 Cl      1  UNL1       -0.0809
      9 C           3.0024    0.3122   18.8283 C.ar    1  UNL1        0.0008
     10 C           2.8686   -0.5925   20.0172 C.ar    1  UNL1       -0.0000
     11 C           3.3245   -2.0189   19.9294 C.ar    1  UNL1        0.0039
     12 C           3.9142   -2.5405   18.6527 C.ar    1  UNL1        0.0714
     13 C           4.0481   -1.6358   17.4638 C.ar    1  UNL1        0.0039
     14 C           3.5922   -0.2095   17.5516 C.ar    1  UNL1       -0.0000
     15 C           4.3701   -3.9668   18.5649 C.3     1  UNL1        0.4186
     16 F           4.8260   -5.3932   18.4771 F       1  UNL1       -0.1659
     17 F           2.9936   -4.4299   18.9402 F       1  UNL1       -0.1659
     18 F           5.7466   -3.5038   18.1896 F       1  UNL1       -0.1659
     19 S          -0.6759    3.4673   21.8331 S.O2    1  UNL1        0.0763
     20 O          -1.8866    2.6611   21.4665 O.2     1  UNL1       -0.1497
     21 O           0.5348    4.2734   22.1997 O.2     1  UNL1       -0.1497
     22 C          -0.8682    3.1005   23.2748 C.ar    1  UNL1        0.1213
     23 C          -0.0273    2.0232   23.8932 C.ar    1  UNL1        0.0230
     24 C          -0.2196    1.6564   25.3349 C.ar    1  UNL1        0.0379
     25 C          -1.2527    2.3668   26.1582 C.ar    1  UNL1        0.1347
     26 C          -2.0936    3.4441   25.5398 C.ar    1  UNL1        0.0095
     27 C          -3.1268    4.1546   26.3631 C.3     1  UNL1        0.0339
     28 C          -1.9014    3.8110   24.0981 C.ar    1  UNL1       -0.0040
     29 C          -2.7422    4.8882   23.4798 C.3     1  UNL1        0.0322
     30 O          -1.4450    2.0000   27.5999 O.3     1  UNL1       -0.4739
     31 C          -0.2662    1.5953   28.4345 C.3     1  UNL1        0.2020
     32 C           0.7291    2.6267   28.8767 C.3     1  UNL1        0.0536
     33 C          -0.0826    0.1592   28.8268 C.2     1  UNL1        0.0900
     34 O           1.2738   -0.4750   28.7381 O.co2   1  UNL1       -0.5455
     35 O          -1.2554   -0.6427   29.3079 O.co2   1  UNL1       -0.5455
     36 C          -1.5785    4.5355   19.6435 C.3     1  UNL1        0.1159
     37 C          -1.9291    4.1060   18.2497 C.3     1  UNL1        0.0234
     38 C          -4.4424    3.8530   17.6427 C.3     1  UNL1        0.0001
     39 C          -3.1660    4.6389   17.5895 C.3     1  UNL1        0.0018
@<TRIPOS>UNITY_ATOM_ATTR
34 1
charge -1
@<TRIPOS>BOND
     1    38    39    1
     2    39    37    1
     3    37    36    1
     4    36     1    1
     5     1     2    1
     6     2     3   ar
     7     3     4   ar
     8     4     5   ar
     9     5     6   ar
    10     6     9    1
    11     9    10   ar
    12    10    11   ar
    13    11    12   ar
    14    12    15    1
    15    15    16    1
    16    15    17    1
    17    15    18    1
    18    12    13   ar
    19    13    14   ar
    20     6     7   ar
    21     7     8    1
    22     1    19    1
    23    19    20    2
    24    19    21    2
    25    19    22    1
    26    22    23   ar
    27    23    24   ar
    28    24    25   ar
    29    25    30    1
    30    30    31    1
    31    31    32    1
    32    31    33    1
    33    33    34   ar
    34    33    35   ar
    35    25    26   ar
    36    26    27    1
    37    26    28   ar
    38    28    29    1
    39     7     2   ar
    40    28    22   ar
    41    14     9   ar
@<TRIPOS>MOLECULE
*****
 39 41 0 0 0
SMALL
GASTEIGER

@<TRIPOS>ATOM
      1 N           4.9543   -1.5814   20.3489 N.pl3   1  UNL1       -0.1898
      2 C           6.2866   -1.9836   20.9086 C.ar    1  UNL1        0.0793
      3 C           7.5220   -1.2254   20.5227 C.ar    1  UNL1        0.0170
      4 C           8.8543   -1.6276   21.0824 C.ar    1  UNL1        0.0014
      5 C           8.9511   -2.7880   22.0280 C.ar    1  UNL1        0.0009
      6 C           7.7158   -3.5462   22.4139 C.ar    1  UNL1        0.0118
      7 C           6.3835   -3.1440   21.8542 C.ar    1  UNL1        0.0725
      8 CL          5.1481   -3.9022   22.2401 Cl      1  UNL1       -0.0809
      9 C           7.8126   -4.7066   23.3595 C.ar    1  UNL1        0.0008
     10 C           8.4658   -5.9823   22.9168 C.ar    1  UNL1       -0.0000
     11 C           8.5627   -7.1427   23.8624 C.ar    1  UNL1        0.0039
     12 C           8.0064   -7.0274   25.2506 C.ar    1  UNL1        0.0714
     13 C           7.3533   -5.7517   25.6933 C.ar    1  UNL1        0.0039
     14 C           7.2564   -4.5913   24.7477 C.ar    1  UNL1       -0.0000
     15 C           8.1033   -8.1877   26.1962 C.3     1  UNL1        0.4186
     16 F           8.2002   -9.3481   27.1418 F       1  UNL1       -0.1659
     17 F           9.5308   -8.4011   25.7881 F       1  UNL1       -0.1659
     18 F           6.6757   -7.9744   26.6043 F       1  UNL1       -0.1659
     19 S           3.9533   -0.8849   21.2223 S.O2    1  UNL1        0.0763
     20 O           4.9689    0.1711   21.5441 O.2     1  UNL1       -0.1497
     21 O           2.9377   -1.9408   20.9005 O.2     1  UNL1       -0.1497
     22 C           2.9523   -0.1883   22.0956 C.ar    1  UNL1        0.1213
     23 C           2.9921   -0.3806   23.5827 C.ar    1  UNL1        0.0230
     24 C           1.9911    0.3160   24.4561 C.ar    1  UNL1        0.0379
     25 C           0.9503    1.2049   23.8424 C.ar    1  UNL1        0.1347
     26 C           0.9105    1.3972   22.3552 C.ar    1  UNL1        0.0095
     27 C          -0.1303    2.2861   21.7416 C.3     1  UNL1        0.0339
     28 C           1.9115    0.7006   21.4819 C.ar    1  UNL1       -0.0040
     29 C           1.8717    0.8929   19.9948 C.3     1  UNL1        0.0322
     30 O          -0.0507    1.9014   24.7158 O.3     1  UNL1       -0.4739
     31 C           0.3411    2.3559   26.0905 C.3     1  UNL1        0.2020
     32 C           1.0511    3.6644   26.2739 C.3     1  UNL1        0.0536
     33 C           0.0229    1.5018   27.2819 C.2     1  UNL1        0.0900
     34 O           1.0941    0.6587   27.9078 O.co2   1  UNL1       -0.5455
     35 O          -1.3663    1.4909   27.8473 O.co2   1  UNL1       -0.5455
     36 C           4.6230   -1.8758   18.9159 C.3     1  UNL1        0.1159
     37 C           5.1838   -3.0987   18.2524 C.3     1  UNL1        0.0234
     38 C           3.3343   -4.6944   19.1370 C.3     1  UNL1        0.0001
     39 C           4.7516   -4.4621   18.7043 C.3     1  UNL1        0.0018
@<TRIPOS>UNITY_ATOM_ATTR
34 1
charge -1
@<TRIPOS>BOND
     1    38    39    1
     2    39    37    1
     3    37    36    1
     4    36     1    1
     5     1     2    1
     6     2     3   ar
     7     3     4   ar
     8     4     5   ar
     9     5     6   ar
    10     6     9    1
    11     9    10   ar
    12    10    11   ar
    13    11    12   ar
    14    12    15    1
    15    15    16    1
    16    15    17    1
    17    15    18    1
    18    12    13   ar
    19    13    14   ar
    20     6     7   ar
    21     7     8    1
    22     1    19    1
    23    19    20    2
    24    19    21    2
    25    19    22    1
    26    22    23   ar
    27    23    24   ar
    28    24    25   ar
    29    25    30    1
    30    30    31    1
    31    31    32    1
    32    31    33    1
    33    33    34   ar
    34    33    35   ar
    35    25    26   ar
    36    26    27    1
    37    26    28   ar
    38    28    29    1
    39     7     2   ar
    40    28    22   ar
    41    14     9   ar
@<TRIPOS>MOLECULE
*****
 39 41 0 0 0
SMALL
GASTEIGER

@<TRIPOS>ATOM
      1 N           7.8544   -5.5778   24.4458 N.pl3   1  UNL1       -0.1898
      2 C           7.8984   -4.9000   23.1083 C.ar    1  UNL1        0.0793
      3 C           9.1239   -5.0121   22.2507 C.ar    1  UNL1        0.0170
      4 C           9.1679   -4.3343   20.9133 C.ar    1  UNL1        0.0014
      5 C           7.9864   -3.5444   20.4335 C.ar    1  UNL1        0.0009
      6 C           6.7609   -3.4323   21.2912 C.ar    1  UNL1        0.0118
      7 C           6.7169   -4.1101   22.6286 C.ar    1  UNL1        0.0725
      8 CL          5.4914   -3.9981   23.4863 Cl      1  UNL1       -0.0809
      9 C           5.5794   -2.6425   20.8114 C.ar    1  UNL1        0.0008
     10 C           4.3984   -3.3479   20.2136 C.ar    1  UNL1       -0.0000
     11 C           3.2169   -2.5580   19.7338 C.ar    1  UNL1        0.0039
     12 C           3.2164   -1.0627   19.8520 C.ar    1  UNL1        0.0714
     13 C           4.3974   -0.3573   20.4499 C.ar    1  UNL1        0.0039
     14 C           5.5789   -1.1471   20.9296 C.ar    1  UNL1       -0.0000
     15 C           2.0349   -0.2728   19.3722 C.3     1  UNL1        0.4186
     16 F           0.8534    0.5171   18.8925 F       1  UNL1       -0.1659
     17 F           2.9275    0.5008   18.4476 F       1  UNL1       -0.1659
     18 F           1.1423   -1.0464   20.2968 F       1  UNL1       -0.1659
     19 S           7.6441   -4.7677   25.6905 S.O2    1  UNL1        0.0763
     20 O           6.6028   -5.7446   26.1503 O.2     1  UNL1       -0.1497
     21 O           8.6854   -3.7908   25.2307 O.2     1  UNL1       -0.1497
     22 C           7.4338   -3.9576   26.9353 C.ar    1  UNL1        0.1213
     23 C           6.3119   -2.9642   27.0031 C.ar    1  UNL1        0.0230
     24 C           6.1016   -2.1541   28.2478 C.ar    1  UNL1        0.0379
     25 C           7.0131   -2.3374   29.4249 C.ar    1  UNL1        0.1347
     26 C           8.1350   -3.3308   29.3572 C.ar    1  UNL1        0.0095
     27 C           9.0466   -3.5140   30.5342 C.3     1  UNL1        0.0339
     28 C           8.3454   -4.1409   28.1124 C.ar    1  UNL1       -0.0040
     29 C           9.4672   -5.1342   28.0447 C.3     1  UNL1        0.0322
     30 O           6.8028   -1.5273   30.6697 O.3     1  UNL1       -0.4739
     31 C           5.7512   -1.9325   31.6595 C.3     1  UNL1        0.2020
     32 C           5.9293   -3.1789   32.4749 C.3     1  UNL1        0.0536
     33 C           4.5214   -1.0915   31.8340 C.2     1  UNL1        0.0900
     34 O           4.0825   -0.1679   30.7365 O.co2   1  UNL1       -0.5455
     35 O           3.7306   -1.1740   33.1059 O.co2   1  UNL1       -0.5455
     36 C           8.0207   -7.0657   24.5384 C.3     1  UNL1        0.1159
     37 C           9.3517   -7.6500   24.9089 C.3     1  UNL1        0.0234
     38 C           8.3396   -8.6718   27.0725 C.3     1  UNL1        0.0001
     39 C           9.5360   -8.3092   26.2435 C.3     1  UNL1        0.0018
@<TRIPOS>UNITY_ATOM_ATTR
34 1
charge -1
@<TRIPOS>BOND
     1    38    39    1
     2    39    37    1
     3    37    36    1
     4    36     1    1
     5     1     2    1
     6     2     3   ar
     7     3     4   ar
     8     4     5   ar
     9     5     6   ar
    10     6     9    1
    11     9    10   ar
    12    10    11   ar
    13    11    12   ar
    14    12    15    1
    15    15    16    1
    16    15    17    1
    17    15    18    1
    18    12    13   ar
    19    13    14   ar
    20     6     7   ar
    21     7     8    1
    22     1    19    1
    23    19    20    2
    24    19    21    2
    25    19    22    1
    26    22    23   ar
    27    23    24   ar
    28    24    25   ar
    29    25    30    1
    30    30    31    1
    31    31    32    1
    32    31    33    1
    33    33    34   ar
    34    33    35   ar
    35    25    26   ar
    36    26    27    1
    37    26    28   ar
    38    28    29    1
    39     7     2   ar
    40    28    22   ar
    41    14     9   ar
@<TRIPOS>MOLECULE
*****
 39 41 0 0 0
SMALL
GASTEIGER

@<TRIPOS>ATOM
      1 N           0.3301    3.4474   21.5389 N.pl3   1  UNL1       -0.1898
      2 C          -0.6001    3.3913   22.7143 C.ar    1  UNL1        0.0793
      3 C          -2.0614    3.6741   22.5285 C.ar    1  UNL1        0.0170
      4 C          -2.9916    3.6181   23.7039 C.ar    1  UNL1        0.0014
      5 C          -2.4604    3.2791   25.0651 C.ar    1  UNL1        0.0009
      6 C          -0.9992    2.9962   25.2510 C.ar    1  UNL1        0.0118
      7 C          -0.0690    3.0523   24.0756 C.ar    1  UNL1        0.0725
      8 CL          1.3924    2.7694   24.2614 Cl      1  UNL1       -0.0809
      9 C          -0.4681    2.6572   26.6122 C.ar    1  UNL1        0.0008
     10 C          -0.4923    1.2371   27.0945 C.ar    1  UNL1       -0.0000
     11 C           0.0389    0.8981   28.4557 C.ar    1  UNL1        0.0039
     12 C           0.5942    1.9792   29.3347 C.ar    1  UNL1        0.0714
     13 C           0.6184    3.3993   28.8525 C.ar    1  UNL1        0.0039
     14 C           0.0873    3.7383   27.4912 C.ar    1  UNL1       -0.0000
     15 C           1.1253    1.6402   30.6960 C.3     1  UNL1        0.4186
     16 F           1.6564    1.3013   32.0572 F       1  UNL1       -0.1659
     17 F           2.4664    1.3360   30.0969 F       1  UNL1       -0.1659
     18 F          -0.2158    1.9445   31.2950 F       1  UNL1       -0.1659
     19 S           1.0654    2.2141   21.1048 S.O2    1  UNL1        0.0763
     20 O          -0.2365    1.4774   20.9926 O.2     1  UNL1       -0.1497
     21 O           2.3672    2.9507   21.2170 O.2     1  UNL1       -0.1497
     22 C           1.8006    0.9808   20.6708 C.ar    1  UNL1        0.1213
     23 C           2.0850   -0.1101   21.6602 C.ar    1  UNL1        0.0230
     24 C           2.8202   -1.3434   21.2261 C.ar    1  UNL1        0.0379
     25 C           3.2711   -1.4858   19.8026 C.ar    1  UNL1        0.1347
     26 C           2.9868   -0.3949   18.8131 C.ar    1  UNL1        0.0095
     27 C           3.4376   -0.5373   17.3896 C.3     1  UNL1        0.0339
     28 C           2.2515    0.8384   19.2472 C.ar    1  UNL1       -0.0040
     29 C           1.9672    1.9293   18.2577 C.3     1  UNL1        0.0322
     30 O           4.0063   -2.7191   19.3686 O.3     1  UNL1       -0.4739
     31 C           5.4437   -2.9097   19.7528 C.3     1  UNL1        0.2020
     32 C           6.5164   -2.1254   19.0570 C.3     1  UNL1        0.0536
     33 C           5.8084   -3.8846   20.8330 C.2     1  UNL1        0.0900
     34 O           7.1693   -4.5151   20.8459 O.co2   1  UNL1       -0.5455
     35 O           4.8121   -4.2288   21.9002 O.co2   1  UNL1       -0.5455
     36 C           0.5251    4.7367   20.7976 C.3     1  UNL1        0.1159
     37 C          -0.4152    5.1158   19.6920 C.3     1  UNL1        0.0234
     38 C          -1.0013    3.9805   17.4299 C.3     1  UNL1        0.0001
     39 C          -1.1364    4.0495   18.9222 C.3     1  UNL1        0.0018
@<TRIPOS>UNITY_ATOM_ATTR
34 1
charge -1
@<TRIPOS>BOND
     1    38    39    1
     2    39    37    1
     3    37    36    1
     4    36     1    1
     5     1     2    1
     6     2     3   ar
     7     3     4   ar
     8     4     5   ar
     9     5     6   ar
    10     6     9    1
    11     9    10   ar
    12    10    11   ar
    13    11    12   ar
    14    12    15    1
    15    15    16    1
    16    15    17    1
    17    15    18    1
    18    12    13   ar
    19    13    14   ar
    20     6     7   ar
    21     7     8    1
    22     1    19    1
    23    19    20    2
    24    19    21    2
    25    19    22    1
    26    22    23   ar
    27    23    24   ar
    28    24    25   ar
    29    25    30    1
    30    30    31    1
    31    31    32    1
    32    31    33    1
    33    33    34   ar
    34    33    35   ar
    35    25    26   ar
    36    26    27    1
    37    26    28   ar
    38    28    29    1
    39     7     2   ar
    40    28    22   ar
    41    14     9   ar
@<TRIPOS>MOLECULE
*****
 39 41 0 0 0
SMALL
GASTEIGER

@<TRIPOS>ATOM
      1 N           4.3774   -1.1755   19.8836 N.pl3   1  UNL1       -0.1898
      2 C           5.6152   -1.3127   20.7198 C.ar    1  UNL1        0.0793
      3 C           6.9103   -0.7239   20.2447 C.ar    1  UNL1        0.0170
      4 C           8.1480   -0.8610   21.0809 C.ar    1  UNL1        0.0014
      5 C           8.0905   -1.5870   22.3923 C.ar    1  UNL1        0.0009
      6 C           6.7953   -2.1758   22.8674 C.ar    1  UNL1        0.0118
      7 C           5.5576   -2.0386   22.0312 C.ar    1  UNL1        0.0725
      8 CL          4.2624   -2.6274   22.5063 Cl      1  UNL1       -0.0809
      9 C           6.7378   -2.9018   24.1788 C.ar    1  UNL1        0.0008
     10 C           6.3866   -2.1579   25.4331 C.ar    1  UNL1       -0.0000
     11 C           6.3291   -2.8839   26.7444 C.ar    1  UNL1        0.0039
     12 C           6.6227   -4.3537   26.8015 C.ar    1  UNL1        0.0714
     13 C           6.9739   -5.0976   25.5472 C.ar    1  UNL1        0.0039
     14 C           7.0314   -4.3716   24.2358 C.ar    1  UNL1       -0.0000
     15 C           6.5652   -5.0797   28.1128 C.3     1  UNL1        0.4186
     16 F           6.5077   -5.8057   29.4242 F       1  UNL1       -0.1659
     17 F           6.3867   -6.3794   27.3855 F       1  UNL1       -0.1659
     18 F           6.7438   -3.7801   28.8402 F       1  UNL1       -0.1659
     19 S           3.2491   -0.3047   20.3511 S.O2    1  UNL1        0.0763
     20 O           2.2839   -1.4283   20.1147 O.2     1  UNL1       -0.1497
     21 O           4.2143    0.8189   20.5876 O.2     1  UNL1       -0.1497
     22 C           2.1208    0.5661   20.8187 C.ar    1  UNL1        0.1213
     23 C           1.7521    0.5998   22.2723 C.ar    1  UNL1        0.0230
     24 C           0.6238    1.4706   22.7398 C.ar    1  UNL1        0.0379
     25 C          -0.1358    2.3077   21.7539 C.ar    1  UNL1        0.1347
     26 C           0.2329    2.2741   20.3002 C.ar    1  UNL1        0.0095
     27 C          -0.5266    3.1113   19.3143 C.3     1  UNL1        0.0339
     28 C           1.3612    1.4033   19.8327 C.ar    1  UNL1       -0.0040
     29 C           1.7300    1.3697   18.3791 C.3     1  UNL1        0.0322
     30 O          -1.2641    3.1785   22.2215 O.3     1  UNL1       -0.4739
     31 C          -1.1983    3.8314   23.5703 C.3     1  UNL1        0.2020
     32 C          -0.3538    5.0547   23.7710 C.3     1  UNL1        0.0536
     33 C          -1.9772    3.2610   24.7184 C.2     1  UNL1        0.0900
     34 O          -3.4403    3.5619   24.8552 O.co2   1  UNL1       -0.5455
     35 O          -1.2928    2.3899   25.7297 O.co2   1  UNL1       -0.5455
     36 C           4.2680   -1.9091   18.5798 C.3     1  UNL1        0.1159
     37 C           5.1252   -3.1129   18.3223 C.3     1  UNL1        0.0234
     38 C           3.2910   -4.7005   19.2523 C.3     1  UNL1        0.0001
     39 C           4.7171   -4.4528   18.8589 C.3     1  UNL1        0.0018
@<TRIPOS>UNITY_ATOM_ATTR
34 1
charge -1
@<TRIPOS>BOND
     1    38    39    1
     2    39    37    1
     3    37    36    1
     4    36     1    1
     5     1     2    1
     6     2     3   ar
     7     3     4   ar
     8     4     5   ar
     9     5     6   ar
    10     6     9    1
    11     9    10   ar
    12    10    11   ar
    13    11    12   ar
    14    12    15    1
    15    15    16    1
    16    15    17    1
    17    15    18    1
    18    12    13   ar
    19    13    14   ar
    20     6     7   ar
    21     7     8    1
    22     1    19    1
    23    19    20    2
    24    19    21    2
    25    19    22    1
    26    22    23   ar
    27    23    24   ar
    28    24    25   ar
    29    25    30    1
    30    30    31    1
    31    31    32    1
    32    31    33    1
    33    33    34   ar
    34    33    35   ar
    35    25    26   ar
    36    26    27    1
    37    26    28   ar
    38    28    29    1
    39     7     2   ar
    40    28    22   ar
    41    14     9   ar
