@<TRIPOS>MOLECULE
*****
 29 32 0 0 0
SMALL
GASTEIGER

@<TRIPOS>ATOM
      1 N           2.7549   -0.0550   19.0321 N.ar    1  UNL1       -0.2286
      2 C           2.4681    1.2153   18.2877 C.ar    1  UNL1        0.0990
      3 C           1.2946    1.8815   18.9428 C.ar    1  UNL1        0.0338
      4 C           0.8562    1.0229   20.0920 C.ar    1  UNL1        0.0981
      5 N           1.7587   -0.1739   20.1472 N.ar    1  UNL1       -0.1680
      6 C          -0.3173    1.6891   20.7471 C.3     1  UNL1        0.1414
      7 N          -0.6042    2.9595   20.0027 N.am    1  UNL1       -0.2660
      8 C          -1.6955    3.9389   20.3180 C.2     1  UNL1        0.2525
      9 O          -1.8616    5.1722   19.4804 O.2     1  UNL1       -0.2698
     10 C           0.3921    3.0783   18.8876 C.3     1  UNL1        0.1236
     11 C           4.5363   -4.9356   18.9522 C.3     1  UNL1        0.0521
     12 C           4.7370   -3.4749   18.6768 C.ar    1  UNL1        0.0609
     13 C           3.6456   -2.4953   18.9921 C.ar    1  UNL1        0.0339
     14 C           3.8463   -1.0345   18.7168 C.ar    1  UNL1        0.0855
     15 C           5.1384   -0.5532   18.1261 C.ar    1  UNL1        0.0398
     16 C           6.2298   -1.5328   17.8108 C.ar    1  UNL1        0.1000
     17 N           6.0291   -2.9936   18.0862 N.ar    1  UNL1       -0.2480
     18 C          -2.6209    3.6852   21.4709 C.ar    1  UNL1        0.0881
     19 C          -2.1109    3.7850   22.8780 C.ar    1  UNL1        0.0178
     20 C          -3.0364    3.5312   24.0310 C.ar    1  UNL1        0.0688
     21 C          -4.4717    3.1777   23.7769 C.ar    1  UNL1        0.0134
     22 C          -4.9818    3.0779   22.3697 C.ar    1  UNL1        0.0377
     23 C          -4.0564    3.3316   21.2168 C.ar    1  UNL1        0.1427
     24 C          -2.5262    3.6310   25.4381 C.1     1  UNL1        0.1004
     25 N          -2.0162    3.7308   26.8451 N.1     1  UNL1       -0.1908
     26 O          -4.5664    3.2318   19.8097 O.3     1  UNL1       -0.4790
     27 C          -5.6153    4.1871   19.3226 C.3     1  UNL1        0.1661
     28 C          -6.9064    3.6637   18.7668 C.3     1  UNL1        0.0472
     29 C          -5.3730    5.6658   19.3913 C.3     1  UNL1        0.0472
@<TRIPOS>BOND
     1    11    12    1
     2    12    13   ar
     3    13    14   ar
     4    14     1    1
     5     1     2   ar
     6     2     3   ar
     7     3     4   ar
     8     4     5   ar
     9     4     6    1
    10     6     7    1
    11     7     8   am
    12     8     9    2
    13     8    18    1
    14    18    19   ar
    15    19    20   ar
    16    20    24    1
    17    24    25    3
    18    20    21   ar
    19    21    22   ar
    20    22    23   ar
    21    23    26    1
    22    26    27    1
    23    27    28    1
    24    27    29    1
    25     7    10    1
    26    14    15   ar
    27    15    16   ar
    28    16    17   ar
    29    17    12   ar
    30     5     1   ar
    31    23    18   ar
    32    10     3    1
@<TRIPOS>MOLECULE
*****
 29 32 0 0 0
SMALL
GASTEIGER

@<TRIPOS>ATOM
      1 N           6.3543   -2.6916   25.6264 N.ar    1  UNL1       -0.2286
      2 C           6.1810   -3.9084   24.7665 C.ar    1  UNL1        0.0990
      3 C           5.4857   -3.4892   23.5052 C.ar    1  UNL1        0.0338
      4 C           5.2294   -2.0135   23.5856 C.ar    1  UNL1        0.0981
      5 N           5.7662   -1.5205   24.8966 N.ar    1  UNL1       -0.1680
      6 C           4.5341   -1.5943   22.3242 C.3     1  UNL1        0.1414
      7 N           4.3608   -2.8111   21.4642 N.am    1  UNL1       -0.2660
      8 C           3.7131   -2.8499   20.1119 C.2     1  UNL1        0.2525
      9 O           3.6112   -4.1474   19.3660 O.2     1  UNL1       -0.2698
     10 C           4.9489   -3.9822   22.1941 C.3     1  UNL1        0.1236
     11 C           6.9119   -4.6507   30.4067 C.3     1  UNL1        0.0521
     12 C           7.2809   -3.6323   29.3690 C.ar    1  UNL1        0.0609
     13 C           6.6332   -3.6711   28.0166 C.ar    1  UNL1        0.0339
     14 C           7.0020   -2.6528   26.9788 C.ar    1  UNL1        0.0855
     15 C           8.0186   -1.5956   27.2934 C.ar    1  UNL1        0.0398
     16 C           8.6663   -1.5569   28.6459 C.ar    1  UNL1        0.1000
     17 N           8.2974   -2.5752   29.6837 N.ar    1  UNL1       -0.2480
     18 C           3.1672   -1.5913   19.5053 C.ar    1  UNL1        0.0881
     19 C           2.0145   -0.8845   20.1547 C.ar    1  UNL1        0.0178
     20 C           1.4686    0.3742   19.5481 C.ar    1  UNL1        0.0688
     21 C           2.0753    0.9259   18.2923 C.ar    1  UNL1        0.0134
     22 C           3.2281    0.2191   17.6428 C.ar    1  UNL1        0.0377
     23 C           3.7740   -1.0395   18.2494 C.ar    1  UNL1        0.1427
     24 C           0.3159    1.0809   20.1976 C.1     1  UNL1        0.1004
     25 N          -0.8368    1.7876   20.8472 N.1     1  UNL1       -0.1908
     26 O           4.9266   -1.7463   17.6000 O.3     1  UNL1       -0.4790
     27 C           6.3342   -1.3556   17.9408 C.3     1  UNL1        0.1661
     28 C           6.8790   -0.0364   17.4794 C.3     1  UNL1        0.0472
     29 C           7.1970   -2.2841   18.7429 C.3     1  UNL1        0.0472
@<TRIPOS>BOND
     1    11    12    1
     2    12    13   ar
     3    13    14   ar
     4    14     1    1
     5     1     2   ar
     6     2     3   ar
     7     3     4   ar
     8     4     5   ar
     9     4     6    1
    10     6     7    1
    11     7     8   am
    12     8     9    2
    13     8    18    1
    14    18    19   ar
    15    19    20   ar
    16    20    24    1
    17    24    25    3
    18    20    21   ar
    19    21    22   ar
    20    22    23   ar
    21    23    26    1
    22    26    27    1
    23    27    28    1
    24    27    29    1
    25     7    10    1
    26    14    15   ar
    27    15    16   ar
    28    16    17   ar
    29    17    12   ar
    30     5     1   ar
    31    23    18   ar
    32    10     3    1
@<TRIPOS>MOLECULE
*****
 29 32 0 0 0
SMALL
GASTEIGER

@<TRIPOS>ATOM
      1 N           1.2080    1.1862   25.1103 N.ar    1  UNL1       -0.2286
      2 C           0.1553    1.2771   24.0457 C.ar    1  UNL1        0.0990
      3 C           0.8161    1.0438   22.7194 C.ar    1  UNL1        0.0338
      4 C           2.2772    0.8088   22.9644 C.ar    1  UNL1        0.0981
      5 N           2.5194    0.8968   24.4421 N.ar    1  UNL1       -0.1680
      6 C           2.9380    0.5755   21.6382 C.3     1  UNL1        0.1414
      7 N           1.8853    0.6664   20.5734 N.am    1  UNL1       -0.2660
      8 C           2.1053    0.4975   19.0994 C.2     1  UNL1        0.2525
      9 O           0.9500    0.6166   18.1500 O.2     1  UNL1       -0.2698
     10 C           0.5739    0.9558   21.2417 C.3     1  UNL1        0.1236
     11 C          -1.6419    0.3049   29.3649 C.3     1  UNL1        0.0521
     12 C          -0.4370    0.9145   28.7118 C.ar    1  UNL1        0.0609
     13 C          -0.2169    0.7456   27.2376 C.ar    1  UNL1        0.0339
     14 C           0.9880    1.3551   26.5845 C.ar    1  UNL1        0.0855
     15 C           1.9729    2.1336   27.4054 C.ar    1  UNL1        0.0398
     16 C           1.7528    2.3024   28.8796 C.ar    1  UNL1        0.1000
     17 N           0.5479    1.6929   29.5328 N.ar    1  UNL1       -0.2480
     18 C           3.4806    0.2095   18.5745 C.ar    1  UNL1        0.0881
     19 C           4.3129    1.3190   18.0032 C.ar    1  UNL1        0.0178
     20 C           5.6883    1.0310   17.4782 C.ar    1  UNL1        0.0688
     21 C           6.2314   -0.3664   17.5246 C.ar    1  UNL1        0.0134
     22 C           5.3991   -1.4759   18.0960 C.ar    1  UNL1        0.0377
     23 C           4.0238   -1.1880   18.6208 C.ar    1  UNL1        0.1427
     24 C           6.5204    2.1406   16.9070 C.1     1  UNL1        0.1004
     25 N           7.3527    3.2501   16.3358 N.1     1  UNL1       -0.1908
     26 O           3.1916   -2.2974   19.1921 O.3     1  UNL1       -0.4790
     27 C           3.8559   -3.4783   19.8358 C.3     1  UNL1        0.1661
     28 C           4.4508   -3.3491   21.2067 C.3     1  UNL1        0.0472
     29 C           3.9252   -4.7884   19.1086 C.3     1  UNL1        0.0472
@<TRIPOS>BOND
     1    11    12    1
     2    12    13   ar
     3    13    14   ar
     4    14     1    1
     5     1     2   ar
     6     2     3   ar
     7     3     4   ar
     8     4     5   ar
     9     4     6    1
    10     6     7    1
    11     7     8   am
    12     8     9    2
    13     8    18    1
    14    18    19   ar
    15    19    20   ar
    16    20    24    1
    17    24    25    3
    18    20    21   ar
    19    21    22   ar
    20    22    23   ar
    21    23    26    1
    22    26    27    1
    23    27    28    1
    24    27    29    1
    25     7    10    1
    26    14    15   ar
    27    15    16   ar
    28    16    17   ar
    29    17    12   ar
    30     5     1   ar
    31    23    18   ar
    32    10     3    1
@<TRIPOS>MOLECULE
*****
 29 32 0 0 0
SMALL
GASTEIGER

@<TRIPOS>ATOM
      1 N           1.2031    1.0350   25.2349 N.ar    1  UNL1       -0.2286
      2 C           0.3871    1.5341   24.0795 C.ar    1  UNL1        0.0990
      3 C           1.0363    1.0584   22.8138 C.ar    1  UNL1        0.0338
      4 C           2.2536    0.2653   23.1868 C.ar    1  UNL1        0.0981
      5 N           2.3567    0.2508   24.6832 N.ar    1  UNL1       -0.1680
      6 C           2.9028   -0.2104   21.9211 C.3     1  UNL1        0.1414
      7 N           2.0867    0.2887   20.7656 N.am    1  UNL1       -0.2660
      8 C           2.3738    0.0462   19.3135 C.2     1  UNL1        0.2525
      9 O           1.4631    0.6118   18.2642 O.2     1  UNL1       -0.2698
     10 C           0.9332    1.0728   21.3174 C.3     1  UNL1        0.1236
     11 C          -1.7635    0.2488   29.4279 C.3     1  UNL1        0.0521
     12 C          -0.5673    0.8843   28.7836 C.ar    1  UNL1        0.0609
     13 C          -0.2801    0.6419   27.3314 C.ar    1  UNL1        0.0339
     14 C           0.9161    1.2774   26.6871 C.ar    1  UNL1        0.0855
     15 C           1.8252    2.1554   27.4949 C.ar    1  UNL1        0.0398
     16 C           1.5380    2.3978   28.9471 C.ar    1  UNL1        0.1000
     17 N           0.3418    1.7623   29.5915 N.ar    1  UNL1       -0.2480
     18 C           3.5716   -0.7618   18.9105 C.ar    1  UNL1        0.0881
     19 C           3.5644   -2.2516   19.0851 C.ar    1  UNL1        0.0178
     20 C           4.7623   -3.0597   18.6820 C.ar    1  UNL1        0.0688
     21 C           5.9671   -2.3781   18.1045 C.ar    1  UNL1        0.0134
     22 C           5.9742   -0.8882   17.9299 C.ar    1  UNL1        0.0377
     23 C           4.7765   -0.0802   18.3329 C.ar    1  UNL1        0.1427
     24 C           4.7550   -4.5495   18.8567 C.1     1  UNL1        0.1004
     25 N           4.7479   -6.0393   19.0314 N.1     1  UNL1       -0.1908
     26 O           4.7836    1.4096   18.1583 O.3     1  UNL1       -0.4790
     27 C           5.4371    2.2823   19.1885 C.3     1  UNL1        0.1661
     28 C           4.6468    2.7756   20.3640 C.3     1  UNL1        0.0472
     29 C           6.8810    2.6618   19.0430 C.3     1  UNL1        0.0472
@<TRIPOS>BOND
     1    11    12    1
     2    12    13   ar
     3    13    14   ar
     4    14     1    1
     5     1     2   ar
     6     2     3   ar
     7     3     4   ar
     8     4     5   ar
     9     4     6    1
    10     6     7    1
    11     7     8   am
    12     8     9    2
    13     8    18    1
    14    18    19   ar
    15    19    20   ar
    16    20    24    1
    17    24    25    3
    18    20    21   ar
    19    21    22   ar
    20    22    23   ar
    21    23    26    1
    22    26    27    1
    23    27    28    1
    24    27    29    1
    25     7    10    1
    26    14    15   ar
    27    15    16   ar
    28    16    17   ar
    29    17    12   ar
    30     5     1   ar
    31    23    18   ar
    32    10     3    1
@<TRIPOS>MOLECULE
*****
 29 32 0 0 0
SMALL
GASTEIGER

@<TRIPOS>ATOM
      1 N           2.8767   -1.2334   19.6779 N.ar    1  UNL1       -0.2286
      2 C           3.1735    0.0548   18.9691 C.ar    1  UNL1        0.0990
      3 C           2.0128    0.9802   19.1840 C.ar    1  UNL1        0.0338
      4 C           0.9985    0.2640   20.0256 C.ar    1  UNL1        0.0981
      5 N           1.5324   -1.1041   20.3309 N.ar    1  UNL1       -0.1680
      6 C          -0.1623    1.1894   20.2405 C.3     1  UNL1        0.1414
      7 N           0.1346    2.4777   19.5316 N.am    1  UNL1       -0.2660
      8 C          -0.7564    3.6834   19.4841 C.2     1  UNL1        0.2525
      9 O          -0.3235    4.9067   18.7314 O.2     1  UNL1       -0.2698
     10 C           1.4788    2.3483   18.8787 C.3     1  UNL1        0.1236
     11 C           7.3306   -3.4832   21.1275 C.3     1  UNL1        0.0521
     12 C           5.9946   -3.5641   20.4503 C.ar    1  UNL1        0.0609
     13 C           5.1036   -2.3583   20.4027 C.ar    1  UNL1        0.0339
     14 C           3.7676   -2.4392   19.7255 C.ar    1  UNL1        0.0855
     15 C           3.3226   -3.7258   19.0958 C.ar    1  UNL1        0.0398
     16 C           4.2136   -4.9316   19.1434 C.ar    1  UNL1        0.1000
     17 N           5.5496   -4.8508   19.8206 N.ar    1  UNL1       -0.2480
     18 C          -2.0802    3.6661   20.1892 C.ar    1  UNL1        0.0881
     19 C          -3.3524    3.6347   19.3952 C.ar    1  UNL1        0.0178
     20 C          -4.6763    3.6173   20.1003 C.ar    1  UNL1        0.0688
     21 C          -4.7279    3.6314   21.5993 C.ar    1  UNL1        0.0134
     22 C          -3.4557    3.6628   22.3934 C.ar    1  UNL1        0.0377
     23 C          -2.1318    3.6801   21.6883 C.ar    1  UNL1        0.1427
     24 C          -5.9485    3.5859   19.3063 C.1     1  UNL1        0.1004
     25 N          -7.2207    3.5546   18.5122 N.1     1  UNL1       -0.1908
     26 O          -0.8596    3.7115   22.4822 O.3     1  UNL1       -0.4790
     27 C          -0.9011    3.9961   23.9544 C.3     1  UNL1        0.1661
     28 C          -0.9330    5.4137   24.4437 C.3     1  UNL1        0.0472
     29 C          -0.9107    2.8630   24.9373 C.3     1  UNL1        0.0472
@<TRIPOS>BOND
     1    11    12    1
     2    12    13   ar
     3    13    14   ar
     4    14     1    1
     5     1     2   ar
     6     2     3   ar
     7     3     4   ar
     8     4     5   ar
     9     4     6    1
    10     6     7    1
    11     7     8   am
    12     8     9    2
    13     8    18    1
    14    18    19   ar
    15    19    20   ar
    16    20    24    1
    17    24    25    3
    18    20    21   ar
    19    21    22   ar
    20    22    23   ar
    21    23    26    1
    22    26    27    1
    23    27    28    1
    24    27    29    1
    25     7    10    1
    26    14    15   ar
    27    15    16   ar
    28    16    17   ar
    29    17    12   ar
    30     5     1   ar
    31    23    18   ar
    32    10     3    1
@<TRIPOS>MOLECULE
*****
 29 32 0 0 0
SMALL
GASTEIGER

@<TRIPOS>ATOM
      1 N           2.4325   -0.8941   21.0071 N.ar    1  UNL1       -0.2286
      2 C           2.1994   -0.0644   22.2349 C.ar    1  UNL1        0.0990
      3 C           1.1345    0.9434   21.9179 C.ar    1  UNL1        0.0338
      4 C           0.7095    0.7365   20.4943 C.ar    1  UNL1        0.0981
      5 N           1.5117   -0.3991   19.9314 N.ar    1  UNL1       -0.1680
      6 C          -0.3553    1.7443   20.1773 C.3     1  UNL1        0.1414
      7 N          -0.5885    2.5740   21.4050 N.am    1  UNL1       -0.2660
      8 C          -1.5700    3.7008   21.5343 C.2     1  UNL1        0.2525
      9 O          -1.6928    4.4435   22.8319 O.2     1  UNL1       -0.2698
     10 C           0.3323    2.0790   22.4807 C.3     1  UNL1        0.1236
     11 C           6.0925   -3.9355   23.0938 C.3     1  UNL1        0.0521
     12 C           5.2441   -3.5417   21.9212 C.ar    1  UNL1        0.0609
     13 C           4.2625   -2.4148   22.0504 C.ar    1  UNL1        0.0339
     14 C           3.4141   -2.0210   20.8778 C.ar    1  UNL1        0.0855
     15 C           3.5472   -2.7539   19.5759 C.ar    1  UNL1        0.0398
     16 C           4.5288   -3.8808   19.4467 C.ar    1  UNL1        0.1000
     17 N           5.3772   -4.2747   20.6193 N.ar    1  UNL1       -0.2480
     18 C          -2.4288    4.0851   20.3661 C.ar    1  UNL1        0.0881
     19 C          -1.8808    4.9808   19.2949 C.ar    1  UNL1        0.0178
     20 C          -2.7397    5.3652   18.1266 C.ar    1  UNL1        0.0688
     21 C          -4.1464    4.8539   18.0296 C.ar    1  UNL1        0.0134
     22 C          -4.6945    3.9582   19.1009 C.ar    1  UNL1        0.0377
     23 C          -3.8357    3.5738   20.2691 C.ar    1  UNL1        0.1427
     24 C          -2.1916    6.2608   17.0555 C.1     1  UNL1        0.1004
     25 N          -1.6435    7.1564   15.9843 N.1     1  UNL1       -0.1908
     26 O          -4.3837    2.6782   21.3403 O.3     1  UNL1       -0.4790
     27 C          -5.1376    3.2659   22.4962 C.3     1  UNL1        0.1661
     28 C          -4.7308    2.9369   23.9020 C.3     1  UNL1        0.0472
     29 C          -6.2982    4.1827   22.2464 C.3     1  UNL1        0.0472
@<TRIPOS>BOND
     1    11    12    1
     2    12    13   ar
     3    13    14   ar
     4    14     1    1
     5     1     2   ar
     6     2     3   ar
     7     3     4   ar
     8     4     5   ar
     9     4     6    1
    10     6     7    1
    11     7     8   am
    12     8     9    2
    13     8    18    1
    14    18    19   ar
    15    19    20   ar
    16    20    24    1
    17    24    25    3
    18    20    21   ar
    19    21    22   ar
    20    22    23   ar
    21    23    26    1
    22    26    27    1
    23    27    28    1
    24    27    29    1
    25     7    10    1
    26    14    15   ar
    27    15    16   ar
    28    16    17   ar
    29    17    12   ar
    30     5     1   ar
    31    23    18   ar
    32    10     3    1
@<TRIPOS>MOLECULE
*****
 29 32 0 0 0
SMALL
GASTEIGER

@<TRIPOS>ATOM
      1 N           2.4612   -0.6060   20.7686 N.ar    1  UNL1       -0.2286
      2 C           2.9177    0.8163   20.9059 C.ar    1  UNL1        0.0990
      3 C           1.7405    1.7082   20.6441 C.ar    1  UNL1        0.0338
      4 C           0.5564    0.8373   20.3451 C.ar    1  UNL1        0.0981
      5 N           1.0018   -0.5930   20.4220 N.ar    1  UNL1       -0.1680
      6 C          -0.6208    1.7293   20.0834 C.3     1  UNL1        0.1414
      7 N          -0.1643    3.1516   20.2207 N.am    1  UNL1       -0.2660
      8 C          -1.0173    4.3724   20.0426 C.2     1  UNL1        0.2525
      9 O          -0.4184    5.7372   20.2126 O.2     1  UNL1       -0.2698
     10 C           1.2951    3.1385   20.5672 C.3     1  UNL1        0.1236
     11 C           4.5910   -4.9296   18.8269 C.3     1  UNL1        0.0521
     12 C           4.3792   -3.9887   19.9757 C.ar    1  UNL1        0.0609
     13 C           3.5261   -2.7678   19.7978 C.ar    1  UNL1        0.0339
     14 C           3.3143   -1.8269   20.9466 C.ar    1  UNL1        0.0855
     15 C           3.9554   -2.1069   22.2734 C.ar    1  UNL1        0.0398
     16 C           4.8085   -3.3279   22.4514 C.ar    1  UNL1        0.1000
     17 N           5.0203   -4.2688   21.3026 N.ar    1  UNL1       -0.2480
     18 C          -2.4693    4.2286   19.6947 C.ar    1  UNL1        0.0881
     19 C          -3.5078    4.2744   20.7761 C.ar    1  UNL1        0.0178
     20 C          -4.9598    4.1306   20.4281 C.ar    1  UNL1        0.0688
     21 C          -5.3733    3.9411   18.9988 C.ar    1  UNL1        0.0134
     22 C          -4.3348    3.8953   17.9173 C.ar    1  UNL1        0.0377
     23 C          -2.8828    4.0391   18.2653 C.ar    1  UNL1        0.1427
     24 C          -5.9982    4.1764   21.5096 C.1     1  UNL1        0.1004
     25 N          -7.0366    4.2220   22.5911 N.1     1  UNL1       -0.1908
     26 O          -1.8444    3.9933   17.1839 O.3     1  UNL1       -0.4790
     27 C          -1.2794    5.2686   16.6321 C.3     1  UNL1        0.1661
     28 C           0.2060    5.4437   16.5188 C.3     1  UNL1        0.0472
     29 C          -2.1999    6.3688   16.1936 C.3     1  UNL1        0.0472
@<TRIPOS>BOND
     1    11    12    1
     2    12    13   ar
     3    13    14   ar
     4    14     1    1
     5     1     2   ar
     6     2     3   ar
     7     3     4   ar
     8     4     5   ar
     9     4     6    1
    10     6     7    1
    11     7     8   am
    12     8     9    2
    13     8    18    1
    14    18    19   ar
    15    19    20   ar
    16    20    24    1
    17    24    25    3
    18    20    21   ar
    19    21    22   ar
    20    22    23   ar
    21    23    26    1
    22    26    27    1
    23    27    28    1
    24    27    29    1
    25     7    10    1
    26    14    15   ar
    27    15    16   ar
    28    16    17   ar
    29    17    12   ar
    30     5     1   ar
    31    23    18   ar
    32    10     3    1
@<TRIPOS>MOLECULE
*****
 29 32 0 0 0
SMALL
GASTEIGER

@<TRIPOS>ATOM
      1 N           7.0825   -4.2171   24.1713 N.ar    1  UNL1       -0.2286
      2 C           7.5446   -4.7870   22.8630 C.ar    1  UNL1        0.0990
      3 C           7.2290   -3.7913   21.7865 C.ar    1  UNL1        0.0338
      4 C           6.5718   -2.6060   22.4294 C.ar    1  UNL1        0.0981
      5 N           6.4813   -2.8692   23.9034 N.ar    1  UNL1       -0.1680
      6 C           6.2562   -1.6103   21.3529 C.3     1  UNL1        0.1414
      7 N           6.7184   -2.1802   20.0445 N.am    1  UNL1       -0.2660
      8 C           6.6001   -1.5184   18.7036 C.2     1  UNL1        0.2525
      9 O           7.1101   -2.2139   17.4763 O.2     1  UNL1       -0.2698
     10 C           7.3196   -3.5281   20.3125 C.3     1  UNL1        0.1236
     11 C           8.0388   -8.4476   27.0329 C.3     1  UNL1        0.0521
     12 C           7.6789   -6.9942   26.9431 C.ar    1  UNL1        0.0609
     13 C           7.5606   -6.3323   25.6022 C.ar    1  UNL1        0.0339
     14 C           7.2008   -4.8789   25.5122 C.ar    1  UNL1        0.0855
     15 C           6.9592   -4.0873   26.7632 C.ar    1  UNL1        0.0398
     16 C           7.0775   -4.7492   28.1041 C.ar    1  UNL1        0.1000
     17 N           7.4373   -6.2026   28.1940 N.ar    1  UNL1       -0.2480
     18 C           5.9718   -0.1611   18.5900 C.ar    1  UNL1        0.0881
     19 C           6.8144    1.0705   18.7426 C.ar    1  UNL1        0.0178
     20 C           6.1861    2.4279   18.6290 C.ar    1  UNL1        0.0688
     21 C           4.7154    2.5537   18.3627 C.ar    1  UNL1        0.0134
     22 C           3.8727    1.3221   18.2100 C.ar    1  UNL1        0.0377
     23 C           4.5010   -0.0352   18.3237 C.ar    1  UNL1        0.1427
     24 C           7.0288    3.6594   18.7816 C.1     1  UNL1        0.1004
     25 N           7.8714    4.8910   18.9342 N.1     1  UNL1       -0.1908
     26 O           3.6584   -1.2668   18.1711 O.3     1  UNL1       -0.4790
     27 C           3.2068   -2.0219   19.3859 C.3     1  UNL1        0.1661
     28 C           3.3930   -3.5085   19.4572 C.3     1  UNL1        0.0472
     29 C           2.5690   -1.2902   20.5296 C.3     1  UNL1        0.0472
@<TRIPOS>BOND
     1    11    12    1
     2    12    13   ar
     3    13    14   ar
     4    14     1    1
     5     1     2   ar
     6     2     3   ar
     7     3     4   ar
     8     4     5   ar
     9     4     6    1
    10     6     7    1
    11     7     8   am
    12     8     9    2
    13     8    18    1
    14    18    19   ar
    15    19    20   ar
    16    20    24    1
    17    24    25    3
    18    20    21   ar
    19    21    22   ar
    20    22    23   ar
    21    23    26    1
    22    26    27    1
    23    27    28    1
    24    27    29    1
    25     7    10    1
    26    14    15   ar
    27    15    16   ar
    28    16    17   ar
    29    17    12   ar
    30     5     1   ar
    31    23    18   ar
    32    10     3    1
@<TRIPOS>MOLECULE
*****
 29 32 0 0 0
SMALL
GASTEIGER

@<TRIPOS>ATOM
      1 N           1.4218    1.1222   27.2755 N.ar    1  UNL1       -0.2286
      2 C           0.3059    1.6654   26.4330 C.ar    1  UNL1        0.0990
      3 C           0.6410    1.4029   24.9947 C.ar    1  UNL1        0.0338
      4 C           1.9639    0.6974   24.9482 C.ar    1  UNL1        0.0981
      5 N           2.4465    0.5239   26.3578 N.ar    1  UNL1       -0.1680
      6 C           2.2989    0.4349   23.5098 C.3     1  UNL1        0.1414
      7 N           1.1830    0.9781   22.6673 N.am    1  UNL1       -0.2660
      8 C           1.1054    0.9313   21.1702 C.2     1  UNL1        0.2525
      9 O          -0.0791    1.5189   20.4617 O.2     1  UNL1       -0.2698
     10 C           0.1583    1.5764   23.5851 C.3     1  UNL1        0.1236
     11 C           3.4712   -0.5948   31.7310 C.3     1  UNL1        0.0521
     12 C           2.5242    0.3105   31.0006 C.ar    1  UNL1        0.0609
     13 C           2.4465    0.2638   29.5033 C.ar    1  UNL1        0.0339
     14 C           1.4995    1.1690   28.7727 C.ar    1  UNL1        0.0855
     15 C           0.6301    2.1210   29.5394 C.ar    1  UNL1        0.0398
     16 C           0.7078    2.1677   31.0367 C.ar    1  UNL1        0.1000
     17 N           1.6548    1.2625   31.7673 N.ar    1  UNL1       -0.2480
     18 C           2.2122    0.2970   20.3812 C.ar    1  UNL1        0.0881
     19 C           2.2801   -1.1958   20.2509 C.ar    1  UNL1        0.0178
     20 C           3.3870   -1.8302   19.4619 C.ar    1  UNL1        0.0688
     21 C           4.4259   -0.9719   18.8033 C.ar    1  UNL1        0.0134
     22 C           4.3581    0.5209   18.9337 C.ar    1  UNL1        0.0377
     23 C           3.2513    1.1553   19.7226 C.ar    1  UNL1        0.1427
     24 C           3.4548   -3.3230   19.3316 C.1     1  UNL1        0.1004
     25 N           3.5227   -4.8158   19.2014 N.1     1  UNL1       -0.1908
     26 O           3.1834    2.6481   19.8530 O.3     1  UNL1       -0.4790
     27 C           2.8794    3.4928   18.6513 C.3     1  UNL1        0.1661
     28 C           3.9994    4.0610   17.8312 C.3     1  UNL1        0.0472
     29 C           1.4553    3.7694   18.2698 C.3     1  UNL1        0.0472
@<TRIPOS>BOND
     1    11    12    1
     2    12    13   ar
     3    13    14   ar
     4    14     1    1
     5     1     2   ar
     6     2     3   ar
     7     3     4   ar
     8     4     5   ar
     9     4     6    1
    10     6     7    1
    11     7     8   am
    12     8     9    2
    13     8    18    1
    14    18    19   ar
    15    19    20   ar
    16    20    24    1
    17    24    25    3
    18    20    21   ar
    19    21    22   ar
    20    22    23   ar
    21    23    26    1
    22    26    27    1
    23    27    28    1
    24    27    29    1
    25     7    10    1
    26    14    15   ar
    27    15    16   ar
    28    16    17   ar
    29    17    12   ar
    30     5     1   ar
    31    23    18   ar
    32    10     3    1
