@<TRIPOS>MOLECULE
*****
 26 27 0 0 0
SMALL
GASTEIGER

@<TRIPOS>ATOM
      1 C         -10.5858  -19.6006   20.7257 C.3     1  UNL1        0.0886
      2 N          -9.4263  -18.7912   20.2252 N.pl3   1  UNL1       -0.3130
      3 H          -9.5722  -18.0832   19.5569 H       1  UNL1        0.1487
      4 C          -8.0445  -19.0607   20.7428 C.ar    1  UNL1        0.1599
      5 N          -6.7613  -18.6297   20.0966 N.ar    1  UNL1       -0.2227
      6 C          -5.6270  -19.1110   20.9520 C.ar    1  UNL1        0.1073
      7 C          -6.2091  -19.8396   22.1269 C.ar    1  UNL1        0.0588
      8 S          -7.7032  -19.8084   21.9976 S.2     1  UNL1       -0.0512
      9 C          -4.1668  -18.9008   20.6802 C.ar    1  UNL1        0.0995
     10 C          -3.1503  -19.2620   21.7224 C.ar    1  UNL1        0.0207
     11 C          -1.6902  -19.0517   21.4505 C.ar    1  UNL1        0.0032
     12 C          -1.2467  -18.4803   20.1365 C.ar    1  UNL1        0.0207
     13 C          -2.2632  -18.1191   19.0943 C.ar    1  UNL1        0.0989
     14 N          -3.7233  -18.3293   19.3661 N.ar    1  UNL1       -0.2423
     15 C         -11.4387  -19.0776   21.8433 C.3     1  UNL1        0.0213
     16 C         -12.5603  -18.1261   21.5487 C.3     1  UNL1        0.0032
     17 C         -12.2637  -16.7702   20.9800 C.3     1  UNL1        0.0189
     18 C         -11.3294  -15.8431   21.6994 C.3     1  UNL1        0.0925
     19 N          -9.8536  -15.9170   21.4418 N.3     1  UNL1       -0.1692
     20 H          -9.6916  -16.7649   20.8984 H       1  UNL1        0.1499
     21 S          -8.8921  -15.9498   22.5925 S.O2    1  UNL1        0.0990
     22 O          -7.7747  -15.5620   21.6700 O.2     1  UNL1       -0.1411
     23 O         -10.0095  -16.3376   23.5151 O.2     1  UNL1       -0.1411
     24 C          -6.4947  -16.3492   23.5108 C.3     1  UNL1        0.1161
     25 N          -7.9306  -15.9827   23.7433 N.3     1  UNL1       -0.1426
     26 C          -8.4048  -15.6490   25.1267 C.3     1  UNL1        0.1161
@<TRIPOS>BOND
     1    24    25    1
     2    25    26    1
     3    25    21    1
     4    21    22    2
     5    21    23    2
     6    21    19    1
     7    19    18    1
     8    18    17    1
     9    17    16    1
    10    16    15    1
    11    15     1    1
    12     1     2    1
    13     2     4    1
    14     4     5   ar
    15     5     6   ar
    16     6     9    1
    17     9    10   ar
    18    10    11   ar
    19    11    12   ar
    20    12    13   ar
    21    13    14   ar
    22     6     7   ar
    23     7     8   ar
    24     8     4   ar
    25    14     9   ar
    26    19    20    1
    27     2     3    1
@<TRIPOS>MOLECULE
*****
 26 27 0 0 0
SMALL
GASTEIGER

@<TRIPOS>ATOM
      1 C          -3.8578  -19.4334   19.7405 C.3     1  UNL1        0.0886
      2 N          -5.0967  -18.5887   19.6975 N.pl3   1  UNL1       -0.3130
      3 H          -5.1642  -17.8463   19.0546 H       1  UNL1        0.1487
      4 C          -6.2326  -18.8753   20.6343 C.ar    1  UNL1        0.1599
      5 N          -7.5237  -18.1158   20.7128 N.ar    1  UNL1       -0.2227
      6 C          -8.3660  -18.7429   21.7840 C.ar    1  UNL1        0.1073
      7 C          -7.5954  -19.8899   22.3675 C.ar    1  UNL1        0.0588
      8 S          -6.2770  -19.9718   21.6570 S.2     1  UNL1       -0.0512
      9 C          -9.7380  -18.3005   22.1989 C.ar    1  UNL1        0.0995
     10 C         -10.4141  -18.9515   23.3689 C.ar    1  UNL1        0.0207
     11 C         -11.7860  -18.5091   23.7837 C.ar    1  UNL1        0.0032
     12 C         -12.4818  -17.4157   23.0284 C.ar    1  UNL1        0.0207
     13 C         -11.8057  -16.7647   21.8584 C.ar    1  UNL1        0.0989
     14 N         -10.4338  -17.2071   21.4436 N.ar    1  UNL1       -0.2423
     15 C          -2.6230  -18.9197   20.4197 C.3     1  UNL1        0.0213
     16 C          -2.5591  -18.8635   21.9173 C.3     1  UNL1        0.0032
     17 C          -2.8087  -17.5678   22.6306 C.3     1  UNL1        0.0189
     18 C          -4.0615  -17.3835   23.4345 C.3     1  UNL1        0.0925
     19 N          -4.7908  -16.0733   23.3970 N.3     1  UNL1       -0.1692
     20 H          -4.1111  -15.3510   23.6351 H       1  UNL1        0.1499
     21 S          -5.9835  -15.8533   24.2795 S.O2    1  UNL1        0.0990
     22 O          -5.1041  -15.9464   25.4912 O.2     1  UNL1       -0.1411
     23 O          -6.8629  -15.7601   23.0679 O.2     1  UNL1       -0.1411
     24 C          -6.9902  -15.4206   26.6352 C.3     1  UNL1        0.1161
     25 N          -7.1763  -15.6332   25.1621 N.3     1  UNL1       -0.1426
     26 C          -8.5551  -15.6257   24.5715 C.3     1  UNL1        0.1161
@<TRIPOS>BOND
     1    24    25    1
     2    25    26    1
     3    25    21    1
     4    21    22    2
     5    21    23    2
     6    21    19    1
     7    19    18    1
     8    18    17    1
     9    17    16    1
    10    16    15    1
    11    15     1    1
    12     1     2    1
    13     2     4    1
    14     4     5   ar
    15     5     6   ar
    16     6     9    1
    17     9    10   ar
    18    10    11   ar
    19    11    12   ar
    20    12    13   ar
    21    13    14   ar
    22     6     7   ar
    23     7     8   ar
    24     8     4   ar
    25    14     9   ar
    26    19    20    1
    27     2     3    1
@<TRIPOS>MOLECULE
*****
 26 27 0 0 0
SMALL
GASTEIGER

@<TRIPOS>ATOM
      1 C          -9.7371  -19.2744   19.5312 C.3     1  UNL1        0.0886
      2 N          -9.9805  -17.8800   20.0278 N.pl3   1  UNL1       -0.3130
      3 H         -10.2038  -17.1628   19.3914 H       1  UNL1        0.1487
      4 C          -9.8839  -17.5785   21.4939 C.ar    1  UNL1        0.1599
      5 N          -8.6979  -16.9864   22.1960 N.ar    1  UNL1       -0.2227
      6 C          -9.0373  -16.8580   23.6515 C.ar    1  UNL1        0.1073
      7 C         -10.4330  -17.3708   23.8490 C.ar    1  UNL1        0.0588
      8 S         -10.9562  -17.8161   22.5156 S.2     1  UNL1       -0.0512
      9 C          -8.1386  -16.3126   24.7216 C.ar    1  UNL1        0.0995
     10 C          -8.6220  -16.2353   26.1394 C.ar    1  UNL1        0.0207
     11 C          -7.7234  -15.6899   27.2094 C.ar    1  UNL1        0.0032
     12 C          -6.3414  -15.2219   26.8616 C.ar    1  UNL1        0.0207
     13 C          -5.8580  -15.2993   25.4438 C.ar    1  UNL1        0.0989
     14 N          -6.7566  -15.8446   24.3738 N.ar    1  UNL1       -0.2423
     15 C          -8.3385  -19.7355   19.2461 C.3     1  UNL1        0.0213
     16 C          -7.2747  -19.5968   20.2945 C.3     1  UNL1        0.0032
     17 C          -6.1484  -20.5855   20.3555 C.3     1  UNL1        0.0189
     18 C          -4.7834  -20.1985   19.8686 C.3     1  UNL1        0.0925
     19 N          -3.6293  -20.1576   20.8259 N.3     1  UNL1       -0.1692
     20 H          -4.0263  -20.1478   21.7654 H       1  UNL1        0.1499
     21 S          -2.6411  -19.0311   20.7615 S.O2    1  UNL1        0.0990
     22 O          -1.6313  -19.8758   21.4805 O.2     1  UNL1       -0.1411
     23 O          -3.6508  -18.1864   20.0425 O.2     1  UNL1       -0.1411
     24 C          -1.9315  -16.6201   21.4201 C.3     1  UNL1        0.1161
     25 N          -1.6528  -17.9045   20.6972 N.3     1  UNL1       -0.1426
     26 C          -0.3858  -18.0623   19.9098 C.3     1  UNL1        0.1161
@<TRIPOS>BOND
     1    24    25    1
     2    25    26    1
     3    25    21    1
     4    21    22    2
     5    21    23    2
     6    21    19    1
     7    19    18    1
     8    18    17    1
     9    17    16    1
    10    16    15    1
    11    15     1    1
    12     1     2    1
    13     2     4    1
    14     4     5   ar
    15     5     6   ar
    16     6     9    1
    17     9    10   ar
    18    10    11   ar
    19    11    12   ar
    20    12    13   ar
    21    13    14   ar
    22     6     7   ar
    23     7     8   ar
    24     8     4   ar
    25    14     9   ar
    26    19    20    1
    27     2     3    1
@<TRIPOS>MOLECULE
*****
 26 27 0 0 0
SMALL
GASTEIGER

@<TRIPOS>ATOM
      1 C          -9.5643  -16.2037   24.3592 C.3     1  UNL1        0.0886
      2 N          -8.5031  -15.1503   24.4789 N.pl3   1  UNL1       -0.3130
      3 H          -8.7574  -14.2032   24.5667 H       1  UNL1        0.1487
      4 C          -7.0547  -15.5398   24.4651 C.ar    1  UNL1        0.1599
      5 N          -6.3155  -16.1454   23.3088 N.ar    1  UNL1       -0.2227
      6 C          -4.8951  -16.3720   23.7342 C.ar    1  UNL1        0.1073
      7 C          -4.7563  -15.9065   25.1534 C.ar    1  UNL1        0.0588
      8 S          -6.0910  -15.3922   25.6051 S.2     1  UNL1       -0.0512
      9 C          -3.8048  -16.9608   22.8888 C.ar    1  UNL1        0.0995
     10 C          -3.6300  -18.4489   22.8198 C.ar    1  UNL1        0.0207
     11 C          -2.5398  -19.0376   21.9744 C.ar    1  UNL1        0.0032
     12 C          -1.6243  -18.1381   21.1980 C.ar    1  UNL1        0.0207
     13 C          -1.7990  -16.6500   21.2670 C.ar    1  UNL1        0.0989
     14 N          -2.8893  -16.0613   22.1124 N.ar    1  UNL1       -0.2423
     15 C          -9.3656  -17.5448   25.0010 C.3     1  UNL1        0.0213
     16 C         -10.2353  -18.7014   24.6063 C.3     1  UNL1        0.0032
     17 C          -9.7102  -19.7497   23.6706 C.3     1  UNL1        0.0189
     18 C          -8.9984  -19.3447   22.4139 C.3     1  UNL1        0.0925
     19 N          -9.7777  -19.1022   21.1554 N.3     1  UNL1       -0.1692
     20 H          -9.1024  -19.0759   20.3914 H       1  UNL1        0.1499
     21 S         -10.6276  -17.8733   21.0246 S.O2    1  UNL1        0.0990
     22 O          -9.3938  -17.0202   21.0219 O.2     1  UNL1       -0.1411
     23 O         -11.8614  -18.7263   21.0273 O.2     1  UNL1       -0.1411
     24 C         -12.3030  -16.1760   22.0554 C.3     1  UNL1        0.1161
     25 N         -11.4776  -16.6443   20.8938 N.3     1  UNL1       -0.1426
     26 C         -11.5022  -15.8835   19.6012 C.3     1  UNL1        0.1161
@<TRIPOS>BOND
     1    24    25    1
     2    25    26    1
     3    25    21    1
     4    21    22    2
     5    21    23    2
     6    21    19    1
     7    19    18    1
     8    18    17    1
     9    17    16    1
    10    16    15    1
    11    15     1    1
    12     1     2    1
    13     2     4    1
    14     4     5   ar
    15     5     6   ar
    16     6     9    1
    17     9    10   ar
    18    10    11   ar
    19    11    12   ar
    20    12    13   ar
    21    13    14   ar
    22     6     7   ar
    23     7     8   ar
    24     8     4   ar
    25    14     9   ar
    26    19    20    1
    27     2     3    1
@<TRIPOS>MOLECULE
*****
 26 27 0 0 0
SMALL
GASTEIGER

@<TRIPOS>ATOM
      1 C          -9.6461  -16.0636   24.3871 C.3     1  UNL1        0.0886
      2 N          -8.5607  -15.0296   24.3328 N.pl3   1  UNL1       -0.3130
      3 H          -8.7930  -14.0747   24.2740 H       1  UNL1        0.1487
      4 C          -7.1215  -15.4506   24.3681 C.ar    1  UNL1        0.1599
      5 N          -6.3354  -16.0015   23.2155 N.ar    1  UNL1       -0.2227
      6 C          -4.9436  -16.2860   23.6973 C.ar    1  UNL1        0.1073
      7 C          -4.8696  -15.9109   25.1478 C.ar    1  UNL1        0.0588
      8 S          -6.2155  -15.3947   25.5624 S.2     1  UNL1       -0.0512
      9 C          -3.8228  -16.8470   22.8733 C.ar    1  UNL1        0.0995
     10 C          -3.5989  -18.3293   22.8218 C.ar    1  UNL1        0.0207
     11 C          -2.4780  -18.8902   21.9978 C.ar    1  UNL1        0.0032
     12 C          -1.5811  -17.9689   21.2253 C.ar    1  UNL1        0.0207
     13 C          -1.8050  -16.4867   21.2768 C.ar    1  UNL1        0.0989
     14 N          -2.9259  -15.9257   22.1008 N.ar    1  UNL1       -0.2423
     15 C          -9.3077  -17.4904   24.7028 C.3     1  UNL1        0.0213
     16 C         -10.3720  -18.5454   24.6388 C.3     1  UNL1        0.0032
     17 C         -11.6788  -18.2525   23.9632 C.3     1  UNL1        0.0189
     18 C         -11.8671  -18.5932   22.5146 C.3     1  UNL1        0.0925
     19 N         -11.1109  -17.8379   21.4621 N.3     1  UNL1       -0.1692
     20 H         -11.7510  -17.7027   20.6796 H       1  UNL1        0.1499
     21 S          -9.8457  -18.4081   20.8931 S.O2    1  UNL1        0.0990
     22 O         -10.5315  -19.7266   20.6896 O.2     1  UNL1       -0.1411
     23 O          -9.1600  -17.0896   21.0966 O.2     1  UNL1       -0.1411
     24 C          -8.6177  -19.7526   19.0399 C.3     1  UNL1        0.1161
     25 N          -8.5804  -18.9784   20.3240 N.3     1  UNL1       -0.1426
     26 C          -7.2777  -18.7744   21.0392 C.3     1  UNL1        0.1161
@<TRIPOS>BOND
     1    24    25    1
     2    25    26    1
     3    25    21    1
     4    21    22    2
     5    21    23    2
     6    21    19    1
     7    19    18    1
     8    18    17    1
     9    17    16    1
    10    16    15    1
    11    15     1    1
    12     1     2    1
    13     2     4    1
    14     4     5   ar
    15     5     6   ar
    16     6     9    1
    17     9    10   ar
    18    10    11   ar
    19    11    12   ar
    20    12    13   ar
    21    13    14   ar
    22     6     7   ar
    23     7     8   ar
    24     8     4   ar
    25    14     9   ar
    26    19    20    1
    27     2     3    1
@<TRIPOS>MOLECULE
*****
 26 27 0 0 0
SMALL
GASTEIGER

@<TRIPOS>ATOM
      1 C          -8.7002  -15.2045   25.2432 C.3     1  UNL1        0.0886
      2 N          -7.5145  -14.7105   24.4684 N.pl3   1  UNL1       -0.3130
      3 H          -7.4356  -13.7549   24.2454 H       1  UNL1        0.1487
      4 C          -6.4491  -15.6726   24.0333 C.ar    1  UNL1        0.1599
      5 N          -6.5683  -16.6792   22.9276 N.ar    1  UNL1       -0.2227
      6 C          -5.2703  -17.4257   22.8384 C.ar    1  UNL1        0.1073
      7 C          -4.3489  -16.8805   23.8891 C.ar    1  UNL1        0.0588
      8 S          -5.0774  -15.7971   24.6275 S.2     1  UNL1       -0.0512
      9 C          -4.9499  -18.5245   21.8688 C.ar    1  UNL1        0.0995
     10 C          -5.9178  -19.6526   21.6671 C.ar    1  UNL1        0.0207
     11 C          -5.5974  -20.7513   20.6976 C.ar    1  UNL1        0.0032
     12 C          -4.3092  -20.7220   19.9297 C.ar    1  UNL1        0.0207
     13 C          -3.3413  -19.5940   20.1314 C.ar    1  UNL1        0.0989
     14 N          -3.6617  -18.4952   21.1010 N.ar    1  UNL1       -0.2423
     15 C          -8.5462  -16.3479   26.2018 C.3     1  UNL1        0.0213
     16 C          -9.1855  -17.6709   25.9001 C.3     1  UNL1        0.0032
     17 C          -9.8783  -17.8871   24.5874 C.3     1  UNL1        0.0189
     18 C          -9.1920  -18.6509   23.4939 C.3     1  UNL1        0.0925
     19 N          -9.1924  -18.1174   22.0921 N.3     1  UNL1       -0.1692
     20 H          -8.3563  -17.5411   21.9961 H       1  UNL1        0.1499
     21 S         -10.3457  -17.2916   21.6042 S.O2    1  UNL1        0.0990
     22 O         -11.2337  -18.4993   21.6594 O.2     1  UNL1       -0.1411
     23 O          -9.4576  -16.0840   21.5491 O.2     1  UNL1       -0.1411
     24 C         -12.6079  -16.0968   22.0566 C.3     1  UNL1        0.1161
     25 N         -11.4990  -16.4658   21.1164 N.3     1  UNL1       -0.1426
     26 C         -11.5433  -16.0091   19.6883 C.3     1  UNL1        0.1161
@<TRIPOS>BOND
     1    24    25    1
     2    25    26    1
     3    25    21    1
     4    21    22    2
     5    21    23    2
     6    21    19    1
     7    19    18    1
     8    18    17    1
     9    17    16    1
    10    16    15    1
    11    15     1    1
    12     1     2    1
    13     2     4    1
    14     4     5   ar
    15     5     6   ar
    16     6     9    1
    17     9    10   ar
    18    10    11   ar
    19    11    12   ar
    20    12    13   ar
    21    13    14   ar
    22     6     7   ar
    23     7     8   ar
    24     8     4   ar
    25    14     9   ar
    26    19    20    1
    27     2     3    1
@<TRIPOS>MOLECULE
*****
 26 27 0 0 0
SMALL
GASTEIGER

@<TRIPOS>ATOM
      1 C          -7.4256  -15.5912   26.7528 C.3     1  UNL1        0.0886
      2 N          -8.5370  -15.4995   25.7495 N.pl3   1  UNL1       -0.3130
      3 H          -9.0381  -14.6585   25.6455 H       1  UNL1        0.1487
      4 C          -8.8847  -16.6891   24.9046 C.ar    1  UNL1        0.1599
      5 N          -8.5685  -16.8589   23.4482 N.ar    1  UNL1       -0.2227
      6 C          -9.0981  -18.1926   23.0113 C.ar    1  UNL1        0.1073
      7 C          -9.7416  -18.8471   24.1977 C.ar    1  UNL1        0.0588
      8 S          -9.6097  -17.9179   25.3678 S.2     1  UNL1       -0.0512
      9 C          -9.0012  -18.7703   21.6303 C.ar    1  UNL1        0.0995
     10 C          -7.6596  -19.1096   21.0518 C.ar    1  UNL1        0.0207
     11 C          -7.5627  -19.6873   19.6709 C.ar    1  UNL1        0.0032
     12 C          -8.8075  -19.9257   18.8686 C.ar    1  UNL1        0.0207
     13 C         -10.1492  -19.5864   19.4472 C.ar    1  UNL1        0.0989
     14 N         -10.2460  -19.0087   20.8281 N.ar    1  UNL1       -0.2423
     15 C          -6.0584  -15.0809   26.4063 C.3     1  UNL1        0.0213
     16 C          -5.1023  -15.9530   25.6477 C.3     1  UNL1        0.0032
     17 C          -5.1442  -15.9849   24.1486 C.3     1  UNL1        0.0189
     18 C          -4.3620  -17.0219   23.3984 C.3     1  UNL1        0.0925
     19 N          -3.1492  -16.6226   22.6113 N.3     1  UNL1       -0.1692
     20 H          -3.2862  -15.6512   22.3319 H       1  UNL1        0.1499
     21 S          -2.7760  -17.3810   21.3722 S.O2    1  UNL1        0.0990
     22 O          -1.5707  -16.5051   21.1991 O.2     1  UNL1       -0.1411
     23 O          -3.9814  -18.2569   21.5454 O.2     1  UNL1       -0.1411
     24 C          -3.3475  -19.1555   19.5626 C.3     1  UNL1        0.1161
     25 N          -2.4029  -18.1395   20.1331 N.3     1  UNL1       -0.1426
     26 C          -1.0851  -17.8821   19.4644 C.3     1  UNL1        0.1161
@<TRIPOS>BOND
     1    24    25    1
     2    25    26    1
     3    25    21    1
     4    21    22    2
     5    21    23    2
     6    21    19    1
     7    19    18    1
     8    18    17    1
     9    17    16    1
    10    16    15    1
    11    15     1    1
    12     1     2    1
    13     2     4    1
    14     4     5   ar
    15     5     6   ar
    16     6     9    1
    17     9    10   ar
    18    10    11   ar
    19    11    12   ar
    20    12    13   ar
    21    13    14   ar
    22     6     7   ar
    23     7     8   ar
    24     8     4   ar
    25    14     9   ar
    26    19    20    1
    27     2     3    1
@<TRIPOS>MOLECULE
*****
 26 27 0 0 0
SMALL
GASTEIGER

@<TRIPOS>ATOM
      1 C          -6.2062  -14.7374   24.6523 C.3     1  UNL1        0.0886
      2 N          -7.5799  -14.5674   24.0743 N.pl3   1  UNL1       -0.3130
      3 H          -8.0090  -13.6814   24.0775 H       1  UNL1        0.1487
      4 C          -8.2997  -15.7473   23.4915 C.ar    1  UNL1        0.1599
      5 N          -7.9589  -16.4411   22.2060 N.ar    1  UNL1       -0.2227
      6 C          -8.9352  -17.5632   22.0118 C.ar    1  UNL1        0.1073
      7 C          -9.8795  -17.5629   23.1773 C.ar    1  UNL1        0.0588
      8 S          -9.4867  -16.4406   24.0918 S.2     1  UNL1       -0.0512
      9 C          -8.9625  -18.5179   20.8552 C.ar    1  UNL1        0.0995
     10 C         -10.2699  -18.8921   20.2222 C.ar    1  UNL1        0.0207
     11 C         -10.2972  -19.8468   19.0656 C.ar    1  UNL1        0.0032
     12 C          -9.0170  -20.4274   18.5420 C.ar    1  UNL1        0.0207
     13 C          -7.7096  -20.0532   19.1750 C.ar    1  UNL1        0.0989
     14 N          -7.6824  -19.0985   20.3315 N.ar    1  UNL1       -0.2423
     15 C          -5.5704  -16.0955   24.6880 C.3     1  UNL1        0.0213
     16 C          -4.6153  -16.5052   23.6063 C.3     1  UNL1        0.0032
     17 C          -3.6208  -17.5994   23.8587 C.3     1  UNL1        0.0189
     18 C          -2.1969  -17.4354   23.4163 C.3     1  UNL1        0.0925
     19 N          -1.5694  -18.4568   22.5146 N.3     1  UNL1       -0.1692
     20 H          -0.5735  -18.2405   22.4730 H       1  UNL1        0.1499
     21 S          -2.0416  -18.5976   21.0979 S.O2    1  UNL1        0.0990
     22 O          -1.9645  -20.0906   21.2207 O.2     1  UNL1       -0.1411
     23 O          -2.1186  -17.1046   20.9752 O.2     1  UNL1       -0.1411
     24 C          -1.8689  -17.9333   18.5921 C.3     1  UNL1        0.1161
     25 N          -2.5137  -18.7385   19.6812 N.3     1  UNL1       -0.1426
     26 C          -3.6307  -19.6844   19.3534 C.3     1  UNL1        0.1161
@<TRIPOS>BOND
     1    24    25    1
     2    25    26    1
     3    25    21    1
     4    21    22    2
     5    21    23    2
     6    21    19    1
     7    19    18    1
     8    18    17    1
     9    17    16    1
    10    16    15    1
    11    15     1    1
    12     1     2    1
    13     2     4    1
    14     4     5   ar
    15     5     6   ar
    16     6     9    1
    17     9    10   ar
    18    10    11   ar
    19    11    12   ar
    20    12    13   ar
    21    13    14   ar
    22     6     7   ar
    23     7     8   ar
    24     8     4   ar
    25    14     9   ar
    26    19    20    1
    27     2     3    1
@<TRIPOS>MOLECULE
*****
 26 27 0 0 0
SMALL
GASTEIGER

@<TRIPOS>ATOM
      1 C          -8.4471  -15.2882   26.1012 C.3     1  UNL1        0.0886
      2 N          -7.5408  -14.9660   24.9502 N.pl3   1  UNL1       -0.3130
      3 H          -7.1036  -14.0853   24.8994 H       1  UNL1        0.1487
      4 C          -7.3004  -15.9856   23.8766 C.ar    1  UNL1        0.1599
      5 N          -5.9922  -16.6531   23.5716 N.ar    1  UNL1       -0.2227
      6 C          -6.2093  -17.5968   22.4260 C.ar    1  UNL1        0.1073
      7 C          -7.6517  -17.5125   22.0230 C.ar    1  UNL1        0.0588
      8 S          -8.3261  -16.5167   22.9195 S.2     1  UNL1       -0.0512
      9 C          -5.1670  -18.4712   21.7943 C.ar    1  UNL1        0.0995
     10 C          -3.9196  -18.8180   22.5516 C.ar    1  UNL1        0.0207
     11 C          -2.8773  -19.6924   21.9199 C.ar    1  UNL1        0.0032
     12 C          -3.0825  -20.2200   20.5309 C.ar    1  UNL1        0.0207
     13 C          -4.3299  -19.8732   19.7735 C.ar    1  UNL1        0.0989
     14 N          -5.3722  -18.9988   20.4052 N.ar    1  UNL1       -0.2423
     15 C          -8.2998  -16.5908   26.8300 C.3     1  UNL1        0.0213
     16 C          -9.3737  -17.6331   26.7279 C.3     1  UNL1        0.0032
     17 C          -9.5528  -18.4030   25.4531 C.3     1  UNL1        0.0189
     18 C         -10.9089  -18.4994   24.8193 C.3     1  UNL1        0.0925
     19 N         -11.0941  -19.2954   23.5615 N.3     1  UNL1       -0.1692
     20 H         -10.2590  -19.8706   23.4514 H       1  UNL1        0.1499
     21 S         -11.3112  -18.5926   22.2543 S.O2    1  UNL1        0.0990
     22 O         -11.8681  -17.4065   22.9845 O.2     1  UNL1       -0.1411
     23 O         -10.7543  -19.7786   21.5242 O.2     1  UNL1       -0.1411
     24 C         -10.8273  -18.3709   19.7114 C.3     1  UNL1        0.1161
     25 N         -11.5283  -17.8897   20.9471 N.3     1  UNL1       -0.1426
     26 C         -12.4464  -16.7057   20.8756 C.3     1  UNL1        0.1161
@<TRIPOS>BOND
     1    24    25    1
     2    25    26    1
     3    25    21    1
     4    21    22    2
     5    21    23    2
     6    21    19    1
     7    19    18    1
     8    18    17    1
     9    17    16    1
    10    16    15    1
    11    15     1    1
    12     1     2    1
    13     2     4    1
    14     4     5   ar
    15     5     6   ar
    16     6     9    1
    17     9    10   ar
    18    10    11   ar
    19    11    12   ar
    20    12    13   ar
    21    13    14   ar
    22     6     7   ar
    23     7     8   ar
    24     8     4   ar
    25    14     9   ar
    26    19    20    1
    27     2     3    1
