@<TRIPOS>MOLECULE
*****
 22 24 0 0 0
SMALL
GASTEIGER

@<TRIPOS>ATOM
      1 C          -7.6720  -16.7158   23.3670 C.ar    1  UNL1        0.2035
      2 N          -6.5230  -17.4013   22.6889 N.ar    1  UNL1       -0.2147
      3 C          -5.1235  -17.1863   23.1841 C.ar    1  UNL1        0.0911
      4 C          -4.8730  -16.2859   24.3574 C.ar    1  UNL1        0.0801
      5 C          -6.0221  -15.6004   25.0355 C.ar    1  UNL1        0.2645
      6 O          -5.7717  -14.7000   26.2087 O.2     1  UNL1       -0.2668
      7 N          -7.4216  -15.8153   24.5402 N.ar    1  UNL1       -0.2667
      8 C          -8.5707  -15.1298   25.2183 C.3     1  UNL1        0.1363
      9 C          -9.4394  -18.7421   24.6975 C.3     1  UNL1        0.0242
     10 C          -9.9552  -17.9439   23.5370 C.3     1  UNL1        0.1052
     11 C         -11.3547  -18.1588   23.0418 C.3     1  UNL1        0.1619
     12 O         -11.8704  -17.3605   21.8813 O.3     1  UNL1       -0.3502
     13 C         -10.9868  -16.3474   21.2160 C.3     1  UNL1        0.1637
     14 C          -9.5873  -16.1325   21.7112 C.3     1  UNL1        0.1256
     15 N          -9.0716  -16.9307   22.8718 N.pl3   1  UNL1       -0.2760
     16 C          -3.9744  -17.8718   22.5061 C.ar    1  UNL1        0.0485
     17 C          -3.9968  -19.3591   22.3126 C.ar    1  UNL1        0.0244
     18 C          -2.8477  -20.0446   21.6346 C.ar    1  UNL1        0.0991
     19 N          -1.6763  -19.2428   21.1500 N.ar    1  UNL1       -0.2400
     20 C          -1.6539  -17.7555   21.3434 C.ar    1  UNL1        0.1285
     21 C          -2.8030  -17.0700   22.0214 C.ar    1  UNL1        0.1606
     22 F          -2.7806  -15.5827   22.2149 F       1  UNL1       -0.2025
@<TRIPOS>BOND
     1    10     9    1
     2    10    11    1
     3    11    12    1
     4    12    13    1
     5    13    14    1
     6    14    15    1
     7    15     1    1
     8     1     2   ar
     9     2     3   ar
    10     3    16    1
    11    16    17   ar
    12    17    18   ar
    13    18    19   ar
    14    19    20   ar
    15    20    21   ar
    16    21    22    1
    17     3     4   ar
    18     4     5   ar
    19     5     6    2
    20     5     7   ar
    21     7     8    1
    22    15    10    1
    23     7     1   ar
    24    21    16   ar
@<TRIPOS>MOLECULE
*****
 22 24 0 0 0
SMALL
GASTEIGER

@<TRIPOS>ATOM
      1 C          -7.7069  -16.7317   23.3452 C.ar    1  UNL1        0.2035
      2 N          -6.5588  -17.4165   22.6648 N.ar    1  UNL1       -0.2147
      3 C          -5.1589  -17.2046   23.1602 C.ar    1  UNL1        0.0911
      4 C          -4.9071  -16.3079   24.3361 C.ar    1  UNL1        0.0801
      5 C          -6.0552  -15.6230   25.0164 C.ar    1  UNL1        0.2645
      6 O          -5.8035  -14.7263   26.1922 O.2     1  UNL1       -0.2668
      7 N          -7.4551  -15.8350   24.5210 N.ar    1  UNL1       -0.2667
      8 C          -8.6032  -15.1502   25.2013 C.3     1  UNL1        0.1363
      9 C          -9.4473  -18.8198   24.6144 C.3     1  UNL1        0.0242
     10 C          -9.9770  -17.9877   23.4844 C.3     1  UNL1        0.1052
     11 C         -11.3768  -18.1996   22.9889 C.3     1  UNL1        0.1619
     12 O         -11.9065  -17.3674   21.8588 O.3     1  UNL1       -0.3502
     13 C         -11.0363  -16.3234   21.2242 C.3     1  UNL1        0.1637
     14 C          -9.6365  -16.1115   21.7197 C.3     1  UNL1        0.1256
     15 N          -9.1068  -16.9436   22.8498 N.pl3   1  UNL1       -0.2760
     16 C          -4.0109  -17.8894   22.4799 C.ar    1  UNL1        0.0485
     17 C          -2.7511  -17.1296   22.1873 C.ar    1  UNL1        0.0244
     18 C          -1.6030  -17.8144   21.5069 C.ar    1  UNL1        0.0991
     19 N          -1.7147  -19.2591   21.1191 N.ar    1  UNL1       -0.2400
     20 C          -2.9744  -20.0190   21.4118 C.ar    1  UNL1        0.1285
     21 C          -4.1225  -19.3342   22.0921 C.ar    1  UNL1        0.1606
     22 F          -5.3822  -20.0941   22.3847 F       1  UNL1       -0.2025
@<TRIPOS>BOND
     1    10     9    1
     2    10    11    1
     3    11    12    1
     4    12    13    1
     5    13    14    1
     6    14    15    1
     7    15     1    1
     8     1     2   ar
     9     2     3   ar
    10     3    16    1
    11    16    17   ar
    12    17    18   ar
    13    18    19   ar
    14    19    20   ar
    15    20    21   ar
    16    21    22    1
    17     3     4   ar
    18     4     5   ar
    19     5     6    2
    20     5     7   ar
    21     7     8    1
    22    15    10    1
    23     7     1   ar
    24    21    16   ar
@<TRIPOS>MOLECULE
*****
 22 24 0 0 0
SMALL
GASTEIGER

@<TRIPOS>ATOM
      1 C          -8.3286  -17.2971   23.4603 C.ar    1  UNL1        0.2035
      2 N          -7.3870  -18.1857   22.7029 N.ar    1  UNL1       -0.2147
      3 C          -5.9130  -17.9084   22.7246 C.ar    1  UNL1        0.0911
      4 C          -5.3806  -16.7424   23.5038 C.ar    1  UNL1        0.0801
      5 C          -6.3222  -15.8538   24.2613 C.ar    1  UNL1        0.2645
      6 O          -5.7899  -14.6879   25.0405 O.2     1  UNL1       -0.2668
      7 N          -7.7963  -16.1312   24.2395 N.ar    1  UNL1       -0.2667
      8 C          -8.7379  -15.2426   24.9970 C.3     1  UNL1        0.1363
      9 C         -10.0682  -16.0022   21.3874 C.3     1  UNL1        0.0242
     10 C         -10.6724  -16.9270   22.4021 C.3     1  UNL1        0.1052
     11 C         -12.1463  -17.2044   22.3804 C.3     1  UNL1        0.1619
     12 O         -12.7505  -18.1293   23.3951 O.3     1  UNL1       -0.3502
     13 C         -11.8807  -18.7768   24.4315 C.3     1  UNL1        0.1637
     14 C         -10.4068  -18.4994   24.4532 C.3     1  UNL1        0.1256
     15 N          -9.8026  -17.5745   23.4385 N.pl3   1  UNL1       -0.2760
     16 C          -4.9714  -18.7970   21.9671 C.ar    1  UNL1        0.0485
     17 C          -5.4835  -19.6468   20.8422 C.ar    1  UNL1        0.0244
     18 C          -4.5419  -20.5354   20.0847 C.ar    1  UNL1        0.0991
     19 N          -3.0881  -20.5742   20.4522 N.ar    1  UNL1       -0.2400
     20 C          -2.5760  -19.7244   21.5772 C.ar    1  UNL1        0.1285
     21 C          -3.5176  -18.8358   22.3347 C.ar    1  UNL1        0.1606
     22 F          -3.0055  -17.9860   23.4596 F       1  UNL1       -0.2025
@<TRIPOS>BOND
     1    10     9    1
     2    10    11    1
     3    11    12    1
     4    12    13    1
     5    13    14    1
     6    14    15    1
     7    15     1    1
     8     1     2   ar
     9     2     3   ar
    10     3    16    1
    11    16    17   ar
    12    17    18   ar
    13    18    19   ar
    14    19    20   ar
    15    20    21   ar
    16    21    22    1
    17     3     4   ar
    18     4     5   ar
    19     5     6    2
    20     5     7   ar
    21     7     8    1
    22    15    10    1
    23     7     1   ar
    24    21    16   ar
@<TRIPOS>MOLECULE
*****
 22 24 0 0 0
SMALL
GASTEIGER

@<TRIPOS>ATOM
      1 C          -9.2053  -18.5703   21.2538 C.ar    1  UNL1        0.2035
      2 N          -7.8148  -18.4331   21.7994 N.ar    1  UNL1       -0.2147
      3 C          -6.6577  -19.0436   21.0657 C.ar    1  UNL1        0.0911
      4 C          -6.8910  -19.7913   19.7864 C.ar    1  UNL1        0.0801
      5 C          -8.2815  -19.9285   19.2408 C.ar    1  UNL1        0.2645
      6 O          -8.5149  -20.6761   17.9616 O.2     1  UNL1       -0.2668
      7 N          -9.4387  -19.3179   19.9745 N.ar    1  UNL1       -0.2667
      8 C         -10.8292  -19.4551   19.4289 C.3     1  UNL1        0.1363
      9 C         -10.6680  -20.1593   23.3360 C.3     1  UNL1        0.0242
     10 C         -11.0938  -18.7542   23.0286 C.3     1  UNL1        0.1052
     11 C         -12.2509  -18.1437   23.7622 C.3     1  UNL1        0.1619
     12 O         -12.6767  -16.7386   23.4548 O.3     1  UNL1       -0.3502
     13 C         -11.9454  -15.9441   22.4137 C.3     1  UNL1        0.1637
     14 C         -10.7883  -16.5547   21.6800 C.3     1  UNL1        0.1256
     15 N         -10.3625  -17.9597   21.9875 N.pl3   1  UNL1       -0.2760
     16 C          -5.2672  -18.9064   21.6113 C.ar    1  UNL1        0.0485
     17 C          -5.0012  -17.9834   22.7634 C.ar    1  UNL1        0.0244
     18 C          -3.6107  -17.8462   23.3090 C.ar    1  UNL1        0.0991
     19 N          -2.4861  -18.6320   22.7025 N.ar    1  UNL1       -0.2400
     20 C          -2.7521  -19.5551   21.5504 C.ar    1  UNL1        0.1285
     21 C          -4.1426  -19.6923   21.0048 C.ar    1  UNL1        0.1606
     22 F          -4.4086  -20.6153   19.8527 F       1  UNL1       -0.2025
@<TRIPOS>BOND
     1    10     9    1
     2    10    11    1
     3    11    12    1
     4    12    13    1
     5    13    14    1
     6    14    15    1
     7    15     1    1
     8     1     2   ar
     9     2     3   ar
    10     3    16    1
    11    16    17   ar
    12    17    18   ar
    13    18    19   ar
    14    19    20   ar
    15    20    21   ar
    16    21    22    1
    17     3     4   ar
    18     4     5   ar
    19     5     6    2
    20     5     7   ar
    21     7     8    1
    22    15    10    1
    23     7     1   ar
    24    21    16   ar
@<TRIPOS>MOLECULE
*****
 22 24 0 0 0
SMALL
GASTEIGER

@<TRIPOS>ATOM
      1 C          -7.8647  -18.5738   21.8606 C.ar    1  UNL1        0.2035
      2 N          -6.3685  -18.5309   21.7619 N.ar    1  UNL1       -0.2147
      3 C          -5.6831  -19.0446   20.5305 C.ar    1  UNL1        0.0911
      4 C          -6.4939  -19.6013   19.3979 C.ar    1  UNL1        0.0801
      5 C          -7.9900  -19.6443   19.4967 C.ar    1  UNL1        0.2645
      6 O          -8.8007  -20.2011   18.3641 O.2     1  UNL1       -0.2668
      7 N          -8.6754  -19.1306   20.7281 N.ar    1  UNL1       -0.2667
      8 C         -10.1715  -19.1736   20.8269 C.3     1  UNL1        0.1363
      9 C          -9.1351  -20.4954   23.7826 C.3     1  UNL1        0.0242
     10 C          -9.1852  -19.0208   24.0530 C.3     1  UNL1        0.1052
     11 C          -9.8706  -18.5071   25.2844 C.3     1  UNL1        0.1619
     12 O          -9.9207  -17.0325   25.5548 O.3     1  UNL1       -0.3502
     13 C          -9.2856  -16.0717   24.5939 C.3     1  UNL1        0.1637
     14 C          -8.6002  -16.5855   23.3625 C.3     1  UNL1        0.1256
     15 N          -8.5501  -18.0601   23.0921 N.pl3   1  UNL1       -0.2760
     16 C          -4.1870  -19.0016   20.4317 C.ar    1  UNL1        0.0485
     17 C          -3.5322  -18.4970   19.1801 C.ar    1  UNL1        0.0244
     18 C          -2.0361  -18.4540   19.0813 C.ar    1  UNL1        0.0991
     19 N          -1.1948  -18.9156   20.2341 N.ar    1  UNL1       -0.2400
     20 C          -1.8496  -19.4203   21.4858 C.ar    1  UNL1        0.1285
     21 C          -3.3457  -19.4633   21.5846 C.ar    1  UNL1        0.1606
     22 F          -4.0005  -19.9679   22.8362 F       1  UNL1       -0.2025
@<TRIPOS>BOND
     1    10     9    1
     2    10    11    1
     3    11    12    1
     4    12    13    1
     5    13    14    1
     6    14    15    1
     7    15     1    1
     8     1     2   ar
     9     2     3   ar
    10     3    16    1
    11    16    17   ar
    12    17    18   ar
    13    18    19   ar
    14    19    20   ar
    15    20    21   ar
    16    21    22    1
    17     3     4   ar
    18     4     5   ar
    19     5     6    2
    20     5     7   ar
    21     7     8    1
    22    15    10    1
    23     7     1   ar
    24    21    16   ar
@<TRIPOS>MOLECULE
*****
 22 24 0 0 0
SMALL
GASTEIGER

@<TRIPOS>ATOM
      1 C          -9.4713  -18.5184   21.3946 C.ar    1  UNL1        0.2035
      2 N          -8.1051  -18.3377   21.9870 N.ar    1  UNL1       -0.2147
      3 C          -6.8995  -18.8641   21.2664 C.ar    1  UNL1        0.0911
      4 C          -7.0600  -19.5713   19.9532 C.ar    1  UNL1        0.0801
      5 C          -8.4262  -19.7520   19.3608 C.ar    1  UNL1        0.2645
      6 O          -8.5868  -20.4591   18.0478 O.2     1  UNL1       -0.2668
      7 N          -9.6318  -19.2256   20.0816 N.ar    1  UNL1       -0.2667
      8 C         -10.9980  -19.4063   19.4892 C.3     1  UNL1        0.1363
      9 C         -10.4935  -15.7627   20.7938 C.3     1  UNL1        0.0242
     10 C         -11.1880  -16.6141   21.8150 C.3     1  UNL1        0.1052
     11 C         -12.3935  -16.0878   22.5357 C.3     1  UNL1        0.1619
     12 O         -13.0880  -16.9392   23.5568 O.3     1  UNL1       -0.3502
     13 C         -12.5769  -18.3171   23.8572 C.3     1  UNL1        0.1637
     14 C         -11.3714  -18.8434   23.1365 C.3     1  UNL1        0.1256
     15 N         -10.6769  -17.9920   22.1154 N.pl3   1  UNL1       -0.2760
     16 C          -5.5333  -18.6834   21.8587 C.ar    1  UNL1        0.0485
     17 C          -4.3927  -19.5358   21.3872 C.ar    1  UNL1        0.0244
     18 C          -3.0265  -19.3550   21.9796 C.ar    1  UNL1        0.0991
     19 N          -2.8010  -18.3220   23.0435 N.ar    1  UNL1       -0.2400
     20 C          -3.9417  -17.4696   23.5151 C.ar    1  UNL1        0.1285
     21 C          -5.3079  -17.6504   22.9227 C.ar    1  UNL1        0.1606
     22 F          -6.4485  -16.7980   23.3942 F       1  UNL1       -0.2025
@<TRIPOS>BOND
     1    10     9    1
     2    10    11    1
     3    11    12    1
     4    12    13    1
     5    13    14    1
     6    14    15    1
     7    15     1    1
     8     1     2   ar
     9     2     3   ar
    10     3    16    1
    11    16    17   ar
    12    17    18   ar
    13    18    19   ar
    14    19    20   ar
    15    20    21   ar
    16    21    22    1
    17     3     4   ar
    18     4     5   ar
    19     5     6    2
    20     5     7   ar
    21     7     8    1
    22    15    10    1
    23     7     1   ar
    24    21    16   ar
@<TRIPOS>MOLECULE
*****
 22 24 0 0 0
SMALL
GASTEIGER

@<TRIPOS>ATOM
      1 C         -12.2089   -4.7442   18.0433 C.ar    1  UNL1        0.2035
      2 N         -13.4857   -5.5224   18.1627 N.ar    1  UNL1       -0.2147
      3 C         -13.4451   -6.9823   18.5045 C.ar    1  UNL1        0.0911
      4 C         -12.1276   -7.6642   18.7270 C.ar    1  UNL1        0.0801
      5 C         -10.8508   -6.8860   18.6077 C.ar    1  UNL1        0.2645
      6 O          -9.5334   -7.5677   18.8301 O.2     1  UNL1       -0.2668
      7 N         -10.8915   -5.4260   18.2658 N.ar    1  UNL1       -0.2667
      8 C          -9.6147   -4.6478   18.1465 C.3     1  UNL1        0.1363
      9 C         -13.0445   -2.7413   20.1146 C.3     1  UNL1        0.0242
     10 C         -12.6674   -2.2828   18.7371 C.3     1  UNL1        0.1052
     11 C         -12.7081   -0.8229   18.3953 C.3     1  UNL1        0.1619
     12 O         -12.3310   -0.3644   17.0178 O.3     1  UNL1       -0.3502
     13 C         -11.9132   -1.3658   15.9821 C.3     1  UNL1        0.1637
     14 C         -11.8725   -2.8257   16.3240 C.3     1  UNL1        0.1256
     15 N         -12.2496   -3.2842   17.7015 N.pl3   1  UNL1       -0.2760
     16 C         -14.7219   -7.7605   18.6238 C.ar    1  UNL1        0.0485
     17 C         -14.7989   -9.1613   18.0930 C.ar    1  UNL1        0.0244
     18 C         -16.0757   -9.9395   18.2123 C.ar    1  UNL1        0.0991
     19 N         -17.2755   -9.3169   18.8625 N.ar    1  UNL1       -0.2400
     20 C         -17.1985   -7.9160   19.3934 C.ar    1  UNL1        0.1285
     21 C         -15.9217   -7.1379   19.2740 C.ar    1  UNL1        0.1606
     22 F         -15.8448   -5.7371   19.8049 F       1  UNL1       -0.2025
@<TRIPOS>BOND
     1    10     9    1
     2    10    11    1
     3    11    12    1
     4    12    13    1
     5    13    14    1
     6    14    15    1
     7    15     1    1
     8     1     2   ar
     9     2     3   ar
    10     3    16    1
    11    16    17   ar
    12    17    18   ar
    13    18    19   ar
    14    19    20   ar
    15    20    21   ar
    16    21    22    1
    17     3     4   ar
    18     4     5   ar
    19     5     6    2
    20     5     7   ar
    21     7     8    1
    22    15    10    1
    23     7     1   ar
    24    21    16   ar
@<TRIPOS>MOLECULE
*****
 22 24 0 0 0
SMALL
GASTEIGER

@<TRIPOS>ATOM
      1 C         -13.1050   -4.9471   18.0095 C.ar    1  UNL1        0.2035
      2 N         -13.3713   -3.4827   17.8232 N.ar    1  UNL1       -0.2147
      3 C         -12.3173   -2.4773   18.1811 C.ar    1  UNL1        0.0911
      4 C         -10.9970   -2.9362   18.7255 C.ar    1  UNL1        0.0801
      5 C         -10.7307   -4.4006   18.9118 C.ar    1  UNL1        0.2645
      6 O          -9.4105   -4.8595   19.4561 O.2     1  UNL1       -0.2668
      7 N         -11.7848   -5.4060   18.5538 N.ar    1  UNL1       -0.2667
      8 C         -11.5185   -6.8704   18.7401 C.3     1  UNL1        0.1363
      9 C         -15.3523   -5.5080   19.9161 C.3     1  UNL1        0.0242
     10 C         -15.2827   -6.2330   18.6048 C.3     1  UNL1        0.1052
     11 C         -16.3367   -7.2384   18.2468 C.3     1  UNL1        0.1619
     12 O         -16.2670   -7.9634   16.9355 O.3     1  UNL1       -0.3502
     13 C         -15.1434   -7.6829   15.9822 C.3     1  UNL1        0.1637
     14 C         -14.0895   -6.6775   16.3402 C.3     1  UNL1        0.1256
     15 N         -14.1591   -5.9525   17.6515 N.pl3   1  UNL1       -0.2760
     16 C         -12.5836   -1.0129   17.9948 C.ar    1  UNL1        0.0485
     17 C         -13.8183   -0.3946   18.5806 C.ar    1  UNL1        0.0244
     18 C         -14.0846    1.0697   18.3943 C.ar    1  UNL1        0.0991
     19 N         -13.1161    1.9158   17.6222 N.ar    1  UNL1       -0.2400
     20 C         -11.8813    1.2976   17.0363 C.ar    1  UNL1        0.1285
     21 C         -11.6151   -0.1668   17.2227 C.ar    1  UNL1        0.1606
     22 F         -10.3803   -0.7851   16.6369 F       1  UNL1       -0.2025
@<TRIPOS>BOND
     1    10     9    1
     2    10    11    1
     3    11    12    1
     4    12    13    1
     5    13    14    1
     6    14    15    1
     7    15     1    1
     8     1     2   ar
     9     2     3   ar
    10     3    16    1
    11    16    17   ar
    12    17    18   ar
    13    18    19   ar
    14    19    20   ar
    15    20    21   ar
    16    21    22    1
    17     3     4   ar
    18     4     5   ar
    19     5     6    2
    20     5     7   ar
    21     7     8    1
    22    15    10    1
    23     7     1   ar
    24    21    16   ar
@<TRIPOS>MOLECULE
*****
 22 24 0 0 0
SMALL
GASTEIGER

@<TRIPOS>ATOM
      1 C          -7.4700  -18.5106   21.9018 C.ar    1  UNL1        0.2035
      2 N          -8.7468  -18.3185   22.6652 N.ar    1  UNL1       -0.2147
      3 C         -10.0557  -18.7161   22.0498 C.ar    1  UNL1        0.0911
      4 C         -10.0878  -19.3057   20.6708 C.ar    1  UNL1        0.0801
      5 C          -8.8109  -19.4978   19.9074 C.ar    1  UNL1        0.2645
      6 O          -8.8430  -20.0874   18.5286 O.2     1  UNL1       -0.2668
      7 N          -7.5020  -19.1002   20.5229 N.ar    1  UNL1       -0.2667
      8 C          -6.2252  -19.2923   19.7595 C.3     1  UNL1        0.1363
      9 C          -7.2215  -15.8864   23.3342 C.3     1  UNL1        0.0242
     10 C          -6.0369  -16.8010   23.2335 C.3     1  UNL1        0.1052
     11 C          -4.7280  -16.4035   23.8489 C.3     1  UNL1        0.1619
     12 O          -3.5434  -17.3181   23.7482 O.3     1  UNL1       -0.3502
     13 C          -3.6676  -18.6301   23.0321 C.3     1  UNL1        0.1637
     14 C          -4.9764  -19.0276   22.4166 C.3     1  UNL1        0.1256
     15 N          -6.1611  -18.1131   22.5173 N.pl3   1  UNL1       -0.2760
     16 C         -11.3325  -18.5240   22.8132 C.ar    1  UNL1        0.0485
     17 C         -11.4441  -19.0189   24.2248 C.ar    1  UNL1        0.0244
     18 C         -12.7209  -18.8268   24.9882 C.ar    1  UNL1        0.0991
     19 N         -13.8862  -18.1399   24.3400 N.ar    1  UNL1       -0.2400
     20 C         -13.7747  -17.6449   22.9284 C.ar    1  UNL1        0.1285
     21 C         -12.4978  -17.8370   22.1650 C.ar    1  UNL1        0.1606
     22 F         -12.3863  -17.3421   20.7534 F       1  UNL1       -0.2025
@<TRIPOS>BOND
     1    10     9    1
     2    10    11    1
     3    11    12    1
     4    12    13    1
     5    13    14    1
     6    14    15    1
     7    15     1    1
     8     1     2   ar
     9     2     3   ar
    10     3    16    1
    11    16    17   ar
    12    17    18   ar
    13    18    19   ar
    14    19    20   ar
    15    20    21   ar
    16    21    22    1
    17     3     4   ar
    18     4     5   ar
    19     5     6    2
    20     5     7   ar
    21     7     8    1
    22    15    10    1
    23     7     1   ar
    24    21    16   ar
