@<TRIPOS>MOLECULE
*****
 28 31 0 0 0
SMALL
GASTEIGER

@<TRIPOS>ATOM
      1 C          -8.4825  -17.1517   23.9736 C.2     1  UNL1       -0.0246
      2 C          -7.3245  -17.2291   23.0234 C.2     1  UNL1       -0.0421
      3 C          -6.1691  -16.4980   23.6403 C.3     1  UNL1        0.0480
      4 C          -6.6130  -15.9689   24.9718 C.ar    1  UNL1       -0.0184
      5 C          -5.9000  -15.1714   26.0232 C.ar    1  UNL1       -0.0040
      6 C          -6.6168  -14.7779   27.2807 C.ar    1  UNL1       -0.0003
      7 C          -8.0466  -15.1819   27.4868 C.ar    1  UNL1       -0.0000
      8 C          -8.7596  -15.9794   26.4353 C.ar    1  UNL1       -0.0006
      9 C          -8.0428  -16.3729   25.1778 C.ar    1  UNL1       -0.0079
     10 C         -10.3587  -18.7965   24.6981 C.3     1  UNL1        0.0111
     11 C          -9.8416  -17.7485   23.7577 C.3     1  UNL1        0.0634
     12 C         -10.6838  -17.2972   22.6014 C.ar    1  UNL1        0.0818
     13 C         -11.9919  -17.9741   22.3170 C.ar    1  UNL1        0.1139
     14 N         -12.8340  -17.5228   21.1606 N.ar    1  UNL1       -0.2394
     15 C         -12.3681  -16.3947   20.2887 C.ar    1  UNL1        0.1195
     16 C         -11.0601  -15.7178   20.5730 C.ar    1  UNL1        0.1191
     17 N         -10.2179  -16.1691   21.7294 N.ar    1  UNL1       -0.2446
     18 C          -7.3223  -17.9167   21.6903 C.3     1  UNL1        0.0394
     19 C          -7.2543  -19.4134   21.6185 C.3     1  UNL1        0.0765
     20 N          -5.9399  -20.0937   21.3745 N.3     1  UNL1       -0.2712
     21 C          -5.8357  -21.1753   20.3404 C.3     1  UNL1        0.0896
     22 C          -4.7297  -19.6924   22.1646 C.3     1  UNL1        0.0723
     23 C          -3.7560  -18.7038   21.5949 C.3     1  UNL1        0.0210
     24 C          -3.1149  -17.6829   22.4875 C.3     1  UNL1        0.0335
     25 C          -2.1411  -16.6943   21.9178 C.3     1  UNL1        0.1422
     26 O          -1.8085  -16.7266   20.4555 O.3     1  UNL1       -0.3538
     27 C          -2.4496  -17.7475   19.5630 C.3     1  UNL1        0.1422
     28 C          -3.4233  -18.7361   20.1327 C.3     1  UNL1        0.0335
@<TRIPOS>BOND
     1    11    10    1
     2    11     1    1
     3     1     2    2
     4     2    18    1
     5    18    19    1
     6    19    20    1
     7    20    21    1
     8    20    22    1
     9    22    23    1
    10    23    24    1
    11    24    25    1
    12    25    26    1
    13    26    27    1
    14    27    28    1
    15     2     3    1
    16     3     4    1
    17     4     5   ar
    18     5     6   ar
    19     6     7   ar
    20     7     8   ar
    21     8     9   ar
    22    11    12    1
    23    12    13   ar
    24    13    14   ar
    25    14    15   ar
    26    15    16   ar
    27    16    17   ar
    28     9     1    1
    29    17    12   ar
    30    28    23    1
    31     9     4   ar
@<TRIPOS>MOLECULE
*****
 28 31 0 0 0
SMALL
GASTEIGER

@<TRIPOS>ATOM
      1 C          -5.8559  -19.4444   20.9475 C.2     1  UNL1       -0.0246
      2 C          -5.7269  -18.8335   22.3114 C.2     1  UNL1       -0.0421
      3 C          -7.0827  -18.3495   22.7325 C.3     1  UNL1        0.0480
      4 C          -8.0497  -18.6613   21.6290 C.ar    1  UNL1       -0.0184
      5 C          -9.5226  -18.4164   21.4861 C.ar    1  UNL1       -0.0040
      6 C         -10.2373  -18.8483   20.2401 C.ar    1  UNL1       -0.0003
      7 C          -9.4790  -19.5250   19.1369 C.ar    1  UNL1       -0.0000
      8 C          -8.0061  -19.7699   19.2797 C.ar    1  UNL1       -0.0006
      9 C          -7.2914  -19.3380   20.5258 C.ar    1  UNL1       -0.0079
     10 C          -4.8905  -21.4429   19.5968 C.3     1  UNL1        0.0111
     11 C          -4.7444  -20.0547   20.1461 C.3     1  UNL1        0.0634
     12 C          -3.4870  -19.2769   19.8939 C.ar    1  UNL1        0.0818
     13 C          -2.2047  -19.6896   20.5537 C.ar    1  UNL1        0.1139
     14 N          -0.9472  -18.9117   20.3014 N.ar    1  UNL1       -0.2394
     15 C          -0.9719  -17.7211   19.3894 C.ar    1  UNL1        0.1195
     16 C          -2.2542  -17.3084   18.7295 C.ar    1  UNL1        0.1191
     17 N          -3.5117  -18.0862   18.9818 N.ar    1  UNL1       -0.2446
     18 C          -4.4638  -18.7255   23.1133 C.3     1  UNL1        0.0394
     19 C          -4.1798  -17.4813   23.9013 C.3     1  UNL1        0.0765
     20 N          -4.0115  -16.1685   23.1955 N.3     1  UNL1       -0.2712
     21 C          -2.9107  -15.9922   22.1919 C.3     1  UNL1        0.0896
     22 C          -4.9441  -15.0319   23.4931 C.3     1  UNL1        0.0723
     23 C          -5.9896  -15.1790   24.5586 C.3     1  UNL1        0.0210
     24 C          -5.5847  -15.2588   26.0007 C.3     1  UNL1        0.0335
     25 C          -6.6302  -15.4058   27.0662 C.3     1  UNL1        0.1422
     26 O          -8.0806  -15.4731   26.6896 O.3     1  UNL1       -0.3538
     27 C          -8.4855  -15.3933   25.2475 C.3     1  UNL1        0.1422
     28 C          -7.4400  -15.2463   24.1820 C.3     1  UNL1        0.0335
@<TRIPOS>BOND
     1    11    10    1
     2    11     1    1
     3     1     2    2
     4     2    18    1
     5    18    19    1
     6    19    20    1
     7    20    21    1
     8    20    22    1
     9    22    23    1
    10    23    24    1
    11    24    25    1
    12    25    26    1
    13    26    27    1
    14    27    28    1
    15     2     3    1
    16     3     4    1
    17     4     5   ar
    18     5     6   ar
    19     6     7   ar
    20     7     8   ar
    21     8     9   ar
    22    11    12    1
    23    12    13   ar
    24    13    14   ar
    25    14    15   ar
    26    15    16   ar
    27    16    17   ar
    28     9     1    1
    29    17    12   ar
    30    28    23    1
    31     9     4   ar
@<TRIPOS>MOLECULE
*****
 28 31 0 0 0
SMALL
GASTEIGER

@<TRIPOS>ATOM
      1 C          -8.7116  -17.0659   22.5096 C.2     1  UNL1       -0.0246
      2 C          -8.1291  -18.3750   22.0657 C.2     1  UNL1       -0.0421
      3 C          -9.2635  -19.2943   21.7221 C.3     1  UNL1        0.0480
      4 C         -10.5470  -18.5533   21.9537 C.ar    1  UNL1       -0.0184
      5 C         -11.9823  -18.9548   21.7842 C.ar    1  UNL1       -0.0040
      6 C         -13.0765  -17.9791   22.1014 C.ar    1  UNL1       -0.0003
      7 C         -12.7354  -16.6018   22.5881 C.ar    1  UNL1       -0.0000
      8 C         -11.3001  -16.2003   22.7575 C.ar    1  UNL1       -0.0006
      9 C         -10.2059  -17.1761   22.4403 C.ar    1  UNL1       -0.0079
     10 C          -7.5794  -14.7955   21.9495 C.3     1  UNL1        0.0111
     11 C          -7.9359  -15.8585   22.9461 C.3     1  UNL1        0.0634
     12 C          -7.5167  -15.7140   24.3789 C.ar    1  UNL1        0.0818
     13 C          -6.0657  -15.5525   24.7233 C.ar    1  UNL1        0.1139
     14 N          -5.6465  -15.4080   26.1563 N.ar    1  UNL1       -0.2394
     15 C          -6.6783  -15.4250   27.2449 C.ar    1  UNL1        0.1195
     16 C          -8.1293  -15.5865   26.9006 C.ar    1  UNL1        0.1191
     17 N          -8.5485  -15.7310   25.4677 N.ar    1  UNL1       -0.2446
     18 C          -6.6687  -18.7065   21.9804 C.3     1  UNL1        0.0394
     19 C          -6.0449  -19.0099   20.6504 C.3     1  UNL1        0.0765
     20 N          -5.2959  -20.2937   20.4487 N.3     1  UNL1       -0.2712
     21 C          -6.0441  -21.5606   20.1564 C.3     1  UNL1        0.0896
     22 C          -3.7988  -20.3107   20.5392 C.3     1  UNL1        0.0723
     23 C          -3.0434  -19.0269   20.7156 C.3     1  UNL1        0.0210
     24 C          -2.9866  -18.3691   22.0624 C.3     1  UNL1        0.0335
     25 C          -2.2312  -17.0852   22.2388 C.3     1  UNL1        0.1422
     26 O          -1.5326  -16.4592   21.0683 O.3     1  UNL1       -0.3538
     27 C          -1.5895  -17.1169   19.7215 C.3     1  UNL1        0.1422
     28 C          -2.3449  -18.4008   19.5451 C.3     1  UNL1        0.0335
@<TRIPOS>BOND
     1    11    10    1
     2    11     1    1
     3     1     2    2
     4     2    18    1
     5    18    19    1
     6    19    20    1
     7    20    21    1
     8    20    22    1
     9    22    23    1
    10    23    24    1
    11    24    25    1
    12    25    26    1
    13    26    27    1
    14    27    28    1
    15     2     3    1
    16     3     4    1
    17     4     5   ar
    18     5     6   ar
    19     6     7   ar
    20     7     8   ar
    21     8     9   ar
    22    11    12    1
    23    12    13   ar
    24    13    14   ar
    25    14    15   ar
    26    15    16   ar
    27    16    17   ar
    28     9     1    1
    29    17    12   ar
    30    28    23    1
    31     9     4   ar
@<TRIPOS>MOLECULE
*****
 28 31 0 0 0
SMALL
GASTEIGER

@<TRIPOS>ATOM
      1 C          -5.2218  -17.9998   22.5455 C.2     1  UNL1       -0.0246
      2 C          -6.3166  -17.0591   22.9536 C.2     1  UNL1       -0.0421
      3 C          -7.5733  -17.4770   22.2492 C.3     1  UNL1        0.0480
      4 C          -7.2552  -18.6759   21.4057 C.ar    1  UNL1       -0.0184
      5 C          -8.1010  -19.5151   20.4946 C.ar    1  UNL1       -0.0040
      6 C          -7.4936  -20.6775   19.7666 C.ar    1  UNL1       -0.0003
      7 C          -6.0403  -21.0006   19.9498 C.ar    1  UNL1       -0.0000
      8 C          -5.1945  -20.1614   20.8609 C.ar    1  UNL1       -0.0006
      9 C          -5.8019  -18.9990   21.5889 C.ar    1  UNL1       -0.0079
     10 C          -3.4861  -17.9987   24.4788 C.3     1  UNL1        0.0111
     11 C          -3.7971  -17.9501   23.0121 C.3     1  UNL1        0.0634
     12 C          -2.6834  -17.8516   22.0122 C.ar    1  UNL1        0.0818
     13 C          -2.0119  -19.0963   21.5125 C.ar    1  UNL1        0.1139
     14 N          -0.8981  -18.9978   20.5126 N.ar    1  UNL1       -0.2394
     15 C          -0.4559  -17.6547   20.0123 C.ar    1  UNL1        0.1195
     16 C          -1.1274  -16.4099   20.5120 C.ar    1  UNL1        0.1191
     17 N          -2.2411  -16.5084   21.5120 N.ar    1  UNL1       -0.2446
     18 C          -6.1789  -15.9035   23.8999 C.3     1  UNL1        0.0394
     19 C          -7.3471  -14.9970   24.1517 C.3     1  UNL1        0.0765
     20 N          -8.4629  -15.4431   25.0494 N.3     1  UNL1       -0.2712
     21 C          -8.2405  -15.5427   26.5295 C.3     1  UNL1        0.0896
     22 C          -9.8011  -15.7898   24.4671 C.3     1  UNL1        0.0723
     23 C         -10.1462  -17.2211   24.1802 C.3     1  UNL1        0.0210
     24 C          -9.6512  -18.3083   25.0874 C.3     1  UNL1        0.0335
     25 C          -9.9963  -19.7396   24.8005 C.3     1  UNL1        0.1422
     26 O         -10.8364  -20.0837   23.6065 O.3     1  UNL1       -0.3538
     27 C         -11.3314  -18.9965   22.6993 C.3     1  UNL1        0.1422
     28 C         -10.9863  -17.5652   22.9862 C.3     1  UNL1        0.0335
@<TRIPOS>BOND
     1    11    10    1
     2    11     1    1
     3     1     2    2
     4     2    18    1
     5    18    19    1
     6    19    20    1
     7    20    21    1
     8    20    22    1
     9    22    23    1
    10    23    24    1
    11    24    25    1
    12    25    26    1
    13    26    27    1
    14    27    28    1
    15     2     3    1
    16     3     4    1
    17     4     5   ar
    18     5     6   ar
    19     6     7   ar
    20     7     8   ar
    21     8     9   ar
    22    11    12    1
    23    12    13   ar
    24    13    14   ar
    25    14    15   ar
    26    15    16   ar
    27    16    17   ar
    28     9     1    1
    29    17    12   ar
    30    28    23    1
    31     9     4   ar
@<TRIPOS>MOLECULE
*****
 28 31 0 0 0
SMALL
GASTEIGER

@<TRIPOS>ATOM
      1 C         -14.2133   -6.4824   18.1908 C.2     1  UNL1       -0.0246
      2 C         -14.3828   -5.4530   19.2686 C.2     1  UNL1       -0.0421
      3 C         -13.0242   -5.1229   19.8119 C.3     1  UNL1        0.0480
      4 C         -12.0151   -5.9482   19.0699 C.ar    1  UNL1       -0.0184
      5 C         -10.5219   -6.0432   19.1771 C.ar    1  UNL1       -0.0040
      6 C          -9.7638   -6.9784   18.2824 C.ar    1  UNL1       -0.0003
      7 C         -10.4987   -7.8185   17.2804 C.ar    1  UNL1       -0.0000
      8 C         -11.9919   -7.7236   17.1732 C.ar    1  UNL1       -0.0006
      9 C         -12.7500   -6.7884   18.0679 C.ar    1  UNL1       -0.0079
     10 C         -15.8091   -6.4076   16.1418 C.3     1  UNL1        0.0111
     11 C         -15.3140   -7.0976   17.3783 C.3     1  UNL1        0.0634
     12 C         -15.9194   -8.4028   17.8022 C.ar    1  UNL1        0.0818
     13 C         -15.0679   -9.6353   17.8778 C.ar    1  UNL1        0.1139
     14 N         -15.6735  -10.9405   18.3017 N.ar    1  UNL1       -0.2394
     15 C         -17.1306  -11.0133   18.6501 C.ar    1  UNL1        0.1195
     16 C         -17.9822   -9.7807   18.5747 C.ar    1  UNL1        0.1191
     17 N         -17.3767   -8.4756   18.1507 N.ar    1  UNL1       -0.2446
     18 C         -15.6826   -4.8583   19.7233 C.3     1  UNL1        0.0394
     19 C         -16.3675   -3.8214   18.8833 C.3     1  UNL1        0.0765
     20 N         -15.7197   -2.4864   18.6637 N.3     1  UNL1       -0.2712
     21 C         -15.8059   -1.4277   19.7228 C.3     1  UNL1        0.0896
     22 C         -14.9859   -2.2102   17.3850 C.3     1  UNL1        0.0723
     23 C         -13.5317   -2.5579   17.2646 C.3     1  UNL1        0.0210
     24 C         -13.0761   -3.5229   16.2105 C.3     1  UNL1        0.0335
     25 C         -11.6220   -3.8706   16.0901 C.3     1  UNL1        0.1422
     26 O         -10.6234   -3.2535   17.0238 O.3     1  UNL1       -0.3538
     27 C         -11.0790   -2.2885   18.0780 C.3     1  UNL1        0.1422
     28 C         -12.5332   -1.9408   18.1983 C.3     1  UNL1        0.0335
@<TRIPOS>BOND
     1    11    10    1
     2    11     1    1
     3     1     2    2
     4     2    18    1
     5    18    19    1
     6    19    20    1
     7    20    21    1
     8    20    22    1
     9    22    23    1
    10    23    24    1
    11    24    25    1
    12    25    26    1
    13    26    27    1
    14    27    28    1
    15     2     3    1
    16     3     4    1
    17     4     5   ar
    18     5     6   ar
    19     6     7   ar
    20     7     8   ar
    21     8     9   ar
    22    11    12    1
    23    12    13   ar
    24    13    14   ar
    25    14    15   ar
    26    15    16   ar
    27    16    17   ar
    28     9     1    1
    29    17    12   ar
    30    28    23    1
    31     9     4   ar
@<TRIPOS>MOLECULE
*****
 28 31 0 0 0
SMALL
GASTEIGER

@<TRIPOS>ATOM
      1 C          -8.3192  -16.5124   23.3544 C.2     1  UNL1       -0.0246
      2 C          -7.0582  -17.0512   22.7464 C.2     1  UNL1       -0.0421
      3 C          -5.9534  -16.8854   23.7475 C.3     1  UNL1        0.0480
      4 C          -6.5316  -16.2442   24.9740 C.ar    1  UNL1       -0.0184
      5 C          -5.9157  -15.8404   26.2807 C.ar    1  UNL1       -0.0040
      6 C          -6.7618  -15.2061   27.3445 C.ar    1  UNL1       -0.0003
      7 C          -8.2240  -14.9756   27.1015 C.ar    1  UNL1       -0.0000
      8 C          -8.8399  -15.3793   25.7949 C.ar    1  UNL1       -0.0006
      9 C          -7.9938  -16.0136   24.7311 C.ar    1  UNL1       -0.0079
     10 C          -9.8697  -15.6974   21.4356 C.3     1  UNL1        0.0111
     11 C          -9.6687  -16.4784   22.7004 C.3     1  UNL1        0.0634
     12 C         -10.8171  -17.2253   23.3112 C.ar    1  UNL1        0.0818
     13 C         -12.2245  -16.8947   22.9111 C.ar    1  UNL1        0.1139
     14 N         -13.3730  -17.6416   23.5219 N.ar    1  UNL1       -0.2394
     15 C         -13.1142  -18.7192   24.5327 C.ar    1  UNL1        0.1195
     16 C         -11.7068  -19.0499   24.9328 C.ar    1  UNL1        0.1191
     17 N         -10.5583  -18.3029   24.3220 N.ar    1  UNL1       -0.2446
     18 C          -6.9253  -17.6506   21.3778 C.3     1  UNL1        0.0394
     19 C          -7.0230  -19.1364   21.1970 C.3     1  UNL1        0.0765
     20 N          -6.0146  -19.8571   20.3521 N.3     1  UNL1       -0.2712
     21 C          -5.9978  -21.3567   20.3198 C.3     1  UNL1        0.0896
     22 C          -5.0231  -19.0782   19.5396 C.3     1  UNL1        0.0723
     23 C          -3.6382  -18.8466   20.0671 C.3     1  UNL1        0.0210
     24 C          -2.5419  -18.4227   19.1353 C.3     1  UNL1        0.0335
     25 C          -1.1569  -18.1910   19.6628 C.3     1  UNL1        0.1422
     26 O          -0.8683  -18.3832   21.1221 O.3     1  UNL1       -0.3538
     27 C          -1.9646  -18.8071   22.0539 C.3     1  UNL1        0.1422
     28 C          -3.3496  -19.0387   21.5264 C.3     1  UNL1        0.0335
@<TRIPOS>BOND
     1    11    10    1
     2    11     1    1
     3     1     2    2
     4     2    18    1
     5    18    19    1
     6    19    20    1
     7    20    21    1
     8    20    22    1
     9    22    23    1
    10    23    24    1
    11    24    25    1
    12    25    26    1
    13    26    27    1
    14    27    28    1
    15     2     3    1
    16     3     4    1
    17     4     5   ar
    18     5     6   ar
    19     6     7   ar
    20     7     8   ar
    21     8     9   ar
    22    11    12    1
    23    12    13   ar
    24    13    14   ar
    25    14    15   ar
    26    15    16   ar
    27    16    17   ar
    28     9     1    1
    29    17    12   ar
    30    28    23    1
    31     9     4   ar
@<TRIPOS>MOLECULE
*****
 28 31 0 0 0
SMALL
GASTEIGER

@<TRIPOS>ATOM
      1 C         -13.4547   -5.1669   18.0810 C.2     1  UNL1       -0.0246
      2 C         -14.1287   -4.4758   16.9329 C.2     1  UNL1       -0.0421
      3 C         -13.0643   -3.9970   15.9907 C.3     1  UNL1        0.0480
      4 C         -11.7325   -4.3922   16.5564 C.ar    1  UNL1       -0.0184
      5 C         -10.3312   -4.1870   16.0620 C.ar    1  UNL1       -0.0040
      6 C          -9.1713   -4.7049   16.8596 C.ar    1  UNL1       -0.0003
      7 C          -9.4125   -5.4279   18.1515 C.ar    1  UNL1       -0.0000
      8 C         -10.8137   -5.6331   18.6459 C.ar    1  UNL1       -0.0006
      9 C         -11.9737   -5.1152   17.8483 C.ar    1  UNL1       -0.0079
     10 C         -14.0883   -5.1365   20.6005 C.3     1  UNL1        0.0111
     11 C         -14.1410   -5.7988   19.2555 C.3     1  UNL1        0.0634
     12 C         -14.8801   -7.0928   19.0854 C.ar    1  UNL1        0.0818
     13 C         -14.1820   -8.2838   18.4986 C.ar    1  UNL1        0.1139
     14 N         -14.9212   -9.5778   18.3284 N.ar    1  UNL1       -0.2394
     15 C         -16.3585   -9.6811   18.7450 C.ar    1  UNL1        0.1195
     16 C         -17.0567   -8.4901   19.3318 C.ar    1  UNL1        0.1191
     17 N         -16.3175   -7.1960   19.5020 N.ar    1  UNL1       -0.2446
     18 C         -15.6075   -4.2953   16.7578 C.3     1  UNL1        0.0394
     19 C         -16.2670   -3.0265   17.2109 C.3     1  UNL1        0.0765
     20 N         -16.2655   -2.6584   18.6650 N.3     1  UNL1       -0.2712
     21 C         -17.0902   -3.4466   19.6391 C.3     1  UNL1        0.0896
     22 C         -15.4394   -1.5021   19.1451 C.3     1  UNL1        0.0723
     23 C         -14.0444   -1.3111   18.6280 C.3     1  UNL1        0.0210
     24 C         -12.8789   -1.8669   19.3914 C.3     1  UNL1        0.0335
     25 C         -11.4839   -1.6759   18.8743 C.3     1  UNL1        0.1422
     26 O         -11.2543   -0.9292   17.5939 O.3     1  UNL1       -0.3538
     27 C         -12.4197   -0.3734   16.8305 C.3     1  UNL1        0.1422
     28 C         -13.8148   -0.5644   17.3475 C.3     1  UNL1        0.0335
@<TRIPOS>BOND
     1    11    10    1
     2    11     1    1
     3     1     2    2
     4     2    18    1
     5    18    19    1
     6    19    20    1
     7    20    21    1
     8    20    22    1
     9    22    23    1
    10    23    24    1
    11    24    25    1
    12    25    26    1
    13    26    27    1
    14    27    28    1
    15     2     3    1
    16     3     4    1
    17     4     5   ar
    18     5     6   ar
    19     6     7   ar
    20     7     8   ar
    21     8     9   ar
    22    11    12    1
    23    12    13   ar
    24    13    14   ar
    25    14    15   ar
    26    15    16   ar
    27    16    17   ar
    28     9     1    1
    29    17    12   ar
    30    28    23    1
    31     9     4   ar
@<TRIPOS>MOLECULE
*****
 28 31 0 0 0
SMALL
GASTEIGER

@<TRIPOS>ATOM
      1 C         -10.5041  -18.8079   22.3068 C.2     1  UNL1       -0.0246
      2 C          -9.5892  -19.6072   23.1866 C.2     1  UNL1       -0.0421
      3 C         -10.2776  -19.8163   24.5028 C.3     1  UNL1        0.0480
      4 C         -11.6179  -19.1461   24.4365 C.ar    1  UNL1       -0.0184
      5 C         -12.7290  -19.0229   25.4366 C.ar    1  UNL1       -0.0040
      6 C         -13.9800  -18.2764   25.0796 C.ar    1  UNL1       -0.0003
      7 C         -14.1201  -17.6532   23.7224 C.ar    1  UNL1       -0.0000
      8 C         -13.0090  -17.7764   22.7222 C.ar    1  UNL1       -0.0006
      9 C         -11.7579  -18.5229   23.0793 C.ar    1  UNL1       -0.0079
     10 C         -10.2048  -19.3774   19.7896 C.3     1  UNL1        0.0111
     11 C         -10.2158  -18.3704   20.9013 C.3     1  UNL1        0.0634
     12 C          -9.9386  -16.9259   20.6074 C.ar    1  UNL1        0.0818
     13 C         -10.7081  -16.2182   19.5317 C.ar    1  UNL1        0.1139
     14 N         -10.4308  -14.7736   19.2378 N.ar    1  UNL1       -0.2394
     15 C          -9.3840  -14.0367   20.0196 C.ar    1  UNL1        0.1195
     16 C          -8.6145  -14.7443   21.0953 C.ar    1  UNL1        0.1191
     17 N          -8.8918  -16.1889   21.3892 N.ar    1  UNL1       -0.2446
     18 C          -8.2253  -20.1094   22.8153 C.3     1  UNL1        0.0394
     19 C          -7.1728  -19.1472   22.3503 C.3     1  UNL1        0.0765
     20 N          -5.9088  -19.6616   21.7276 N.3     1  UNL1       -0.2712
     21 C          -5.9582  -20.3704   20.4065 C.3     1  UNL1        0.0896
     22 C          -4.5956  -19.4672   22.4258 C.3     1  UNL1        0.0723
     23 C          -3.5616  -18.5534   21.8380 C.3     1  UNL1        0.0210
     24 C          -2.8784  -18.9211   20.5543 C.3     1  UNL1        0.0335
     25 C          -1.8444  -18.0072   19.9664 C.3     1  UNL1        0.1422
     26 O          -1.4936  -16.7256   20.6622 O.3     1  UNL1       -0.3538
     27 C          -2.1768  -16.3578   21.9459 C.3     1  UNL1        0.1422
     28 C          -3.2108  -17.2717   22.5338 C.3     1  UNL1        0.0335
@<TRIPOS>BOND
     1    11    10    1
     2    11     1    1
     3     1     2    2
     4     2    18    1
     5    18    19    1
     6    19    20    1
     7    20    21    1
     8    20    22    1
     9    22    23    1
    10    23    24    1
    11    24    25    1
    12    25    26    1
    13    26    27    1
    14    27    28    1
    15     2     3    1
    16     3     4    1
    17     4     5   ar
    18     5     6   ar
    19     6     7   ar
    20     7     8   ar
    21     8     9   ar
    22    11    12    1
    23    12    13   ar
    24    13    14   ar
    25    14    15   ar
    26    15    16   ar
    27    16    17   ar
    28     9     1    1
    29    17    12   ar
    30    28    23    1
    31     9     4   ar
@<TRIPOS>MOLECULE
*****
 28 31 0 0 0
SMALL
GASTEIGER

@<TRIPOS>ATOM
      1 C          -9.3826  -18.1260   23.1608 C.2     1  UNL1       -0.0246
      2 C          -8.9242  -16.9136   23.9158 C.2     1  UNL1       -0.0421
      3 C          -9.9815  -15.8579   23.7833 C.3     1  UNL1        0.0480
      4 C         -11.0934  -16.4178   22.9464 C.ar    1  UNL1       -0.0184
      5 C         -12.3950  -15.8324   22.4850 C.ar    1  UNL1       -0.0040
      6 C         -13.3264  -16.6487   21.6389 C.ar    1  UNL1       -0.0003
      7 C         -12.9562  -18.0505   21.2541 C.ar    1  UNL1       -0.0000
      8 C         -11.6546  -18.6359   21.7156 C.ar    1  UNL1       -0.0006
      9 C         -10.7232  -17.8196   22.5617 C.ar    1  UNL1       -0.0079
     10 C          -8.9808  -20.5817   23.9082 C.3     1  UNL1        0.0111
     11 C          -8.6321  -19.4180   23.0282 C.3     1  UNL1        0.0634
     12 C          -7.5330  -19.5464   22.0157 C.ar    1  UNL1        0.0818
     13 C          -7.2698  -18.4303   21.0486 C.ar    1  UNL1        0.1139
     14 N          -6.1706  -18.5588   20.0361 N.ar    1  UNL1       -0.2394
     15 C          -5.3346  -19.8033   19.9905 C.ar    1  UNL1        0.1195
     16 C          -5.5976  -20.9195   20.9576 C.ar    1  UNL1        0.1191
     17 N          -6.6968  -20.7910   21.9701 N.ar    1  UNL1       -0.2446
     18 C          -7.6349  -16.7803   24.6708 C.3     1  UNL1        0.0394
     19 C          -6.8189  -15.5279   24.5463 C.3     1  UNL1        0.0765
     20 N          -5.3274  -15.5866   24.6946 N.3     1  UNL1       -0.2712
     21 C          -4.7179  -15.8874   26.0318 C.3     1  UNL1        0.0896
     22 C          -4.4455  -15.3445   23.5057 C.3     1  UNL1        0.0723
     23 C          -3.6640  -16.4771   22.9085 C.3     1  UNL1        0.0210
     24 C          -2.5098  -16.1919   21.9941 C.3     1  UNL1        0.0335
     25 C          -1.7283  -17.3245   21.3969 C.3     1  UNL1        0.1422
     26 O          -2.1011  -18.7423   21.7143 O.3     1  UNL1       -0.3538
     27 C          -3.2554  -19.0276   22.6287 C.3     1  UNL1        0.1422
     28 C          -4.0368  -17.8950   23.2259 C.3     1  UNL1        0.0335
@<TRIPOS>BOND
     1    11    10    1
     2    11     1    1
     3     1     2    2
     4     2    18    1
     5    18    19    1
     6    19    20    1
     7    20    21    1
     8    20    22    1
     9    22    23    1
    10    23    24    1
    11    24    25    1
    12    25    26    1
    13    26    27    1
    14    27    28    1
    15     2     3    1
    16     3     4    1
    17     4     5   ar
    18     5     6   ar
    19     6     7   ar
    20     7     8   ar
    21     8     9   ar
    22    11    12    1
    23    12    13   ar
    24    13    14   ar
    25    14    15   ar
    26    15    16   ar
    27    16    17   ar
    28     9     1    1
    29    17    12   ar
    30    28    23    1
    31     9     4   ar
