@<TRIPOS>MOLECULE
*****
 21 23 0 0 0
SMALL
GASTEIGER

@<TRIPOS>ATOM
      1 N          -8.7580  -17.6788   22.9984 N.pl3   1  UNL1       -0.3035
      2 C         -10.2526  -17.6458   23.1218 C.ar    1  UNL1        0.0481
      3 C         -11.0524  -16.6836   22.2945 C.ar    1  UNL1        0.0145
      4 C         -12.5469  -16.6506   22.4179 C.ar    1  UNL1        0.0013
      5 C         -13.2416  -17.5799   23.3686 C.ar    1  UNL1        0.0001
      6 C         -12.4418  -18.5421   24.1959 C.ar    1  UNL1        0.0013
      7 C         -10.9473  -18.5751   24.0725 C.ar    1  UNL1        0.0145
      8 C          -7.9606  -16.4252   23.2052 C.3     1  UNL1        0.1186
      9 CL         -5.1125  -15.6583   23.7531 Cl      1  UNL1       -0.0825
     10 C          -6.1218  -15.6362   24.8625 C.ar    1  UNL1        0.0553
     11 C          -5.7072  -15.2307   26.2458 C.ar    1  UNL1        0.0111
     12 C          -6.7166  -15.2085   27.3551 C.ar    1  UNL1        0.0008
     13 C          -8.1406  -15.5920   27.0812 C.ar    1  UNL1       -0.0002
     14 C          -8.5553  -15.9975   25.6978 C.ar    1  UNL1       -0.0018
     15 C          -7.5459  -16.0197   24.5885 C.ar    1  UNL1        0.0082
     16 C          -8.0609  -18.9652   22.6683 C.3     1  UNL1        0.0938
     17 C          -6.8297  -18.9527   21.8115 C.3     1  UNL1        0.0512
     18 C          -6.5637  -19.0013   20.3361 C.3     1  UNL1        0.0716
     19 N          -5.0886  -18.9350   20.5998 N.3     1  UNL1       -0.2973
     20 C          -5.3545  -18.8863   22.0752 C.3     1  UNL1        0.0716
     21 H          -4.6368  -18.0985   20.2303 H       1  UNL1        0.1233
@<TRIPOS>BOND
     1     9    10    1
     2    10    11   ar
     3    11    12   ar
     4    12    13   ar
     5    13    14   ar
     6    14    15   ar
     7    15     8    1
     8     8     1    1
     9     1    16    1
    10    16    17    1
    11    17    18    1
    12    18    19    1
    13    19    20    1
    14     1     2    1
    15     2     3   ar
    16     3     4   ar
    17     4     5   ar
    18     5     6   ar
    19     6     7   ar
    20    15    10   ar
    21    20    17    1
    22     7     2   ar
    23    19    21    1
@<TRIPOS>MOLECULE
*****
 21 23 0 0 0
SMALL
GASTEIGER

@<TRIPOS>ATOM
      1 N          -8.0871  -17.5919   22.5358 N.pl3   1  UNL1       -0.3035
      2 C          -7.0534  -18.4873   21.9195 C.ar    1  UNL1        0.0481
      3 C          -5.6462  -18.4766   22.4388 C.ar    1  UNL1        0.0145
      4 C          -4.6125  -19.3720   21.8225 C.ar    1  UNL1        0.0013
      5 C          -4.9861  -20.2780   20.6869 C.ar    1  UNL1        0.0001
      6 C          -6.3933  -20.2887   20.1677 C.ar    1  UNL1        0.0013
      7 C          -7.4269  -19.3934   20.7840 C.ar    1  UNL1        0.0145
      8 C          -7.7163  -16.2035   22.9659 C.3     1  UNL1        0.1186
      9 CL         -4.9519  -15.3660   23.7763 Cl      1  UNL1       -0.0825
     10 C          -6.0281  -15.5025   24.8121 C.ar    1  UNL1        0.0553
     11 C          -5.7222  -15.2202   26.2532 C.ar    1  UNL1        0.0111
     12 C          -6.7985  -15.3567   27.2891 C.ar    1  UNL1        0.0008
     13 C          -8.1806  -15.7754   26.8839 C.ar    1  UNL1       -0.0002
     14 C          -8.4866  -16.0577   25.4428 C.ar    1  UNL1       -0.0018
     15 C          -7.4104  -15.9212   24.4069 C.ar    1  UNL1        0.0082
     16 C          -9.4914  -18.0849   22.7221 C.3     1  UNL1        0.0938
     17 C          -9.7983  -19.0870   23.7952 C.3     1  UNL1        0.0512
     18 C         -10.6379  -19.0865   25.0382 C.3     1  UNL1        0.0716
     19 N         -10.2324  -20.5042   25.3128 N.3     1  UNL1       -0.2973
     20 C          -9.3928  -20.5049   24.0699 C.3     1  UNL1        0.0716
     21 H         -11.0053  -21.1695   25.2936 H       1  UNL1        0.1233
@<TRIPOS>BOND
     1     9    10    1
     2    10    11   ar
     3    11    12   ar
     4    12    13   ar
     5    13    14   ar
     6    14    15   ar
     7    15     8    1
     8     8     1    1
     9     1    16    1
    10    16    17    1
    11    17    18    1
    12    18    19    1
    13    19    20    1
    14     1     2    1
    15     2     3   ar
    16     3     4   ar
    17     4     5   ar
    18     5     6   ar
    19     6     7   ar
    20    15    10   ar
    21    20    17    1
    22     7     2   ar
    23    19    21    1
@<TRIPOS>MOLECULE
*****
 21 23 0 0 0
SMALL
GASTEIGER

@<TRIPOS>ATOM
      1 N          -8.4654  -17.3206   22.5408 N.pl3   1  UNL1       -0.3035
      2 C          -7.5314  -18.2925   21.8827 C.ar    1  UNL1        0.0481
      3 C          -7.9855  -19.0771   20.6875 C.ar    1  UNL1        0.0145
      4 C          -7.0516  -20.0490   20.0294 C.ar    1  UNL1        0.0013
      5 C          -5.6636  -20.2364   20.5665 C.ar    1  UNL1        0.0001
      6 C          -5.2096  -19.4519   21.7616 C.ar    1  UNL1        0.0013
      7 C          -6.1435  -18.4799   22.4197 C.ar    1  UNL1        0.0145
      8 C          -7.9574  -15.9861   23.0004 C.3     1  UNL1        0.1186
      9 CL         -5.1188  -15.3192   23.7057 Cl      1  UNL1       -0.0825
     10 C          -6.1491  -15.4518   24.7878 C.ar    1  UNL1        0.0553
     11 C          -5.7602  -15.2509   26.2224 C.ar    1  UNL1        0.0111
     12 C          -6.7906  -15.3835   27.3045 C.ar    1  UNL1        0.0008
     13 C          -8.2098  -15.7170   26.9518 C.ar    1  UNL1       -0.0002
     14 C          -8.5988  -15.9179   25.5171 C.ar    1  UNL1       -0.0018
     15 C          -7.5685  -15.7853   24.4350 C.ar    1  UNL1        0.0082
     16 C          -9.9073  -17.6830   22.7392 C.3     1  UNL1        0.0938
     17 C         -10.9445  -17.1889   21.7748 C.3     1  UNL1        0.0512
     18 C         -11.0187  -16.0706   20.7778 C.3     1  UNL1        0.0716
     19 N         -12.4112  -16.4900   20.4109 N.3     1  UNL1       -0.2973
     20 C         -12.3371  -17.6084   21.4078 C.3     1  UNL1        0.0716
     21 H         -12.5117  -16.7998   19.4443 H       1  UNL1        0.1233
@<TRIPOS>BOND
     1     9    10    1
     2    10    11   ar
     3    11    12   ar
     4    12    13   ar
     5    13    14   ar
     6    14    15   ar
     7    15     8    1
     8     8     1    1
     9     1    16    1
    10    16    17    1
    11    17    18    1
    12    18    19    1
    13    19    20    1
    14     1     2    1
    15     2     3   ar
    16     3     4   ar
    17     4     5   ar
    18     5     6   ar
    19     6     7   ar
    20    15    10   ar
    21    20    17    1
    22     7     2   ar
    23    19    21    1
@<TRIPOS>MOLECULE
*****
 21 23 0 0 0
SMALL
GASTEIGER

@<TRIPOS>ATOM
      1 N          -7.5794  -18.3692   22.3147 N.pl3   1  UNL1       -0.3035
      2 C          -6.2422  -18.8936   21.8823 C.ar    1  UNL1        0.0481
      3 C          -6.1425  -19.8074   20.6970 C.ar    1  UNL1        0.0145
      4 C          -4.8053  -20.3317   20.2646 C.ar    1  UNL1        0.0013
      5 C          -3.5678  -19.9423   21.0176 C.ar    1  UNL1        0.0001
      6 C          -3.6675  -19.0285   22.2029 C.ar    1  UNL1        0.0013
      7 C          -5.0047  -18.5041   22.6353 C.ar    1  UNL1        0.0145
      8 C          -8.6743  -19.3240   22.6884 C.3     1  UNL1        0.1186
      9 CL        -10.0759  -18.8247   20.0834 Cl      1  UNL1       -0.0825
     10 C         -10.8037  -18.6173   21.3784 C.ar    1  UNL1        0.0553
     11 C         -12.2324  -18.1603   21.3710 C.ar    1  UNL1        0.0111
     12 C         -12.9602  -17.9529   22.6661 C.ar    1  UNL1        0.0008
     13 C         -12.2595  -18.2026   23.9686 C.ar    1  UNL1       -0.0002
     14 C         -10.8308  -18.6596   23.9760 C.ar    1  UNL1       -0.0018
     15 C         -10.1029  -18.8670   22.6810 C.ar    1  UNL1        0.0082
     16 C          -7.8218  -16.8901   22.3734 C.3     1  UNL1        0.0938
     17 C          -7.6554  -16.1536   23.6695 C.3     1  UNL1        0.0512
     18 C          -8.5393  -15.8649   24.8465 C.3     1  UNL1        0.0716
     19 N          -7.4201  -15.1121   25.5025 N.3     1  UNL1       -0.2973
     20 C          -6.5360  -15.4008   24.3256 C.3     1  UNL1        0.0716
     21 H          -7.0969  -15.5253   26.3773 H       1  UNL1        0.1233
@<TRIPOS>BOND
     1     9    10    1
     2    10    11   ar
     3    11    12   ar
     4    12    13   ar
     5    13    14   ar
     6    14    15   ar
     7    15     8    1
     8     8     1    1
     9     1    16    1
    10    16    17    1
    11    17    18    1
    12    18    19    1
    13    19    20    1
    14     1     2    1
    15     2     3   ar
    16     3     4   ar
    17     4     5   ar
    18     5     6   ar
    19     6     7   ar
    20    15    10   ar
    21    20    17    1
    22     7     2   ar
    23    19    21    1
@<TRIPOS>MOLECULE
*****
 21 23 0 0 0
SMALL
GASTEIGER

@<TRIPOS>ATOM
      1 N          -7.4476  -18.4021   22.3027 N.pl3   1  UNL1       -0.3035
      2 C          -6.1069  -18.9215   21.8751 C.ar    1  UNL1        0.0481
      3 C          -5.9971  -19.8181   20.6776 C.ar    1  UNL1        0.0145
      4 C          -4.6565  -20.3375   20.2499 C.ar    1  UNL1        0.0013
      5 C          -3.4256  -19.9603   21.0197 C.ar    1  UNL1        0.0001
      6 C          -3.5354  -19.0637   22.2173 C.ar    1  UNL1        0.0013
      7 C          -4.8760  -18.5443   22.6449 C.ar    1  UNL1        0.0145
      8 C          -8.5295  -19.3601   22.7048 C.3     1  UNL1        0.1186
      9 CL         -9.9744  -18.9469   25.3013 Cl      1  UNL1       -0.0825
     10 C         -10.6849  -18.7100   24.0017 C.ar    1  UNL1        0.0553
     11 C         -12.1178  -18.2665   24.0003 C.ar    1  UNL1        0.0111
     12 C         -12.8284  -18.0297   22.7007 C.ar    1  UNL1        0.0008
     13 C         -12.1060  -18.2362   21.4024 C.ar    1  UNL1       -0.0002
     14 C         -10.6730  -18.6797   21.4038 C.ar    1  UNL1       -0.0018
     15 C          -9.9625  -18.9166   22.7034 C.ar    1  UNL1        0.0082
     16 C          -7.7062  -16.9249   22.3283 C.3     1  UNL1        0.0938
     17 C          -7.5462  -16.1574   23.6072 C.3     1  UNL1        0.0512
     18 C          -8.4708  -15.7185   24.7036 C.3     1  UNL1        0.0716
     19 N          -7.3198  -15.0722   25.4157 N.3     1  UNL1       -0.2973
     20 C          -6.3950  -15.5110   24.3193 C.3     1  UNL1        0.0716
     21 H          -7.1103  -15.4818   26.3260 H       1  UNL1        0.1233
@<TRIPOS>BOND
     1     9    10    1
     2    10    11   ar
     3    11    12   ar
     4    12    13   ar
     5    13    14   ar
     6    14    15   ar
     7    15     8    1
     8     8     1    1
     9     1    16    1
    10    16    17    1
    11    17    18    1
    12    18    19    1
    13    19    20    1
    14     1     2    1
    15     2     3   ar
    16     3     4   ar
    17     4     5   ar
    18     5     6   ar
    19     6     7   ar
    20    15    10   ar
    21    20    17    1
    22     7     2   ar
    23    19    21    1
@<TRIPOS>MOLECULE
*****
 21 23 0 0 0
SMALL
GASTEIGER

@<TRIPOS>ATOM
      1 N          -8.6778  -17.7071   22.4711 N.pl3   1  UNL1       -0.3035
      2 C         -10.1671  -17.7996   22.6247 C.ar    1  UNL1        0.0481
      3 C         -11.0626  -17.4600   21.4702 C.ar    1  UNL1        0.0145
      4 C         -12.5519  -17.5524   21.6238 C.ar    1  UNL1        0.0013
      5 C         -13.1456  -17.9845   22.9317 C.ar    1  UNL1        0.0001
      6 C         -12.2500  -18.3242   24.0861 C.ar    1  UNL1        0.0013
      7 C         -10.7608  -18.2317   23.9326 C.ar    1  UNL1        0.0145
      8 C          -7.8428  -18.9530   22.4930 C.3     1  UNL1        0.1186
      9 CL         -7.7273  -19.4021   19.5290 Cl      1  UNL1       -0.0825
     10 C          -6.4604  -19.2051   20.3076 C.ar    1  UNL1        0.0553
     11 C          -5.1359  -19.2327   19.6043 C.ar    1  UNL1        0.0111
     12 C          -3.8690  -19.0357   20.3830 C.ar    1  UNL1        0.0008
     13 C          -3.9267  -18.8112   21.8649 C.ar    1  UNL1       -0.0002
     14 C          -5.2514  -18.7836   22.5683 C.ar    1  UNL1       -0.0018
     15 C          -6.5182  -18.9806   21.7897 C.ar    1  UNL1        0.0082
     16 C          -8.0236  -16.3688   22.2957 C.3     1  UNL1        0.0938
     17 C          -7.3887  -15.6846   23.4699 C.3     1  UNL1        0.0512
     18 C          -7.8985  -15.0366   24.7229 C.3     1  UNL1        0.0716
     19 N          -6.4908  -14.7171   25.1305 N.3     1  UNL1       -0.2973
     20 C          -5.9809  -15.3651   23.8775 C.3     1  UNL1        0.0716
     21 H          -6.1911  -15.1783   25.9895 H       1  UNL1        0.1233
@<TRIPOS>BOND
     1     9    10    1
     2    10    11   ar
     3    11    12   ar
     4    12    13   ar
     5    13    14   ar
     6    14    15   ar
     7    15     8    1
     8     8     1    1
     9     1    16    1
    10    16    17    1
    11    17    18    1
    12    18    19    1
    13    19    20    1
    14     1     2    1
    15     2     3   ar
    16     3     4   ar
    17     4     5   ar
    18     5     6   ar
    19     6     7   ar
    20    15    10   ar
    21    20    17    1
    22     7     2   ar
    23    19    21    1
@<TRIPOS>MOLECULE
*****
 21 23 0 0 0
SMALL
GASTEIGER

@<TRIPOS>ATOM
      1 N         -10.1934  -16.3251   23.7768 N.pl3   1  UNL1       -0.3035
      2 C          -9.8206  -17.7780   23.7919 C.ar    1  UNL1        0.0481
      3 C         -10.4363  -18.6999   24.8024 C.ar    1  UNL1        0.0145
      4 C         -10.0635  -20.1527   24.8175 C.ar    1  UNL1        0.0013
      5 C          -9.0749  -20.6837   23.8221 C.ar    1  UNL1        0.0001
      6 C          -8.4592  -19.7618   22.8116 C.ar    1  UNL1        0.0013
      7 C          -8.8320  -18.3090   22.7965 C.ar    1  UNL1        0.0145
      8 C          -9.5058  -15.3648   24.7014 C.3     1  UNL1        0.1186
      9 CL         -8.3409  -15.7349   27.4411 Cl      1  UNL1       -0.0825
     10 C          -7.4356  -15.6165   26.2509 C.ar    1  UNL1        0.0553
     11 C          -5.9479  -15.6832   26.4305 C.ar    1  UNL1        0.0111
     12 C          -5.0427  -15.5648   25.2404 C.ar    1  UNL1        0.0008
     13 C          -5.6252  -15.3797   23.8705 C.ar    1  UNL1       -0.0002
     14 C          -7.1129  -15.3130   23.6909 C.ar    1  UNL1       -0.0018
     15 C          -8.0182  -15.4314   24.8810 C.ar    1  UNL1        0.0082
     16 C         -11.2539  -15.8327   22.8372 C.3     1  UNL1        0.0938
     17 C         -11.4697  -16.5217   21.5224 C.3     1  UNL1        0.0512
     18 C         -12.1528  -17.7838   21.0858 C.3     1  UNL1        0.0716
     19 N         -11.7750  -17.4962   19.6631 N.3     1  UNL1       -0.2973
     20 C         -11.0919  -16.2341   20.0995 C.3     1  UNL1        0.0716
     21 H         -12.5709  -17.3459   19.0431 H       1  UNL1        0.1233
@<TRIPOS>BOND
     1     9    10    1
     2    10    11   ar
     3    11    12   ar
     4    12    13   ar
     5    13    14   ar
     6    14    15   ar
     7    15     8    1
     8     8     1    1
     9     1    16    1
    10    16    17    1
    11    17    18    1
    12    18    19    1
    13    19    20    1
    14     1     2    1
    15     2     3   ar
    16     3     4   ar
    17     4     5   ar
    18     5     6   ar
    19     6     7   ar
    20    15    10   ar
    21    20    17    1
    22     7     2   ar
    23    19    21    1
@<TRIPOS>MOLECULE
*****
 21 23 0 0 0
SMALL
GASTEIGER

@<TRIPOS>ATOM
      1 N          -9.6547  -17.1999   23.6475 N.pl3   1  UNL1       -0.3035
      2 C          -8.5145  -16.5355   24.3606 C.ar    1  UNL1        0.0481
      3 C          -7.3295  -16.0425   23.5843 C.ar    1  UNL1        0.0145
      4 C          -6.1893  -15.3781   24.2973 C.ar    1  UNL1        0.0013
      5 C          -6.2341  -15.2068   25.7868 C.ar    1  UNL1        0.0001
      6 C          -7.4190  -15.6998   26.5632 C.ar    1  UNL1        0.0013
      7 C          -8.5592  -16.3641   25.8501 C.ar    1  UNL1        0.0145
      8 C          -9.5451  -18.6376   23.2342 C.3     1  UNL1        0.1186
      9 CL        -11.5130  -19.6884   21.2284 Cl      1  UNL1       -0.0825
     10 C         -10.0734  -19.5125   20.8456 C.ar    1  UNL1        0.0553
     11 C          -9.6178  -19.8619   19.4599 C.ar    1  UNL1        0.0111
     12 C          -8.1781  -19.6860   19.0770 C.ar    1  UNL1        0.0008
     13 C          -7.1942  -19.1606   20.0799 C.ar    1  UNL1       -0.0002
     14 C          -7.6498  -18.8111   21.4657 C.ar    1  UNL1       -0.0018
     15 C          -9.0894  -18.9871   21.8485 C.ar    1  UNL1        0.0082
     16 C         -10.9044  -16.4265   23.3476 C.3     1  UNL1        0.0938
     17 C         -11.3726  -16.2779   21.9303 C.3     1  UNL1        0.0512
     18 C         -12.6652  -16.5213   21.2092 C.3     1  UNL1        0.0716
     19 N         -12.0348  -16.0679   19.9260 N.3     1  UNL1       -0.2973
     20 C         -10.7421  -15.8244   20.6470 C.3     1  UNL1        0.0716
     21 H         -12.4553  -15.2273   19.5297 H       1  UNL1        0.1233
@<TRIPOS>BOND
     1     9    10    1
     2    10    11   ar
     3    11    12   ar
     4    12    13   ar
     5    13    14   ar
     6    14    15   ar
     7    15     8    1
     8     8     1    1
     9     1    16    1
    10    16    17    1
    11    17    18    1
    12    18    19    1
    13    19    20    1
    14     1     2    1
    15     2     3   ar
    16     3     4   ar
    17     4     5   ar
    18     5     6   ar
    19     6     7   ar
    20    15    10   ar
    21    20    17    1
    22     7     2   ar
    23    19    21    1
@<TRIPOS>MOLECULE
*****
 21 23 0 0 0
SMALL
GASTEIGER

@<TRIPOS>ATOM
      1 N          -8.0008  -16.8774   23.0434 N.pl3   1  UNL1       -0.3035
      2 C          -7.6035  -16.3347   24.3842 C.ar    1  UNL1        0.0481
      3 C          -6.2415  -15.7368   24.5777 C.ar    1  UNL1        0.0145
      4 C          -5.8442  -15.1941   25.9185 C.ar    1  UNL1        0.0013
      5 C          -6.8090  -15.2493   27.0657 C.ar    1  UNL1        0.0001
      6 C          -8.1710  -15.8471   26.8722 C.ar    1  UNL1        0.0013
      7 C          -8.5683  -16.3898   25.5314 C.ar    1  UNL1        0.0145
      8 C          -7.7053  -18.3062   22.6952 C.3     1  UNL1        0.1186
      9 CL         -7.7927  -19.3179   19.8723 Cl      1  UNL1       -0.0825
     10 C          -6.4756  -19.1630   20.5730 C.ar    1  UNL1        0.0553
     11 C          -5.2021  -19.5139   19.8623 C.ar    1  UNL1        0.0111
     12 C          -3.8849  -19.3589   20.5631 C.ar    1  UNL1        0.0008
     13 C          -3.8412  -18.8531   21.9745 C.ar    1  UNL1       -0.0002
     14 C          -5.1147  -18.5022   22.6852 C.ar    1  UNL1       -0.0018
     15 C          -6.4319  -18.6571   21.9845 C.ar    1  UNL1        0.0082
     16 C          -8.6934  -15.9914   22.0509 C.3     1  UNL1        0.0938
     17 C         -10.1609  -16.1605   21.7904 C.3     1  UNL1        0.0512
     18 C         -11.0205  -16.2181   20.5626 C.3     1  UNL1        0.0716
     19 N         -12.2362  -16.3998   21.4221 N.3     1  UNL1       -0.2973
     20 C         -11.3767  -16.3422   22.6501 C.3     1  UNL1        0.0716
     21 H         -12.7114  -17.2923   21.2880 H       1  UNL1        0.1233
@<TRIPOS>BOND
     1     9    10    1
     2    10    11   ar
     3    11    12   ar
     4    12    13   ar
     5    13    14   ar
     6    14    15   ar
     7    15     8    1
     8     8     1    1
     9     1    16    1
    10    16    17    1
    11    17    18    1
    12    18    19    1
    13    19    20    1
    14     1     2    1
    15     2     3   ar
    16     3     4   ar
    17     4     5   ar
    18     5     6   ar
    19     6     7   ar
    20    15    10   ar
    21    20    17    1
    22     7     2   ar
    23    19    21    1
