@<TRIPOS>MOLECULE
*****
 35 38 0 0 0
SMALL
GASTEIGER

@<TRIPOS>ATOM
      1 N           4.3688   -0.0875   18.8449 N.3     1  UNL1       -0.2750
      2 C           4.9950    1.2756   18.8538 C.3     1  UNL1        0.0611
      3 C           5.7086    1.4665   17.5483 C.3     1  UNL1        0.0175
      4 C           5.5235    0.2214   16.7326 C.3     1  UNL1        0.0175
      5 C           4.6955   -0.7390   17.5338 C.3     1  UNL1        0.0611
      6 C           3.8640   -1.4862   18.5484 C.3     1  UNL1        0.0595
      7 C           3.6190   -0.7105   19.8087 C.3     1  UNL1        0.1686
      8 C           4.1845    0.6704   19.9614 C.3     1  UNL1        0.0595
      9 C           3.5584   -0.6927   19.9525 C.3     1  UNL1        0.0720
     10 C           2.0679   -0.7978   19.8201 C.3     1  UNL1        0.0173
     11 C          -0.4569    2.9271   19.7951 C.3     1  UNL1        0.0730
     12 C           0.1448    2.4203   18.5180 C.3     1  UNL1        0.0196
     13 C           0.9863    1.1786   18.5264 C.3     1  UNL1        0.0017
     14 C           1.2263    0.4438   19.8118 C.3     1  UNL1        0.0015
     15 C           0.6247    0.9507   21.0890 C.3     1  UNL1        0.0017
     16 C          -0.2169    2.1923   21.0806 C.3     1  UNL1        0.0196
     17 C          -5.0322    5.2674   20.5628 C.3     1  UNL1        0.1165
     18 N          -3.5862    5.3389   20.1706 N.am    1  UNL1       -0.2607
     19 C          -2.9817    6.6520   19.7700 C.3     1  UNL1        0.1165
     20 C          -2.7445    4.0973   20.1789 C.2     1  UNL1        0.3040
     21 O          -3.3489    2.7842   20.5795 O.2     1  UNL1       -0.2526
     22 N          -1.2984    4.1688   19.7867 N.am    1  UNL1       -0.2904
     23 H          -0.9017    5.0306   19.5238 H       1  UNL1        0.1509
     24 O           2.8084   -1.3158   20.9164 O.3     1  UNL1       -0.4791
     25 C           3.4250   -1.5281   22.2672 C.ar    1  UNL1        0.1385
     26 C           3.0322   -0.6491   23.4175 C.ar    1  UNL1        0.0369
     27 C           3.6488   -0.8614   24.7682 C.ar    1  UNL1        0.0033
     28 C           4.6581   -1.9527   24.9688 C.ar    1  UNL1        0.0047
     29 C           5.0509   -2.8317   23.8186 C.ar    1  UNL1        0.0561
     30 C           4.4343   -2.6194   22.4677 C.ar    1  UNL1        0.0414
     31 C           6.0602   -3.9230   24.0192 C.2     1  UNL1        0.2428
     32 N           6.3984   -4.3864   25.4052 N.am    1  UNL1       -0.3253
     33 O           6.8998   -4.7495   23.0907 O.2     1  UNL1       -0.2704
     34 H           5.9578   -3.9743   26.1832 H       1  UNL1        0.1453
     35 H           7.0608   -5.1027   25.5369 H       1  UNL1        0.1453
@<TRIPOS>BOND
     1    17    18    1
     2    18    19    1
     3    18    20   am
     4    20    21    2
     5    20    22   am
     6    11    22    1
     7    11    12    1
     8    12    13    1
     9    13    14    1
    10    14    10    1
    11    10     9    1
    12     9     1    1
    13     1     2    1
    14     2     3    1
    15     3     4    1
    16     5     4    1
    17     5     6    1
    18     6     7    1
    19     7    24    1
    20    24    25    1
    21    25    26   ar
    22    26    27   ar
    23    27    28   ar
    24    28    29   ar
    25    29    31    1
    26    31    32   am
    27    31    33    2
    28    29    30   ar
    29     7     8    1
    30    14    15    1
    31    15    16    1
    32    16    11    1
    33     5     1    1
    34    30    25   ar
    35     8     2    1
    36    22    23    1
    37    32    34    1
    38    32    35    1
@<TRIPOS>MOLECULE
*****
 35 38 0 0 0
SMALL
GASTEIGER

@<TRIPOS>ATOM
      1 N           5.6816   -3.4836   20.5719 N.3     1  UNL1       -0.2750
      2 C           4.2819   -4.0062   20.4389 C.3     1  UNL1        0.0611
      3 C           3.8442   -3.8029   19.0186 C.3     1  UNL1        0.0175
      4 C           4.9733   -3.1547   18.2739 C.3     1  UNL1        0.0175
      5 C           6.1090   -2.9573   19.2338 C.3     1  UNL1        0.0611
      6 C           7.0648   -2.8865   20.4002 C.3     1  UNL1        0.0595
      7 C           6.5005   -3.4495   21.6709 C.3     1  UNL1        0.1686
      8 C           5.1090   -4.0093   21.6902 C.3     1  UNL1        0.0595
      9 C           6.5087   -3.4867   21.8232 C.3     1  UNL1        0.0720
     10 C           6.6690   -2.2256   22.6195 C.3     1  UNL1        0.0173
     11 C           3.0843   -0.3188   24.5595 C.3     1  UNL1        0.0730
     12 C           3.4660    0.0549   23.1579 C.3     1  UNL1        0.0196
     13 C           4.6609   -0.5807   22.5113 C.3     1  UNL1        0.0017
     14 C           5.4741   -1.5901   23.2662 C.3     1  UNL1        0.0015
     15 C           5.0923   -1.9638   24.6678 C.3     1  UNL1        0.0017
     16 C           3.8974   -1.3282   25.3145 C.3     1  UNL1        0.0196
     17 C           1.0584    3.2538   27.7426 C.3     1  UNL1        0.1165
     18 N           0.8765    2.1032   26.7977 N.am    1  UNL1       -0.2607
     19 C          -0.5004    1.5881   26.4995 C.3     1  UNL1        0.1165
     20 C           2.0713    1.4674   26.1510 C.2     1  UNL1        0.3040
     21 O           3.4482    1.9825   26.4493 O.2     1  UNL1       -0.2526
     22 N           1.8893    0.3168   25.2062 N.am    1  UNL1       -0.2904
     23 H           0.9857   -0.0213   25.0104 H       1  UNL1        0.1509
     24 O           7.3277   -3.4526   22.9222 O.3     1  UNL1       -0.4791
     25 C           7.6443   -4.7481   23.6088 C.ar    1  UNL1        0.1385
     26 C           8.3558   -5.8378   22.8630 C.ar    1  UNL1        0.0369
     27 C           8.6724   -7.1333   23.5495 C.ar    1  UNL1        0.0033
     28 C           8.2774   -7.3392   24.9818 C.ar    1  UNL1        0.0047
     29 C           7.5659   -6.2495   25.7276 C.ar    1  UNL1        0.0561
     30 C           7.2493   -4.9539   25.0411 C.ar    1  UNL1        0.0414
     31 C           7.1709   -6.4554   27.1600 C.2     1  UNL1        0.2428
     32 N           5.8577   -5.9295   27.6589 N.am    1  UNL1       -0.3253
     33 O           7.8233   -7.1207   28.3355 O.2     1  UNL1       -0.2704
     34 H           5.2550   -5.4492   27.0463 H       1  UNL1        0.1453
     35 H           5.5985   -6.0646   28.5990 H       1  UNL1        0.1453
@<TRIPOS>BOND
     1    17    18    1
     2    18    19    1
     3    18    20   am
     4    20    21    2
     5    20    22   am
     6    11    22    1
     7    11    12    1
     8    12    13    1
     9    13    14    1
    10    14    10    1
    11    10     9    1
    12     9     1    1
    13     1     2    1
    14     2     3    1
    15     3     4    1
    16     5     4    1
    17     5     6    1
    18     6     7    1
    19     7    24    1
    20    24    25    1
    21    25    26   ar
    22    26    27   ar
    23    27    28   ar
    24    28    29   ar
    25    29    31    1
    26    31    32   am
    27    31    33    2
    28    29    30   ar
    29     7     8    1
    30    14    15    1
    31    15    16    1
    32    16    11    1
    33     5     1    1
    34    30    25   ar
    35     8     2    1
    36    22    23    1
    37    32    34    1
    38    32    35    1
@<TRIPOS>MOLECULE
*****
 35 38 0 0 0
SMALL
GASTEIGER

@<TRIPOS>ATOM
      1 N           5.7150   -3.4267   20.5377 N.3     1  UNL1       -0.2750
      2 C           6.1121   -2.8827   19.1974 C.3     1  UNL1        0.0611
      3 C           4.9723   -3.1094   18.2490 C.3     1  UNL1        0.0175
      4 C           3.8708   -3.7935   19.0031 C.3     1  UNL1        0.0175
      5 C           4.3298   -3.9896   20.4177 C.3     1  UNL1        0.0611
      6 C           5.0448   -4.0515   21.7459 C.3     1  UNL1        0.0595
      7 C           6.4190   -3.4510   21.7139 C.3     1  UNL1        0.1686
      8 C           6.9526   -2.8666   20.4397 C.3     1  UNL1        0.0595
      9 C           6.5556   -3.4106   21.7800 C.3     1  UNL1        0.0720
     10 C           6.6939   -2.1465   22.5757 C.3     1  UNL1        0.0173
     11 C           3.0723   -0.2878   24.4938 C.3     1  UNL1        0.0730
     12 C           3.9205   -1.2515   25.2696 C.3     1  UNL1        0.0196
     13 C           5.1277   -1.8710   24.6302 C.3     1  UNL1        0.0017
     14 C           5.4867   -1.5270   23.2150 C.3     1  UNL1        0.0015
     15 C           4.6384   -0.5633   22.4392 C.3     1  UNL1        0.0017
     16 C           3.4312    0.0562   23.0786 C.3     1  UNL1        0.0196
     17 C           0.9731    3.3051   27.6058 C.3     1  UNL1        0.1165
     18 N           0.8155    2.1282   26.6892 N.am    1  UNL1       -0.2607
     19 C          -0.5493    1.5709   26.4121 C.3     1  UNL1        0.1165
     20 C           2.0226    1.5086   26.0498 C.2     1  UNL1        0.3040
     21 O           3.3874    2.0659   26.3269 O.2     1  UNL1       -0.2526
     22 N           1.8651    0.3317   25.1332 N.am    1  UNL1       -0.2904
     23 H           0.9693   -0.0341   24.9513 H       1  UNL1        0.1509
     24 O           7.2595   -3.4349   22.9562 O.3     1  UNL1       -0.4791
     25 C           7.5838   -4.7198   23.6590 C.ar    1  UNL1        0.1385
     26 C           8.2996   -5.8155   22.9262 C.ar    1  UNL1        0.0369
     27 C           8.6239   -7.1004   23.6289 C.ar    1  UNL1        0.0033
     28 C           8.2324   -7.2895   25.0645 C.ar    1  UNL1        0.0047
     29 C           7.5167   -6.1938   25.7973 C.ar    1  UNL1        0.0561
     30 C           7.1924   -4.9089   25.0946 C.ar    1  UNL1        0.0414
     31 C           7.1253   -6.3830   27.2330 C.2     1  UNL1        0.2428
     32 N           5.7827   -5.9162   27.7121 N.am    1  UNL1       -0.3253
     33 O           7.8060   -6.9807   28.4286 O.2     1  UNL1       -0.2704
     34 H           5.1584   -5.4857   27.0843 H       1  UNL1        0.1453
     35 H           5.5258   -6.0404   28.6543 H       1  UNL1        0.1453
@<TRIPOS>BOND
     1    17    18    1
     2    18    19    1
     3    18    20   am
     4    20    21    2
     5    20    22   am
     6    11    22    1
     7    11    12    1
     8    12    13    1
     9    13    14    1
    10    14    10    1
    11    10     9    1
    12     9     1    1
    13     1     2    1
    14     2     3    1
    15     3     4    1
    16     5     4    1
    17     5     6    1
    18     6     7    1
    19     7    24    1
    20    24    25    1
    21    25    26   ar
    22    26    27   ar
    23    27    28   ar
    24    28    29   ar
    25    29    31    1
    26    31    32   am
    27    31    33    2
    28    29    30   ar
    29     7     8    1
    30    14    15    1
    31    15    16    1
    32    16    11    1
    33     5     1    1
    34    30    25   ar
    35     8     2    1
    36    22    23    1
    37    32    34    1
    38    32    35    1
@<TRIPOS>MOLECULE
*****
 35 38 0 0 0
SMALL
GASTEIGER

@<TRIPOS>ATOM
      1 N           5.6769    0.5474   18.1983 N.3     1  UNL1       -0.2750
      2 C           6.1425    0.6609   16.7769 C.3     1  UNL1        0.0611
      3 C           6.8087    1.9947   16.6124 C.3     1  UNL1        0.0175
      4 C           6.7548    2.7056   17.9321 C.3     1  UNL1        0.0175
      5 C           6.0553    1.8112   18.9123 C.3     1  UNL1        0.0611
      6 C           5.3312    0.7208   19.6645 C.3     1  UNL1        0.0595
      7 C           5.0189   -0.4806   18.8225 C.3     1  UNL1        0.1686
      8 C           5.4245   -0.5106   17.3787 C.3     1  UNL1        0.0595
      9 C           4.9589   -0.6240   18.8001 C.3     1  UNL1        0.0720
     10 C           3.5554   -0.9417   18.3767 C.3     1  UNL1        0.0173
     11 C           0.1060    1.3792   20.0986 C.3     1  UNL1        0.0730
     12 C           0.4300    0.0137   20.6281 C.3     1  UNL1        0.0196
     13 C           1.5798   -0.7599   20.0541 C.3     1  UNL1        0.0017
     14 C           2.4057   -0.1681   18.9506 C.3     1  UNL1        0.0015
     15 C           2.0816    1.1975   18.4211 C.3     1  UNL1        0.0017
     16 C           0.9319    1.9712   18.9951 C.3     1  UNL1        0.0196
     17 C          -1.7810    4.6537   23.6647 C.3     1  UNL1        0.1165
     18 N          -1.9873    3.7901   22.4557 N.am    1  UNL1       -0.2607
     19 C          -3.3433    3.7001   21.8207 C.3     1  UNL1        0.1165
     20 C          -0.8375    3.0164   21.8816 C.2     1  UNL1        0.3040
     21 O           0.5185    3.1064   22.5166 O.2     1  UNL1       -0.2526
     22 N          -1.0438    2.1529   20.6726 N.am    1  UNL1       -0.2904
     23 H          -1.9337    2.0938   20.2559 H       1  UNL1        0.1509
     24 O           4.3009   -1.6521   19.4243 O.3     1  UNL1       -0.4791
     25 C           4.9282   -2.4180   20.5513 C.ar    1  UNL1        0.1385
     26 C           4.2745   -2.4360   21.9012 C.ar    1  UNL1        0.0369
     27 C           4.9017   -3.2018   23.0281 C.ar    1  UNL1        0.0033
     28 C           6.1827   -3.9496   22.8051 C.ar    1  UNL1        0.0047
     29 C           6.8364   -3.9316   21.4552 C.ar    1  UNL1        0.0561
     30 C           6.2091   -3.1658   20.3282 C.ar    1  UNL1        0.0414
     31 C           8.1174   -4.6795   21.2322 C.2     1  UNL1        0.2428
     32 N           9.2895   -3.9880   20.6012 N.am    1  UNL1       -0.3253
     33 O           8.5659   -6.0840   21.5088 O.2     1  UNL1       -0.2704
     34 H           9.2180   -3.0434   20.3334 H       1  UNL1        0.1453
     35 H          10.1303   -4.4789   20.4549 H       1  UNL1        0.1453
@<TRIPOS>BOND
     1    17    18    1
     2    18    19    1
     3    18    20   am
     4    20    21    2
     5    20    22   am
     6    11    22    1
     7    11    12    1
     8    12    13    1
     9    13    14    1
    10    14    10    1
    11    10     9    1
    12     9     1    1
    13     1     2    1
    14     2     3    1
    15     3     4    1
    16     5     4    1
    17     5     6    1
    18     6     7    1
    19     7    24    1
    20    24    25    1
    21    25    26   ar
    22    26    27   ar
    23    27    28   ar
    24    28    29   ar
    25    29    31    1
    26    31    32   am
    27    31    33    2
    28    29    30   ar
    29     7     8    1
    30    14    15    1
    31    15    16    1
    32    16    11    1
    33     5     1    1
    34    30    25   ar
    35     8     2    1
    36    22    23    1
    37    32    34    1
    38    32    35    1
@<TRIPOS>MOLECULE
*****
 35 38 0 0 0
SMALL
GASTEIGER

@<TRIPOS>ATOM
      1 N         -11.4823  -17.5904   22.7540 N.3     1  UNL1       -0.2750
      2 C         -12.6498  -18.3590   22.2098 C.3     1  UNL1        0.0611
      3 C         -13.4029  -17.4585   21.2760 C.3     1  UNL1        0.0175
      4 C         -12.7007  -16.1335   21.2430 C.3     1  UNL1        0.0175
      5 C         -11.5137  -16.2149   22.1565 C.3     1  UNL1        0.0611
      6 C         -10.4138  -16.5801   23.1239 C.3     1  UNL1        0.0595
      7 C         -10.5119  -17.9858   23.6380 C.3     1  UNL1        0.1686
      8 C         -11.6299  -18.8753   23.1810 C.3     1  UNL1        0.0595
      9 C         -10.4624  -18.1067   23.7252 C.3     1  UNL1        0.0720
     10 C          -9.6681  -19.3359   23.3961 C.3     1  UNL1        0.0173
     11 C          -5.8422  -18.9820   21.0536 C.3     1  UNL1        0.0730
     12 C          -6.9215  -17.9537   20.8870 C.3     1  UNL1        0.0196
     13 C          -8.1967  -18.0717   21.6678 C.3     1  UNL1        0.0017
     14 C          -8.3928  -19.2179   22.6153 C.3     1  UNL1        0.0015
     15 C          -7.3135  -20.2463   22.7819 C.3     1  UNL1        0.0017
     16 C          -6.0382  -20.1283   22.0011 C.3     1  UNL1        0.0196
     17 C          -1.0184  -17.1118   20.5702 C.3     1  UNL1        0.1165
     18 N          -2.1550  -17.9288   20.0312 N.am    1  UNL1       -0.2607
     19 C          -2.0162  -18.6279   18.7112 C.3     1  UNL1        0.1165
     20 C          -3.4303  -18.0469   20.8119 C.2     1  UNL1        0.3040
     21 O          -3.5690  -17.3479   22.1318 O.2     1  UNL1       -0.2526
     22 N          -4.5669  -18.8640   20.2728 N.am    1  UNL1       -0.2904
     23 H          -4.4758  -19.3228   19.4065 H       1  UNL1        0.1509
     24 O          -9.4919  -18.5021   24.6093 O.3     1  UNL1       -0.4791
     25 C          -8.7575  -17.5477   25.5037 C.ar    1  UNL1        0.1385
     26 C          -9.2195  -17.3361   26.9150 C.ar    1  UNL1        0.0369
     27 C          -8.4851  -16.3818   27.8093 C.ar    1  UNL1        0.0033
     28 C          -7.2888  -15.6391   27.2924 C.ar    1  UNL1        0.0047
     29 C          -6.8269  -15.8507   25.8811 C.ar    1  UNL1        0.0561
     30 C          -7.5613  -16.8051   24.9867 C.ar    1  UNL1        0.0414
     31 C          -5.6306  -15.1080   25.3642 C.2     1  UNL1        0.2428
     32 N          -5.1697  -15.3182   23.9523 N.am    1  UNL1       -0.3253
     33 O          -4.6855  -14.1089   25.9631 O.2     1  UNL1       -0.2704
     34 H          -5.6524  -15.9437   23.3649 H       1  UNL1        0.1453
     35 H          -4.3845  -14.8307   23.6130 H       1  UNL1        0.1453
@<TRIPOS>BOND
     1    17    18    1
     2    18    19    1
     3    18    20   am
     4    20    21    2
     5    20    22   am
     6    11    22    1
     7    11    12    1
     8    12    13    1
     9    13    14    1
    10    14    10    1
    11    10     9    1
    12     9     1    1
    13     1     2    1
    14     2     3    1
    15     3     4    1
    16     5     4    1
    17     5     6    1
    18     6     7    1
    19     7    24    1
    20    24    25    1
    21    25    26   ar
    22    26    27   ar
    23    27    28   ar
    24    28    29   ar
    25    29    31    1
    26    31    32   am
    27    31    33    2
    28    29    30   ar
    29     7     8    1
    30    14    15    1
    31    15    16    1
    32    16    11    1
    33     5     1    1
    34    30    25   ar
    35     8     2    1
    36    22    23    1
    37    32    34    1
    38    32    35    1
@<TRIPOS>MOLECULE
*****
 35 38 0 0 0
SMALL
GASTEIGER

@<TRIPOS>ATOM
      1 N          -8.5014  -16.6843   25.3650 N.3     1  UNL1       -0.2750
      2 C          -8.6362  -17.2240   26.7580 C.3     1  UNL1        0.0611
      3 C          -7.9608  -16.2658   27.6938 C.3     1  UNL1        0.0175
      4 C          -7.4086  -15.1338   26.8791 C.3     1  UNL1        0.0175
      5 C          -7.7427  -15.3924   25.4398 C.3     1  UNL1        0.0611
      6 C          -8.2105  -15.9031   24.0984 C.3     1  UNL1        0.0595
      7 C          -8.9541  -17.2033   24.1796 C.3     1  UNL1        0.1686
      8 C          -9.1669  -17.8638   25.5094 C.3     1  UNL1        0.0595
      9 C          -9.0322  -17.3240   24.1164 C.3     1  UNL1        0.0720
     10 C          -8.4061  -18.5832   23.5944 C.3     1  UNL1        0.0173
     11 C          -4.9079  -18.3546   20.7730 C.3     1  UNL1        0.0730
     12 C          -6.2379  -18.8432   20.2807 C.3     1  UNL1        0.0196
     13 C          -7.4039  -18.9194   21.2212 C.3     1  UNL1        0.0017
     14 C          -7.2401  -18.5070   22.6540 C.3     1  UNL1        0.0015
     15 C          -5.9100  -18.0183   23.1464 C.3     1  UNL1        0.0017
     16 C          -4.7440  -17.9421   22.2059 C.3     1  UNL1        0.0196
     17 C           0.1938  -17.7856   19.9673 C.3     1  UNL1        0.1165
     18 N          -1.1910  -17.9939   19.4297 N.am    1  UNL1       -0.2607
     19 C          -1.4097  -18.1259   17.9516 C.3     1  UNL1        0.1165
     20 C          -2.3571  -18.0701   20.3701 C.2     1  UNL1        0.3040
     21 O          -2.1384  -17.9381   21.8482 O.2     1  UNL1       -0.2526
     22 N          -3.7419  -18.2783   19.8325 N.am    1  UNL1       -0.2904
     23 H          -3.8855  -18.3650   18.8624 H       1  UNL1        0.1509
     24 O          -9.4849  -17.8431   22.9309 O.3     1  UNL1       -0.4791
     25 C         -10.9499  -17.7726   22.6166 C.ar    1  UNL1        0.1385
     26 C         -11.4047  -17.3383   21.2548 C.ar    1  UNL1        0.0369
     27 C         -12.8696  -17.2678   20.9404 C.ar    1  UNL1        0.0033
     28 C         -13.8798  -17.6316   21.9878 C.ar    1  UNL1        0.0047
     29 C         -13.4250  -18.0660   23.3496 C.ar    1  UNL1        0.0561
     30 C         -11.9600  -18.1364   23.6640 C.ar    1  UNL1        0.0414
     31 C         -14.4352  -18.4298   24.3971 C.2     1  UNL1        0.2428
     32 N         -14.0542  -18.4039   25.8476 N.am    1  UNL1       -0.3253
     33 O         -15.8731  -18.8552   24.3548 O.2     1  UNL1       -0.2704
     34 H         -13.1411  -18.1481   26.1123 H       1  UNL1        0.1453
     35 H         -14.7172  -18.6427   26.5351 H       1  UNL1        0.1453
@<TRIPOS>BOND
     1    17    18    1
     2    18    19    1
     3    18    20   am
     4    20    21    2
     5    20    22   am
     6    11    22    1
     7    11    12    1
     8    12    13    1
     9    13    14    1
    10    14    10    1
    11    10     9    1
    12     9     1    1
    13     1     2    1
    14     2     3    1
    15     3     4    1
    16     5     4    1
    17     5     6    1
    18     6     7    1
    19     7    24    1
    20    24    25    1
    21    25    26   ar
    22    26    27   ar
    23    27    28   ar
    24    28    29   ar
    25    29    31    1
    26    31    32   am
    27    31    33    2
    28    29    30   ar
    29     7     8    1
    30    14    15    1
    31    15    16    1
    32    16    11    1
    33     5     1    1
    34    30    25   ar
    35     8     2    1
    36    22    23    1
    37    32    34    1
    38    32    35    1
@<TRIPOS>MOLECULE
*****
 35 38 0 0 0
SMALL
GASTEIGER

@<TRIPOS>ATOM
      1 N           5.7953    0.0861   18.4921 N.3     1  UNL1       -0.2750
      2 C           6.3637   -0.0638   17.1121 C.3     1  UNL1        0.0611
      3 C           7.0957    1.2007   16.7724 C.3     1  UNL1        0.0175
      4 C           6.9797    2.1320   17.9426 C.3     1  UNL1        0.0175
      5 C           6.1761    1.4431   19.0054 C.3     1  UNL1        0.0611
      6 C           5.3556    0.5224   19.8761 C.3     1  UNL1        0.0595
      7 C           5.0523   -0.7976   19.2314 C.3     1  UNL1        0.1686
      8 C           5.5564   -1.0907   17.8494 C.3     1  UNL1        0.0595
      9 C           4.9880   -0.9409   19.2295 C.3     1  UNL1        0.0720
     10 C           3.5986   -1.2727   18.7718 C.3     1  UNL1        0.0173
     11 C           0.1394    1.3214   20.0185 C.3     1  UNL1        0.0730
     12 C           1.0624    1.7758   18.9269 C.3     1  UNL1        0.0196
     13 C           2.2154    0.9110   18.5113 C.3     1  UNL1        0.0017
     14 C           2.4456   -0.4081   19.1873 C.3     1  UNL1        0.0015
     15 C           1.5225   -0.8624   20.2790 C.3     1  UNL1        0.0017
     16 C           0.3695    0.0023   20.6945 C.3     1  UNL1        0.0196
     17 C          -1.9851    4.6908   23.3552 C.3     1  UNL1        0.1165
     18 N          -2.0759    3.8708   22.1024 N.am    1  UNL1       -0.2607
     19 C          -3.3197    3.9157   21.2652 C.3     1  UNL1        0.1165
     20 C          -0.9229    3.0061   21.6868 C.2     1  UNL1        0.3040
     21 O           0.3209    2.9612   22.5240 O.2     1  UNL1       -0.2526
     22 N          -1.0137    2.1861   20.4340 N.am    1  UNL1       -0.2904
     23 H          -1.8300    2.2155   19.8845 H       1  UNL1        0.1509
     24 O           4.2449   -1.8245   19.9688 O.3     1  UNL1       -0.4791
     25 C           4.7018   -2.3159   21.3104 C.ar    1  UNL1        0.1385
     26 C           5.6831   -3.4467   21.4007 C.ar    1  UNL1        0.0369
     27 C           6.1399   -3.9379   22.7423 C.ar    1  UNL1        0.0033
     28 C           5.6154   -3.2985   23.9936 C.ar    1  UNL1        0.0047
     29 C           4.6340   -2.1677   23.9033 C.ar    1  UNL1        0.0561
     30 C           4.1772   -1.6763   22.5617 C.ar    1  UNL1        0.0414
     31 C           4.1095   -1.5282   25.1547 C.2     1  UNL1        0.2428
     32 N           4.4893   -2.0820   26.4960 N.am    1  UNL1       -0.3253
     33 O           3.2117   -0.3583   25.4296 O.2     1  UNL1       -0.2704
     34 H           5.0829   -2.8652   26.5550 H       1  UNL1        0.1453
     35 H           4.1450   -1.6622   27.3173 H       1  UNL1        0.1453
@<TRIPOS>BOND
     1    17    18    1
     2    18    19    1
     3    18    20   am
     4    20    21    2
     5    20    22   am
     6    11    22    1
     7    11    12    1
     8    12    13    1
     9    13    14    1
    10    14    10    1
    11    10     9    1
    12     9     1    1
    13     1     2    1
    14     2     3    1
    15     3     4    1
    16     5     4    1
    17     5     6    1
    18     6     7    1
    19     7    24    1
    20    24    25    1
    21    25    26   ar
    22    26    27   ar
    23    27    28   ar
    24    28    29   ar
    25    29    31    1
    26    31    32   am
    27    31    33    2
    28    29    30   ar
    29     7     8    1
    30    14    15    1
    31    15    16    1
    32    16    11    1
    33     5     1    1
    34    30    25   ar
    35     8     2    1
    36    22    23    1
    37    32    34    1
    38    32    35    1
@<TRIPOS>MOLECULE
*****
 35 38 0 0 0
SMALL
GASTEIGER

@<TRIPOS>ATOM
      1 N           4.6246   -0.0855   18.7278 N.3     1  UNL1       -0.2750
      2 C           5.2406    1.2715   18.8989 C.3     1  UNL1        0.0611
      3 C           5.8925    1.6514   17.6025 C.3     1  UNL1        0.0175
      4 C           5.6794    0.5292   16.6302 C.3     1  UNL1        0.0175
      5 C           4.8958   -0.5442   17.3257 C.3     1  UNL1        0.0611
      6 C           4.1168   -1.4362   18.2620 C.3     1  UNL1        0.0595
      7 C           3.9240   -0.8464   19.6277 C.3     1  UNL1        0.1686
      8 C           4.4859    0.5074   19.9461 C.3     1  UNL1        0.0595
      9 C           3.8698   -0.8495   19.7751 C.3     1  UNL1        0.0720
     10 C           2.3744   -0.9422   19.7040 C.3     1  UNL1        0.0173
     11 C          -0.1222    2.7979   19.8720 C.3     1  UNL1        0.0730
     12 C           0.2268    2.0717   21.1372 C.3     1  UNL1        0.0196
     13 C           1.0590    0.8250   21.0812 C.3     1  UNL1        0.0017
     14 C           1.5422    0.3044   19.7600 C.3     1  UNL1        0.0015
     15 C           1.1931    1.0307   18.4947 C.3     1  UNL1        0.0017
     16 C           0.3609    2.2774   18.5508 C.3     1  UNL1        0.0196
     17 C          -4.6715    5.1340   20.7925 C.3     1  UNL1        0.1165
     18 N          -3.2291    5.2126   20.3883 N.am    1  UNL1       -0.2607
     19 C          -2.6190    6.5380   20.0403 C.3     1  UNL1        0.1165
     20 C          -2.3968    3.9660   20.3322 C.2     1  UNL1        0.3040
     21 O          -3.0070    2.6406   20.6803 O.2     1  UNL1       -0.2526
     22 N          -0.9544    4.0446   19.9281 N.am    1  UNL1       -0.2904
     23 H          -0.5540    4.9145   19.6996 H       1  UNL1        0.1509
     24 O           3.1692   -1.6105   20.6749 O.3     1  UNL1       -0.4791
     25 C           3.8515   -2.0095   21.9498 C.ar    1  UNL1        0.1385
     26 C           4.8278   -3.1482   21.9534 C.ar    1  UNL1        0.0369
     27 C           5.5101   -3.5471   23.2282 C.ar    1  UNL1        0.0033
     28 C           5.2160   -2.8074   24.4995 C.ar    1  UNL1        0.0047
     29 C           4.2397   -1.6687   24.4959 C.ar    1  UNL1        0.0561
     30 C           3.5574   -1.2697   23.2210 C.ar    1  UNL1        0.0414
     31 C           3.9456   -0.9289   25.7673 C.2     1  UNL1        0.2428
     32 N           3.4614   -1.6757   26.9747 N.am    1  UNL1       -0.3253
     33 O           4.0214    0.5125   26.1756 O.2     1  UNL1       -0.2704
     34 H           3.3366   -2.6514   26.9328 H       1  UNL1        0.1453
     35 H           3.2684   -1.1902   27.8091 H       1  UNL1        0.1453
@<TRIPOS>BOND
     1    17    18    1
     2    18    19    1
     3    18    20   am
     4    20    21    2
     5    20    22   am
     6    11    22    1
     7    11    12    1
     8    12    13    1
     9    13    14    1
    10    14    10    1
    11    10     9    1
    12     9     1    1
    13     1     2    1
    14     2     3    1
    15     3     4    1
    16     5     4    1
    17     5     6    1
    18     6     7    1
    19     7    24    1
    20    24    25    1
    21    25    26   ar
    22    26    27   ar
    23    27    28   ar
    24    28    29   ar
    25    29    31    1
    26    31    32   am
    27    31    33    2
    28    29    30   ar
    29     7     8    1
    30    14    15    1
    31    15    16    1
    32    16    11    1
    33     5     1    1
    34    30    25   ar
    35     8     2    1
    36    22    23    1
    37    32    34    1
    38    32    35    1
@<TRIPOS>MOLECULE
*****
 35 38 0 0 0
SMALL
GASTEIGER

@<TRIPOS>ATOM
      1 N           5.3693    0.9715   17.8759 N.3     1  UNL1       -0.2750
      2 C           5.9327    2.2019   18.5230 C.3     1  UNL1        0.0611
      3 C           6.9700    2.7756   17.6037 C.3     1  UNL1        0.0175
      4 C           7.0476    1.8997   16.3885 C.3     1  UNL1        0.0175
      5 C           6.0584    0.7847   16.5567 C.3     1  UNL1        0.0611
      6 C           5.0018   -0.2028   16.9899 C.3     1  UNL1        0.0595
      7 C           4.4018    0.1119   18.3282 C.3     1  UNL1        0.1686
      8 C           4.8673    1.3143   19.0947 C.3     1  UNL1        0.0595
      9 C           4.3039    0.0839   18.4477 C.3     1  UNL1        0.0720
     10 C           2.8973    0.1741   17.9343 C.3     1  UNL1        0.0173
     11 C          -0.2879    2.1390   20.4331 C.3     1  UNL1        0.0730
     12 C          -0.0868    0.6543   20.5062 C.3     1  UNL1        0.0196
     13 C           0.9749   -0.0006   19.6733 C.3     1  UNL1        0.0017
     14 C           1.8356    0.8290   18.7672 C.3     1  UNL1        0.0015
     15 C           1.6344    2.3137   18.6941 C.3     1  UNL1        0.0017
     16 C           0.5727    2.9687   19.5270 C.3     1  UNL1        0.0196
     17 C          -4.6995    4.8636   20.7709 C.3     1  UNL1        0.1165
     18 N          -3.5555    4.1562   21.4349 N.am    1  UNL1       -0.2607
     19 C          -3.4733    4.1038   22.9317 C.3     1  UNL1        0.1165
     20 C          -2.4937    3.5012   20.6020 C.2     1  UNL1        0.3040
     21 O          -2.5760    3.5537   19.1052 O.2     1  UNL1       -0.2526
     22 N          -1.3497    2.7939   21.2660 N.am    1  UNL1       -0.2904
     23 H          -1.2957    2.7595   22.2484 H       1  UNL1        0.1509
     24 O           3.3364   -0.7759   18.8999 O.3     1  UNL1       -0.4791
     25 C           3.7114   -1.9047   19.8138 C.ar    1  UNL1        0.1385
     26 C           3.8395   -3.2975   19.2718 C.ar    1  UNL1        0.0369
     27 C           4.2146   -4.4263   20.1856 C.ar    1  UNL1        0.0033
     28 C           4.4615   -4.1623   21.6414 C.ar    1  UNL1        0.0047
     29 C           4.3333   -2.7696   22.1833 C.ar    1  UNL1        0.0561
     30 C           3.9583   -1.6407   21.2695 C.ar    1  UNL1        0.0414
     31 C           4.5802   -2.5056   23.6391 C.2     1  UNL1        0.2428
     32 N           5.5700   -3.3413   24.3956 N.am    1  UNL1       -0.3253
     33 O           4.0322   -1.5186   24.6268 O.2     1  UNL1       -0.2704
     34 H           6.0575   -4.0630   23.9365 H       1  UNL1        0.1453
     35 H           5.7320   -3.1680   25.3511 H       1  UNL1        0.1453
@<TRIPOS>BOND
     1    17    18    1
     2    18    19    1
     3    18    20   am
     4    20    21    2
     5    20    22   am
     6    11    22    1
     7    11    12    1
     8    12    13    1
     9    13    14    1
    10    14    10    1
    11    10     9    1
    12     9     1    1
    13     1     2    1
    14     2     3    1
    15     3     4    1
    16     5     4    1
    17     5     6    1
    18     6     7    1
    19     7    24    1
    20    24    25    1
    21    25    26   ar
    22    26    27   ar
    23    27    28   ar
    24    28    29   ar
    25    29    31    1
    26    31    32   am
    27    31    33    2
    28    29    30   ar
    29     7     8    1
    30    14    15    1
    31    15    16    1
    32    16    11    1
    33     5     1    1
    34    30    25   ar
    35     8     2    1
    36    22    23    1
    37    32    34    1
    38    32    35    1
