@<TRIPOS>MOLECULE
*****
 26 28 0 0 0
SMALL
GASTEIGER

@<TRIPOS>ATOM
      1 C          -7.0653  -15.1627   27.9874 C.3     1  UNL1        0.0522
      2 C          -7.2434  -15.4412   26.5243 C.ar    1  UNL1        0.0625
      3 C          -8.6222  -15.5495   25.9438 C.ar    1  UNL1        0.0522
      4 C          -8.8003  -15.8279   24.4807 C.ar    1  UNL1        0.1482
      5 C          -7.5995  -15.9980   23.5980 C.ar    1  UNL1        0.0612
      6 C          -6.2207  -15.8897   24.1785 C.ar    1  UNL1        0.1374
      7 N          -6.0426  -15.6113   25.6416 N.ar    1  UNL1       -0.2449
      8 C          -5.0198  -16.0598   23.2958 C.2     1  UNL1        0.2684
      9 O          -4.3106  -14.8543   22.7538 O.2     1  UNL1       -0.2681
     10 N          -4.5282  -17.4354   22.9552 N.am    1  UNL1       -0.2646
     11 H          -4.9937  -18.2266   23.3109 H       1  UNL1        0.1566
     12 C          -3.3273  -17.6055   22.0725 C.ar    1  UNL1        0.1346
     13 C          -3.0086  -18.9509   21.4908 C.ar    1  UNL1        0.0368
     14 C          -1.8078  -19.1209   20.6082 C.ar    1  UNL1        0.0341
     15 C          -0.9257  -17.9457   20.3073 C.ar    1  UNL1        0.1593
     16 F           0.2752  -18.1158   19.4246 F       1  UNL1       -0.2025
     17 C          -1.2443  -16.6003   20.8890 C.ar    1  UNL1        0.1298
     18 N          -2.4452  -16.4302   21.7716 N.ar    1  UNL1       -0.2267
     19 O         -10.1792  -15.9362   23.9002 O.3     1  UNL1       -0.4518
     20 C         -10.4002  -16.7031   22.6302 C.ar    1  UNL1        0.1652
     21 C         -10.4312  -15.9826   21.3148 C.ar    1  UNL1        0.1363
     22 N         -10.6522  -16.7495   20.0447 N.ar    1  UNL1       -0.2382
     23 C         -10.8422  -18.2368   20.0900 C.ar    1  UNL1        0.1104
     24 C         -10.8112  -18.9571   21.4054 C.ar    1  UNL1        0.0798
     25 CL        -11.0012  -20.4444   21.4507 Cl      1  UNL1       -0.0805
     26 C         -10.5902  -18.1903   22.6754 C.ar    1  UNL1        0.0521
@<TRIPOS>BOND
     1     1     2    1
     2     2     3   ar
     3     3     4   ar
     4     4    19    1
     5    19    20    1
     6    20    21   ar
     7    21    22   ar
     8    22    23   ar
     9    23    24   ar
    10    24    25    1
    11    24    26   ar
    12     4     5   ar
    13     5     6   ar
    14     6     8    1
    15     8     9    2
    16     8    10   am
    17    10    12    1
    18    12    13   ar
    19    13    14   ar
    20    14    15   ar
    21    15    16    1
    22    15    17   ar
    23    17    18   ar
    24     6     7   ar
    25     7     2   ar
    26    26    20   ar
    27    18    12   ar
    28    10    11    1
@<TRIPOS>MOLECULE
*****
 26 28 0 0 0
SMALL
GASTEIGER

@<TRIPOS>ATOM
      1 C          -6.8140  -14.8895   27.3976 C.3     1  UNL1        0.0522
      2 C          -7.1740  -15.5118   26.0812 C.ar    1  UNL1        0.0625
      3 C          -8.6136  -15.6330   25.6776 C.ar    1  UNL1        0.0522
      4 C          -8.9737  -16.2553   24.3612 C.ar    1  UNL1        0.1482
      5 C          -7.8942  -16.7566   23.4483 C.ar    1  UNL1        0.0612
      6 C          -6.4546  -16.6354   23.8519 C.ar    1  UNL1        0.1374
      7 N          -6.0945  -16.0131   25.1683 N.ar    1  UNL1       -0.2449
      8 C          -5.3750  -17.1367   22.9390 C.2     1  UNL1        0.2684
      9 O          -5.7133  -18.0855   21.8275 O.2     1  UNL1       -0.2681
     10 N          -3.9572  -16.6891   23.1376 N.am    1  UNL1       -0.2646
     11 H          -3.7352  -16.0664   23.8671 H       1  UNL1        0.1566
     12 C          -2.8776  -17.1904   22.2247 C.ar    1  UNL1        0.1346
     13 C          -1.9839  -16.2171   21.5148 C.ar    1  UNL1        0.0368
     14 C          -0.9044  -16.7184   20.6020 C.ar    1  UNL1        0.0341
     15 C          -0.7186  -18.1929   20.3990 C.ar    1  UNL1        0.1593
     16 F           0.3610  -18.6942   19.4861 F       1  UNL1       -0.2025
     17 C          -1.6123  -19.1662   21.1089 C.ar    1  UNL1        0.1298
     18 N          -2.6918  -18.6649   22.0217 N.ar    1  UNL1       -0.2267
     19 O         -10.4134  -16.3765   23.9577 O.3     1  UNL1       -0.4518
     20 C         -10.7695  -16.8959   22.5963 C.ar    1  UNL1        0.1652
     21 C         -10.8592  -18.3741   22.3574 C.ar    1  UNL1        0.1363
     22 N         -11.2153  -18.8935   20.9960 N.ar    1  UNL1       -0.2382
     23 C         -11.4818  -17.9347   19.8735 C.ar    1  UNL1        0.1104
     24 C         -11.3921  -16.4566   20.1125 C.ar    1  UNL1        0.0798
     25 CL        -11.6585  -15.4978   18.9900 Cl      1  UNL1       -0.0805
     26 C         -11.0359  -15.9372   21.4739 C.ar    1  UNL1        0.0521
@<TRIPOS>BOND
     1     1     2    1
     2     2     3   ar
     3     3     4   ar
     4     4    19    1
     5    19    20    1
     6    20    21   ar
     7    21    22   ar
     8    22    23   ar
     9    23    24   ar
    10    24    25    1
    11    24    26   ar
    12     4     5   ar
    13     5     6   ar
    14     6     8    1
    15     8     9    2
    16     8    10   am
    17    10    12    1
    18    12    13   ar
    19    13    14   ar
    20    14    15   ar
    21    15    16    1
    22    15    17   ar
    23    17    18   ar
    24     6     7   ar
    25     7     2   ar
    26    26    20   ar
    27    18    12   ar
    28    10    11    1
@<TRIPOS>MOLECULE
*****
 26 28 0 0 0
SMALL
GASTEIGER

@<TRIPOS>ATOM
      1 C         -10.6744  -19.1017   19.3644 C.3     1  UNL1        0.0522
      2 C          -9.3435  -18.9394   20.0371 C.ar    1  UNL1        0.0625
      3 C          -8.1730  -19.7656   19.5931 C.ar    1  UNL1        0.0522
      4 C          -6.8422  -19.6033   20.2658 C.ar    1  UNL1        0.1482
      5 C          -6.6818  -18.6147   21.3824 C.ar    1  UNL1        0.0612
      6 C          -7.8523  -17.7884   21.8264 C.ar    1  UNL1        0.1374
      7 N          -9.1832  -17.9508   21.1537 N.ar    1  UNL1       -0.2449
      8 C          -7.6920  -16.7997   22.9430 C.2     1  UNL1        0.2684
      9 O          -7.6551  -15.3303   22.6442 O.2     1  UNL1       -0.2681
     10 N          -7.5686  -17.2805   24.3585 N.am    1  UNL1       -0.2646
     11 H          -7.5928  -18.2450   24.5546 H       1  UNL1        0.1566
     12 C          -7.4083  -16.2919   25.4752 C.ar    1  UNL1        0.1346
     13 C          -8.5562  -16.0112   26.3990 C.ar    1  UNL1        0.0368
     14 C          -8.3958  -15.0226   27.5156 C.ar    1  UNL1        0.0341
     15 C          -7.0876  -14.3146   27.7084 C.ar    1  UNL1        0.1593
     16 F          -6.9272  -13.3259   28.8251 F       1  UNL1       -0.2025
     17 C          -5.9396  -14.5952   26.7846 C.ar    1  UNL1        0.1298
     18 N          -6.1000  -15.5839   25.6680 N.ar    1  UNL1       -0.2267
     19 O          -5.6716  -20.4296   19.8218 O.3     1  UNL1       -0.4518
     20 C          -4.2750  -19.9205   20.0223 C.ar    1  UNL1        0.1652
     21 C          -3.4701  -20.3828   21.2007 C.ar    1  UNL1        0.1363
     22 N          -2.0735  -19.8736   21.4012 N.ar    1  UNL1       -0.2382
     23 C          -1.4818  -18.9021   20.4233 C.ar    1  UNL1        0.1104
     24 C          -2.2866  -18.4399   19.2450 C.ar    1  UNL1        0.0798
     25 CL         -1.6949  -17.4684   18.2671 Cl      1  UNL1       -0.0805
     26 C          -3.6833  -18.9490   19.0445 C.ar    1  UNL1        0.0521
@<TRIPOS>BOND
     1     1     2    1
     2     2     3   ar
     3     3     4   ar
     4     4    19    1
     5    19    20    1
     6    20    21   ar
     7    21    22   ar
     8    22    23   ar
     9    23    24   ar
    10    24    25    1
    11    24    26   ar
    12     4     5   ar
    13     5     6   ar
    14     6     8    1
    15     8     9    2
    16     8    10   am
    17    10    12    1
    18    12    13   ar
    19    13    14   ar
    20    14    15   ar
    21    15    16    1
    22    15    17   ar
    23    17    18   ar
    24     6     7   ar
    25     7     2   ar
    26    26    20   ar
    27    18    12   ar
    28    10    11    1
@<TRIPOS>MOLECULE
*****
 26 28 0 0 0
SMALL
GASTEIGER

@<TRIPOS>ATOM
      1 C          -4.7263  -15.2561   24.3879 C.3     1  UNL1        0.0522
      2 C          -5.2567  -16.4835   23.7081 C.ar    1  UNL1        0.0625
      3 C          -4.3187  -17.4073   22.9893 C.ar    1  UNL1        0.0522
      4 C          -4.8492  -18.6347   22.3095 C.ar    1  UNL1        0.1482
      5 C          -6.3176  -18.9382   22.3484 C.ar    1  UNL1        0.0612
      6 C          -7.2556  -18.0144   23.0672 C.ar    1  UNL1        0.1374
      7 N          -6.7251  -16.7870   23.7470 N.ar    1  UNL1       -0.2449
      8 C          -8.7241  -18.3180   23.1062 C.2     1  UNL1        0.2684
      9 O          -9.2473  -19.5738   22.4744 O.2     1  UNL1       -0.2681
     10 N          -9.6692  -17.3658   23.7769 N.am    1  UNL1       -0.2646
     11 H          -9.3257  -16.5416   24.1916 H       1  UNL1        0.1566
     12 C         -11.1377  -17.6693   23.8159 C.ar    1  UNL1        0.1346
     13 C         -12.0510  -17.0910   22.7760 C.ar    1  UNL1        0.0368
     14 C         -13.5194  -17.3946   22.8150 C.ar    1  UNL1        0.0341
     15 C         -14.0745  -18.2764   23.8939 C.ar    1  UNL1        0.1593
     16 F         -15.5430  -18.5800   23.9329 F       1  UNL1       -0.2025
     17 C         -13.1613  -18.8547   24.9339 C.ar    1  UNL1        0.1298
     18 N         -11.6929  -18.5512   24.8949 N.ar    1  UNL1       -0.2267
     19 O          -3.9111  -19.5585   21.5907 O.3     1  UNL1       -0.4518
     20 C          -2.7994  -18.9970   20.7546 C.ar    1  UNL1        0.1652
     21 C          -1.3779  -19.1172   21.2184 C.ar    1  UNL1        0.1363
     22 N          -0.2663  -18.5557   20.3823 N.ar    1  UNL1       -0.2382
     23 C          -0.5762  -17.8739   19.0826 C.ar    1  UNL1        0.1104
     24 C          -1.9976  -17.7537   18.6189 C.ar    1  UNL1        0.0798
     25 CL         -2.3075  -17.0720   17.3192 Cl      1  UNL1       -0.0805
     26 C          -3.1092  -18.3153   19.4549 C.ar    1  UNL1        0.0521
@<TRIPOS>BOND
     1     1     2    1
     2     2     3   ar
     3     3     4   ar
     4     4    19    1
     5    19    20    1
     6    20    21   ar
     7    21    22   ar
     8    22    23   ar
     9    23    24   ar
    10    24    25    1
    11    24    26   ar
    12     4     5   ar
    13     5     6   ar
    14     6     8    1
    15     8     9    2
    16     8    10   am
    17    10    12    1
    18    12    13   ar
    19    13    14   ar
    20    14    15   ar
    21    15    16    1
    22    15    17   ar
    23    17    18   ar
    24     6     7   ar
    25     7     2   ar
    26    26    20   ar
    27    18    12   ar
    28    10    11    1
@<TRIPOS>MOLECULE
*****
 26 28 0 0 0
SMALL
GASTEIGER

@<TRIPOS>ATOM
      1 C          -6.4565  -14.9844   27.6610 C.3     1  UNL1        0.0522
      2 C          -6.2193  -15.5015   26.2730 C.ar    1  UNL1        0.0625
      3 C          -4.9190  -16.1673   25.9327 C.ar    1  UNL1        0.0522
      4 C          -4.6818  -16.6843   24.5448 C.ar    1  UNL1        0.1482
      5 C          -5.7449  -16.5356   23.4971 C.ar    1  UNL1        0.0612
      6 C          -7.0452  -15.8699   23.8374 C.ar    1  UNL1        0.1374
      7 N          -7.2824  -15.3528   25.2254 N.ar    1  UNL1       -0.2449
      8 C          -8.1084  -15.7211   22.7898 C.2     1  UNL1        0.2684
      9 O          -7.8288  -14.9339   21.5440 O.2     1  UNL1       -0.2681
     10 N          -9.4512  -16.3597   22.9879 N.am    1  UNL1       -0.2646
     11 H          -9.6346  -16.8764   23.8056 H       1  UNL1        0.1566
     12 C         -10.5144  -16.2109   21.9403 C.ar    1  UNL1        0.1346
     13 C         -11.9386  -16.5535   22.2631 C.ar    1  UNL1        0.0368
     14 C         -13.0017  -16.4047   21.2155 C.ar    1  UNL1        0.0341
     15 C         -12.6406  -15.9135   19.8450 C.ar    1  UNL1        0.1593
     16 F         -13.7038  -15.7647   18.7973 F       1  UNL1       -0.2025
     17 C         -11.2164  -15.5709   19.5221 C.ar    1  UNL1        0.1298
     18 N         -10.1533  -15.7197   20.5698 N.ar    1  UNL1       -0.2267
     19 O          -3.3813  -17.3501   24.2045 O.3     1  UNL1       -0.4518
     20 C          -3.0451  -17.6522   22.7742 C.ar    1  UNL1        0.1652
     21 C          -2.2482  -16.6701   21.9676 C.ar    1  UNL1        0.1363
     22 N          -1.9120  -16.9721   20.5373 N.ar    1  UNL1       -0.2382
     23 C          -2.3727  -18.2562   19.9136 C.ar    1  UNL1        0.1104
     24 C          -3.1695  -19.2382   20.7202 C.ar    1  UNL1        0.0798
     25 CL         -3.6302  -20.5223   20.0965 Cl      1  UNL1       -0.0805
     26 C          -3.5058  -18.9362   22.1505 C.ar    1  UNL1        0.0521
@<TRIPOS>BOND
     1     1     2    1
     2     2     3   ar
     3     3     4   ar
     4     4    19    1
     5    19    20    1
     6    20    21   ar
     7    21    22   ar
     8    22    23   ar
     9    23    24   ar
    10    24    25    1
    11    24    26   ar
    12     4     5   ar
    13     5     6   ar
    14     6     8    1
    15     8     9    2
    16     8    10   am
    17    10    12    1
    18    12    13   ar
    19    13    14   ar
    20    14    15   ar
    21    15    16    1
    22    15    17   ar
    23    17    18   ar
    24     6     7   ar
    25     7     2   ar
    26    26    20   ar
    27    18    12   ar
    28    10    11    1
@<TRIPOS>MOLECULE
*****
 26 28 0 0 0
SMALL
GASTEIGER

@<TRIPOS>ATOM
      1 C          -6.2547  -14.7766   27.6424 C.3     1  UNL1        0.0522
      2 C          -6.2907  -15.3074   26.2399 C.ar    1  UNL1        0.0625
      3 C          -5.0631  -15.2393   25.3805 C.ar    1  UNL1        0.0522
      4 C          -5.0991  -15.7701   23.9780 C.ar    1  UNL1        0.1482
      5 C          -6.3625  -16.3689   23.4349 C.ar    1  UNL1        0.0612
      6 C          -7.5900  -16.4370   24.2942 C.ar    1  UNL1        0.1374
      7 N          -7.5541  -15.9062   25.6967 N.ar    1  UNL1       -0.2449
      8 C          -8.8536  -17.0358   23.7511 C.2     1  UNL1        0.2684
      9 O          -8.9383  -18.5132   23.5058 O.2     1  UNL1       -0.2681
     10 N         -10.0323  -16.1573   23.4533 N.am    1  UNL1       -0.2646
     11 H          -9.9767  -15.1876   23.6143 H       1  UNL1        0.1566
     12 C         -11.2959  -16.7561   22.9101 C.ar    1  UNL1        0.1346
     13 C         -12.1999  -17.5442   23.8109 C.ar    1  UNL1        0.0368
     14 C         -13.4634  -18.1430   23.2678 C.ar    1  UNL1        0.0341
     15 C         -13.8228  -17.9537   21.8238 C.ar    1  UNL1        0.1593
     16 F         -15.0863  -18.5525   21.2807 F       1  UNL1       -0.2025
     17 C         -12.9187  -17.1655   20.9230 C.ar    1  UNL1        0.1298
     18 N         -11.6553  -16.5668   21.4662 N.ar    1  UNL1       -0.2267
     19 O          -3.8715  -15.7021   23.1187 O.3     1  UNL1       -0.4518
     20 C          -3.3098  -16.9540   22.5128 C.ar    1  UNL1        0.1652
     21 C          -3.8938  -18.2883   22.8717 C.ar    1  UNL1        0.1363
     22 N          -3.3321  -19.5403   22.2658 N.ar    1  UNL1       -0.2382
     23 C          -2.1864  -19.4579   21.3010 C.ar    1  UNL1        0.1104
     24 C          -1.6025  -18.1237   20.9422 C.ar    1  UNL1        0.0798
     25 CL         -0.4568  -18.0414   19.9774 Cl      1  UNL1       -0.0805
     26 C          -2.1642  -16.8717   21.5481 C.ar    1  UNL1        0.0521
@<TRIPOS>BOND
     1     1     2    1
     2     2     3   ar
     3     3     4   ar
     4     4    19    1
     5    19    20    1
     6    20    21   ar
     7    21    22   ar
     8    22    23   ar
     9    23    24   ar
    10    24    25    1
    11    24    26   ar
    12     4     5   ar
    13     5     6   ar
    14     6     8    1
    15     8     9    2
    16     8    10   am
    17    10    12    1
    18    12    13   ar
    19    13    14   ar
    20    14    15   ar
    21    15    16    1
    22    15    17   ar
    23    17    18   ar
    24     6     7   ar
    25     7     2   ar
    26    26    20   ar
    27    18    12   ar
    28    10    11    1
@<TRIPOS>MOLECULE
*****
 26 28 0 0 0
SMALL
GASTEIGER

@<TRIPOS>ATOM
      1 C           5.5891   -2.9234   32.8875 C.3     1  UNL1        0.0522
      2 C           4.9209   -1.6177   33.2014 C.ar    1  UNL1        0.0625
      3 C           5.2941   -0.8637   34.4433 C.ar    1  UNL1        0.0522
      4 C           4.6258    0.4420   34.7572 C.ar    1  UNL1        0.1482
      5 C           3.5844    0.9938   33.8293 C.ar    1  UNL1        0.0612
      6 C           3.2113    0.2397   32.5874 C.ar    1  UNL1        0.1374
      7 N           3.8795   -1.0660   32.2735 N.ar    1  UNL1       -0.2449
      8 C           2.1698    0.7914   31.6595 C.2     1  UNL1        0.2684
      9 O           1.1120    1.7165   32.1842 O.2     1  UNL1       -0.2681
     10 N           2.1862    0.4181   30.2068 N.am    1  UNL1       -0.2646
     11 H           2.8804   -0.1891   29.8624 H       1  UNL1        0.1566
     12 C           1.1447    0.9698   29.2788 C.ar    1  UNL1        0.1346
     13 C           1.4673    2.1433   28.4021 C.ar    1  UNL1        0.0368
     14 C           0.4259    2.6950   27.4742 C.ar    1  UNL1        0.0341
     15 C          -0.9381    2.0731   27.4230 C.ar    1  UNL1        0.1593
     16 F          -1.9796    2.6248   26.4950 F       1  UNL1       -0.2025
     17 C          -1.2607    0.8995   28.2996 C.ar    1  UNL1        0.1298
     18 N          -0.2193    0.3479   29.2276 N.ar    1  UNL1       -0.2267
     19 O           4.9990    1.1961   35.9991 O.3     1  UNL1       -0.4518
     20 C           3.9285    1.6935   36.9246 C.ar    1  UNL1        0.1652
     21 C           3.5932    3.1550   36.9668 C.ar    1  UNL1        0.1363
     22 N           2.5227    3.6524   37.8923 N.ar    1  UNL1       -0.2382
     23 C           1.7876    2.6883   38.7757 C.ar    1  UNL1        0.1104
     24 C           2.1230    1.2270   38.7335 C.ar    1  UNL1        0.0798
     25 CL          1.3878    0.2629   39.6169 Cl      1  UNL1       -0.0805
     26 C           3.1934    0.7295   37.8080 C.ar    1  UNL1        0.0521
@<TRIPOS>BOND
     1     1     2    1
     2     2     3   ar
     3     3     4   ar
     4     4    19    1
     5    19    20    1
     6    20    21   ar
     7    21    22   ar
     8    22    23   ar
     9    23    24   ar
    10    24    25    1
    11    24    26   ar
    12     4     5   ar
    13     5     6   ar
    14     6     8    1
    15     8     9    2
    16     8    10   am
    17    10    12    1
    18    12    13   ar
    19    13    14   ar
    20    14    15   ar
    21    15    16    1
    22    15    17   ar
    23    17    18   ar
    24     6     7   ar
    25     7     2   ar
    26    26    20   ar
    27    18    12   ar
    28    10    11    1
@<TRIPOS>MOLECULE
*****
 26 28 0 0 0
SMALL
GASTEIGER

@<TRIPOS>ATOM
      1 C          -4.8138  -14.8985   25.8412 C.3     1  UNL1        0.0522
      2 C          -5.1923  -15.9174   24.8074 C.ar    1  UNL1        0.0625
      3 C          -4.1587  -16.8649   24.2746 C.ar    1  UNL1        0.0522
      4 C          -4.5371  -17.8838   23.2409 C.ar    1  UNL1        0.1482
      5 C          -5.9492  -17.9551   22.7399 C.ar    1  UNL1        0.0612
      6 C          -6.9827  -17.0076   23.2726 C.ar    1  UNL1        0.1374
      7 N          -6.6043  -15.9887   24.3064 N.ar    1  UNL1       -0.2449
      8 C          -8.3949  -17.0789   22.7716 C.2     1  UNL1        0.2684
      9 O          -8.8109  -16.2644   21.5827 O.2     1  UNL1       -0.2681
     10 N          -9.3909  -17.9647   23.4595 N.am    1  UNL1       -0.2646
     11 H          -9.1178  -18.4993   24.2398 H       1  UNL1        0.1566
     12 C         -10.8030  -18.0361   22.9585 C.ar    1  UNL1        0.1346
     13 C         -11.9462  -17.9890   23.9284 C.ar    1  UNL1        0.0368
     14 C         -13.3582  -18.0603   23.4274 C.ar    1  UNL1        0.0341
     15 C         -13.6270  -18.1787   21.9565 C.ar    1  UNL1        0.1593
     16 F         -15.0391  -18.2501   21.4555 F       1  UNL1       -0.2025
     17 C         -12.4838  -18.2258   20.9865 C.ar    1  UNL1        0.1298
     18 N         -11.0718  -18.1545   21.4876 N.ar    1  UNL1       -0.2267
     19 O          -3.5035  -18.8313   22.7081 O.3     1  UNL1       -0.4518
     20 C          -2.8363  -18.5519   21.3941 C.ar    1  UNL1        0.1652
     21 C          -3.5758  -18.7926   20.1113 C.ar    1  UNL1        0.1363
     22 N          -2.9086  -18.5132   18.7972 N.ar    1  UNL1       -0.2382
     23 C          -1.5019  -17.9931   18.7659 C.ar    1  UNL1        0.1104
     24 C          -0.7625  -17.7525   20.0486 C.ar    1  UNL1        0.0798
     25 CL          0.6442  -17.2325   20.0172 Cl      1  UNL1       -0.0805
     26 C          -1.4297  -18.0319   21.3627 C.ar    1  UNL1        0.0521
@<TRIPOS>BOND
     1     1     2    1
     2     2     3   ar
     3     3     4   ar
     4     4    19    1
     5    19    20    1
     6    20    21   ar
     7    21    22   ar
     8    22    23   ar
     9    23    24   ar
    10    24    25    1
    11    24    26   ar
    12     4     5   ar
    13     5     6   ar
    14     6     8    1
    15     8     9    2
    16     8    10   am
    17    10    12    1
    18    12    13   ar
    19    13    14   ar
    20    14    15   ar
    21    15    16    1
    22    15    17   ar
    23    17    18   ar
    24     6     7   ar
    25     7     2   ar
    26    26    20   ar
    27    18    12   ar
    28    10    11    1
@<TRIPOS>MOLECULE
*****
 26 28 0 0 0
SMALL
GASTEIGER

@<TRIPOS>ATOM
      1 C          -2.7815    4.3628   21.8171 C.3     1  UNL1        0.0522
      2 C          -1.6475    3.5736   22.4012 C.ar    1  UNL1        0.0625
      3 C          -1.2140    3.8183   23.8162 C.ar    1  UNL1        0.0522
      4 C          -0.0799    3.0291   24.4003 C.ar    1  UNL1        0.1482
      5 C           0.6206    1.9954   23.5694 C.ar    1  UNL1        0.0612
      6 C           0.1872    1.7507   22.1545 C.ar    1  UNL1        0.1374
      7 N          -0.9469    2.5398   21.5704 N.ar    1  UNL1       -0.2449
      8 C           0.8878    0.7169   21.3235 C.2     1  UNL1        0.2684
      9 O           0.0894   -0.2681   20.5219 O.2     1  UNL1       -0.2681
     10 N           2.3867    0.6680   21.2942 N.am    1  UNL1       -0.2646
     11 H           2.9107    1.3144   21.8203 H       1  UNL1        0.1566
     12 C           3.0873   -0.3659   20.4632 C.ar    1  UNL1        0.1346
     13 C           3.4580   -1.6881   21.0669 C.ar    1  UNL1        0.0368
     14 C           4.1585   -2.7218   20.2359 C.ar    1  UNL1        0.0341
     15 C           4.4884   -2.4334   18.8014 C.ar    1  UNL1        0.1593
     16 F           5.1890   -3.4672   17.9704 F       1  UNL1       -0.2025
     17 C           4.1177   -1.1112   18.1977 C.ar    1  UNL1        0.1298
     18 N           3.4172   -0.0775   19.0287 N.ar    1  UNL1       -0.2267
     19 O           0.3535    3.2738   25.8154 O.3     1  UNL1       -0.4518
     20 C           0.4855    2.1235   26.7689 C.ar    1  UNL1        0.1652
     21 C           1.8355    1.5328   27.0492 C.ar    1  UNL1        0.1363
     22 N           1.9675    0.3824   28.0028 N.ar    1  UNL1       -0.2382
     23 C           0.7494   -0.1773   28.6759 C.ar    1  UNL1        0.1104
     24 C          -0.6005    0.4134   28.3956 C.ar    1  UNL1        0.0798
     25 CL         -1.8186   -0.1463   29.0688 Cl      1  UNL1       -0.0805
     26 C          -0.7325    1.5638   27.4421 C.ar    1  UNL1        0.0521
@<TRIPOS>BOND
     1     1     2    1
     2     2     3   ar
     3     3     4   ar
     4     4    19    1
     5    19    20    1
     6    20    21   ar
     7    21    22   ar
     8    22    23   ar
     9    23    24   ar
    10    24    25    1
    11    24    26   ar
    12     4     5   ar
    13     5     6   ar
    14     6     8    1
    15     8     9    2
    16     8    10   am
    17    10    12    1
    18    12    13   ar
    19    13    14   ar
    20    14    15   ar
    21    15    16    1
    22    15    17   ar
    23    17    18   ar
    24     6     7   ar
    25     7     2   ar
    26    26    20   ar
    27    18    12   ar
    28    10    11    1
