@<TRIPOS>MOLECULE
*****
 42 45 0 0 0
SMALL
GASTEIGER

@<TRIPOS>ATOM
      1 N           7.9524   -4.2231   26.3743 N.pl3   1  UNL1       -0.2973
      2 C           8.1433   -4.8589   25.0291 C.ar    1  UNL1        0.0826
      3 C           8.5680   -6.2942   24.9314 C.ar    1  UNL1        0.0176
      4 C           8.7588   -6.9299   23.5863 C.ar    1  UNL1        0.0015
      5 C           8.5249   -6.1304   22.3389 C.ar    1  UNL1        0.0031
      6 C           8.1001   -4.6951   22.4366 C.ar    1  UNL1        0.0353
      7 C           7.9093   -4.0594   23.7817 C.ar    1  UNL1        0.1517
      8 O           7.4845   -2.6241   23.8795 O.3     1  UNL1       -0.4721
      9 C           7.2937   -1.9883   25.2246 C.3     1  UNL1        0.2295
     10 C           7.5277   -2.7879   26.4720 C.3     1  UNL1        0.1397
     11 C           7.8661   -3.8956   21.1892 C.ar    1  UNL1        0.0060
     12 C           8.9984   -3.1398   20.5594 C.ar    1  UNL1        0.0003
     13 C           8.7644   -2.3403   19.3119 C.ar    1  UNL1        0.0031
     14 C           7.3982   -2.2966   18.6943 C.ar    1  UNL1        0.0372
     15 C           6.2659   -3.0524   19.3242 C.ar    1  UNL1        0.1468
     16 C           6.4999   -3.8519   20.5716 C.ar    1  UNL1        0.0373
     17 O           4.8996   -3.0087   18.7066 O.3     1  UNL1       -0.4045
     18 C           3.8843   -4.0557   19.0572 C.3     1  UNL1        0.5753
     19 F           2.8689   -5.1027   19.4078 F       1  UNL1       -0.1328
     20 F           4.6469   -5.0651   18.2513 F       1  UNL1       -0.1328
     21 F           3.1217   -3.0463   19.8631 F       1  UNL1       -0.1328
     22 C           7.3368   -2.1520   27.8172 C.ar    1  UNL1        0.0023
     23 C           8.5252   -1.6639   28.5913 C.ar    1  UNL1       -0.0024
     24 C           8.3343   -1.0281   29.9364 C.ar    1  UNL1        0.0028
     25 C           6.9551   -0.8805   30.5073 C.ar    1  UNL1        0.0371
     26 C           5.7667   -1.3687   29.7332 C.ar    1  UNL1        0.1439
     27 C           5.9576   -2.0044   28.3881 C.ar    1  UNL1        0.0345
     28 O           4.3875   -1.2211   30.3041 O.3     1  UNL1       -0.4263
     29 C           4.2039   -1.0198   31.7791 C.3     1  UNL1        0.4723
     30 F           4.5355   -2.4632   32.0173 F       1  UNL1       -0.1579
     31 F           3.8724    0.4235   31.5409 F       1  UNL1       -0.1579
     32 C           4.0204   -0.8186   33.2542 C.3     1  UNL1        0.4202
     33 F           4.3290   -1.9348   34.2075 F       1  UNL1       -0.1876
     34 F           3.5281    0.4987   33.7759 F       1  UNL1       -0.1876
     35 C           8.1864   -5.0226   27.6217 C.3     1  UNL1        0.1294
     36 O           5.6815   -5.6952   27.7736 O.3     1  UNL1       -0.3756
     37 C           7.0203   -5.5164   28.4258 C.3     1  UNL1        0.2260
     38 H           5.7425   -5.4490   26.8373 H       1  UNL1        0.2107
     39 C           7.1932   -5.8313   29.8821 C.3     1  UNL1        0.4235
     40 F           7.3660   -6.1463   31.3385 F       1  UNL1       -0.1674
     41 F           6.3315   -4.6564   30.2385 F       1  UNL1       -0.1674
     42 F           8.0549   -7.0063   29.5258 F       1  UNL1       -0.1674
@<TRIPOS>BOND
     1    37    36    1
     2    37    35    1
     3    35     1    1
     4     1     2    1
     5     2     3   ar
     6     3     4   ar
     7     4     5   ar
     8     5     6   ar
     9     6    11    1
    10    11    12   ar
    11    12    13   ar
    12    13    14   ar
    13    14    15   ar
    14    15    17    1
    15    17    18    1
    16    18    19    1
    17    18    20    1
    18    18    21    1
    19    15    16   ar
    20     6     7   ar
    21     7     8    1
    22     8     9    1
    23     9    10    1
    24    10    22    1
    25    22    23   ar
    26    23    24   ar
    27    24    25   ar
    28    25    26   ar
    29    26    28    1
    30    28    29    1
    31    29    30    1
    32    29    31    1
    33    29    32    1
    34    32    33    1
    35    32    34    1
    36    26    27   ar
    37    37    39    1
    38    39    40    1
    39    39    41    1
    40    39    42    1
    41    10     1    1
    42    27    22   ar
    43     7     2   ar
    44    16    11   ar
    45    36    38    1
@<TRIPOS>MOLECULE
*****
 42 45 0 0 0
SMALL
GASTEIGER

@<TRIPOS>ATOM
      1 N           0.9973    1.8028   26.8261 N.pl3   1  UNL1       -0.2973
      2 C           2.0093    0.7958   26.3657 C.ar    1  UNL1        0.0826
      3 C           2.9394    0.1605   27.3562 C.ar    1  UNL1        0.0176
      4 C           3.9514   -0.8464   26.8958 C.ar    1  UNL1        0.0015
      5 C           4.0332   -1.2181   25.4449 C.ar    1  UNL1        0.0031
      6 C           3.1031   -0.5827   24.4544 C.ar    1  UNL1        0.0353
      7 C           2.0911    0.4242   24.9148 C.ar    1  UNL1        0.1517
      8 O           1.1609    1.0596   23.9242 O.3     1  UNL1       -0.4721
      9 C           0.1490    2.0665   24.3846 C.3     1  UNL1        0.2295
     10 C           0.0672    2.4382   25.8355 C.3     1  UNL1        0.1397
     11 C           3.1849   -0.9544   23.0034 C.ar    1  UNL1        0.0060
     12 C           2.3498   -0.2241   21.9939 C.ar    1  UNL1        0.0003
     13 C           2.4316   -0.5957   20.5430 C.ar    1  UNL1        0.0031
     14 C           3.3485   -1.6976   20.1016 C.ar    1  UNL1        0.0372
     15 C           4.1836   -2.4279   21.1111 C.ar    1  UNL1        0.1468
     16 C           4.1018   -2.0563   22.5620 C.ar    1  UNL1        0.0373
     17 O           5.1006   -3.5300   20.6697 O.3     1  UNL1       -0.4045
     18 C           4.7593   -4.3510   19.4616 C.3     1  UNL1        0.5753
     19 F           4.4180   -5.1720   18.2536 F       1  UNL1       -0.1328
     20 F           5.8070   -3.6242   18.6717 F       1  UNL1       -0.1328
     21 F           3.7116   -5.0778   20.2516 F       1  UNL1       -0.1328
     22 C          -0.9448    3.4452   26.2959 C.ar    1  UNL1        0.0023
     23 C          -0.4921    4.7376   26.9078 C.ar    1  UNL1       -0.0024
     24 C          -1.5040    5.7446   27.3681 C.ar    1  UNL1        0.0028
     25 C          -2.9688    5.4590   27.2166 C.ar    1  UNL1        0.0371
     26 C          -3.4215    4.1665   26.6047 C.ar    1  UNL1        0.1439
     27 C          -2.4096    3.1596   26.1443 C.ar    1  UNL1        0.0345
     28 O          -4.8863    3.8810   26.4531 O.3     1  UNL1       -0.4263
     29 C          -5.6177    4.3434   25.2279 C.3     1  UNL1        0.4723
     30 F          -5.1421    3.1297   24.4859 F       1  UNL1       -0.1579
     31 F          -6.0933    5.5571   25.9700 F       1  UNL1       -0.1579
     32 C          -6.3492    4.8059   24.0027 C.3     1  UNL1        0.4202
     33 F          -6.9731    3.8027   23.0783 F       1  UNL1       -0.1876
     34 F          -6.4567    6.2714   23.7018 F       1  UNL1       -0.1876
     35 C           0.9155    2.1745   28.2770 C.3     1  UNL1        0.1294
     36 O           0.1256    1.6353   30.6927 O.3     1  UNL1       -0.3756
     37 C           0.1217    1.3252   29.2251 C.3     1  UNL1        0.2260
     38 H           0.6866    2.4092   30.8582 H       1  UNL1        0.2107
     39 C          -0.6758    0.1660   28.7056 C.3     1  UNL1        0.4235
     40 F          -1.4734   -0.9933   28.1861 F       1  UNL1       -0.1674
     41 F          -1.8380    1.0796   28.4511 F       1  UNL1       -0.1674
     42 F           0.4863   -0.7476   28.9601 F       1  UNL1       -0.1674
@<TRIPOS>BOND
     1    37    36    1
     2    37    35    1
     3    35     1    1
     4     1     2    1
     5     2     3   ar
     6     3     4   ar
     7     4     5   ar
     8     5     6   ar
     9     6    11    1
    10    11    12   ar
    11    12    13   ar
    12    13    14   ar
    13    14    15   ar
    14    15    17    1
    15    17    18    1
    16    18    19    1
    17    18    20    1
    18    18    21    1
    19    15    16   ar
    20     6     7   ar
    21     7     8    1
    22     8     9    1
    23     9    10    1
    24    10    22    1
    25    22    23   ar
    26    23    24   ar
    27    24    25   ar
    28    25    26   ar
    29    26    28    1
    30    28    29    1
    31    29    30    1
    32    29    31    1
    33    29    32    1
    34    32    33    1
    35    32    34    1
    36    26    27   ar
    37    37    39    1
    38    39    40    1
    39    39    41    1
    40    39    42    1
    41    10     1    1
    42    27    22   ar
    43     7     2   ar
    44    16    11   ar
    45    36    38    1
@<TRIPOS>MOLECULE
*****
 42 45 0 0 0
SMALL
GASTEIGER

@<TRIPOS>ATOM
      1 N           2.0101    1.0467   25.4991 N.pl3   1  UNL1       -0.2973
      2 C           2.9216   -0.0423   25.0162 C.ar    1  UNL1        0.0826
      3 C           3.8416   -0.7324   25.9791 C.ar    1  UNL1        0.0176
      4 C           4.7531   -1.8214   25.4962 C.ar    1  UNL1        0.0015
      5 C           4.7446   -2.2202   24.0502 C.ar    1  UNL1        0.0031
      6 C           3.8246   -1.5301   23.0872 C.ar    1  UNL1        0.0353
      7 C           2.9132   -0.4412   23.5702 C.ar    1  UNL1        0.1517
      8 O           1.9931    0.2490   22.6072 O.3     1  UNL1       -0.4721
      9 C           1.0816    1.3379   23.0902 C.3     1  UNL1        0.2295
     10 C           1.0901    1.7368   24.5361 C.3     1  UNL1        0.1397
     11 C           3.8162   -1.9290   21.6412 C.ar    1  UNL1        0.0060
     12 C           4.1547   -3.3368   21.2495 C.ar    1  UNL1        0.0003
     13 C           4.1462   -3.7356   19.8036 C.ar    1  UNL1        0.0031
     14 C           3.7993   -2.7267   18.7493 C.ar    1  UNL1        0.0372
     15 C           3.4607   -1.3189   19.1410 C.ar    1  UNL1        0.1468
     16 C           3.4692   -0.9200   20.5869 C.ar    1  UNL1        0.0373
     17 O           3.1137   -0.3099   18.0866 O.3     1  UNL1       -0.4045
     18 C           2.4091    0.9589   18.4658 C.3     1  UNL1        0.5753
     19 F           1.7044    2.2276   18.8449 F       1  UNL1       -0.1328
     20 F           1.1014    0.2246   18.4925 F       1  UNL1       -0.1328
     21 F           3.7168    1.6932   18.4390 F       1  UNL1       -0.1328
     22 C           0.1785    2.8258   25.0191 C.ar    1  UNL1        0.0023
     23 C           0.6603    4.2458   25.0558 C.ar    1  UNL1       -0.0024
     24 C          -0.2513    5.3348   25.5387 C.ar    1  UNL1        0.0028
     25 C          -1.6446    5.0036   25.9850 C.ar    1  UNL1        0.0371
     26 C          -2.1263    3.5836   25.9483 C.ar    1  UNL1        0.1439
     27 C          -1.2147    2.4947   25.4654 C.ar    1  UNL1        0.0345
     28 O          -3.5196    3.2525   26.3946 O.3     1  UNL1       -0.4263
     29 C          -4.6965    3.8707   25.6999 C.3     1  UNL1        0.4723
     30 F          -4.3401    3.1356   24.4419 F       1  UNL1       -0.1579
     31 F          -5.0528    4.6059   26.9578 F       1  UNL1       -0.1579
     32 C          -5.8734    4.4890   25.0051 C.3     1  UNL1        0.4202
     33 F          -6.5773    5.6614   25.6215 F       1  UNL1       -0.1876
     34 F          -6.3464    3.9348   23.6939 F       1  UNL1       -0.1876
     35 C           2.0185    1.4455   26.9451 C.3     1  UNL1        0.1294
     36 O           1.9736   -0.4729   28.6965 O.3     1  UNL1       -0.3756
     37 C           1.2711    0.6247   27.9539 C.3     1  UNL1        0.2260
     38 H           2.8986   -0.5181   28.4078 H       1  UNL1        0.2107
     39 C          -0.1789    0.9016   28.2200 C.3     1  UNL1        0.4235
     40 F          -1.6289    1.1785   28.4862 F       1  UNL1       -0.1674
     41 F           0.1266    2.3630   28.3642 F       1  UNL1       -0.1674
     42 F          -0.4845   -0.5599   28.0758 F       1  UNL1       -0.1674
@<TRIPOS>BOND
     1    37    36    1
     2    37    35    1
     3    35     1    1
     4     1     2    1
     5     2     3   ar
     6     3     4   ar
     7     4     5   ar
     8     5     6   ar
     9     6    11    1
    10    11    12   ar
    11    12    13   ar
    12    13    14   ar
    13    14    15   ar
    14    15    17    1
    15    17    18    1
    16    18    19    1
    17    18    20    1
    18    18    21    1
    19    15    16   ar
    20     6     7   ar
    21     7     8    1
    22     8     9    1
    23     9    10    1
    24    10    22    1
    25    22    23   ar
    26    23    24   ar
    27    24    25   ar
    28    25    26   ar
    29    26    28    1
    30    28    29    1
    31    29    30    1
    32    29    31    1
    33    29    32    1
    34    32    33    1
    35    32    34    1
    36    26    27   ar
    37    37    39    1
    38    39    40    1
    39    39    41    1
    40    39    42    1
    41    10     1    1
    42    27    22   ar
    43     7     2   ar
    44    16    11   ar
    45    36    38    1
@<TRIPOS>MOLECULE
*****
 42 45 0 0 0
SMALL
GASTEIGER

@<TRIPOS>ATOM
      1 N           4.2267   -0.1602   25.5198 N.pl3   1  UNL1       -0.2973
      2 C           3.5791   -0.1940   24.1671 C.ar    1  UNL1        0.0826
      3 C           2.3263    0.5916   23.9156 C.ar    1  UNL1        0.0176
      4 C           1.6787    0.5578   22.5630 C.ar    1  UNL1        0.0015
      5 C           2.2840   -0.2617   21.4620 C.ar    1  UNL1        0.0031
      6 C           3.5368   -1.0472   21.7136 C.ar    1  UNL1        0.0353
      7 C           4.1843   -1.0134   23.0661 C.ar    1  UNL1        0.1517
      8 O           5.4372   -1.7990   23.3177 O.3     1  UNL1       -0.4721
      9 C           6.0847   -1.7652   24.6703 C.3     1  UNL1        0.2295
     10 C           5.4795   -0.9458   25.7713 C.3     1  UNL1        0.1397
     11 C           4.1420   -1.8667   20.6125 C.ar    1  UNL1        0.0060
     12 C           3.9441   -3.3533   20.5884 C.ar    1  UNL1        0.0003
     13 C           4.5493   -4.1728   19.4874 C.ar    1  UNL1        0.0031
     14 C           5.3524   -3.5055   18.4105 C.ar    1  UNL1        0.0372
     15 C           5.5503   -2.0188   18.4346 C.ar    1  UNL1        0.1468
     16 C           4.9451   -1.1994   19.5356 C.ar    1  UNL1        0.0373
     17 O           6.3534   -1.3515   17.3577 O.3     1  UNL1       -0.4045
     18 C           6.1375    0.1011   17.0522 C.3     1  UNL1        0.5753
     19 F           5.9217    1.5537   16.7466 F       1  UNL1       -0.1328
     20 F           4.8113   -0.2263   16.4326 F       1  UNL1       -0.1328
     21 F           7.4638    0.4285   17.6717 F       1  UNL1       -0.1328
     22 C           6.1271   -0.9120   27.1239 C.ar    1  UNL1        0.0023
     23 C           7.0521    0.2124   27.4847 C.ar    1  UNL1       -0.0024
     24 C           7.6997    0.2461   28.8372 C.ar    1  UNL1        0.0028
     25 C           7.4223   -0.8445   29.8290 C.ar    1  UNL1        0.0371
     26 C           6.4973   -1.9688   29.4683 C.ar    1  UNL1        0.1439
     27 C           5.8497   -2.0025   28.1157 C.ar    1  UNL1        0.0345
     28 O           6.2199   -3.0594   30.4601 O.3     1  UNL1       -0.4263
     29 C           5.6913   -2.7181   31.8217 C.3     1  UNL1        0.4723
     30 F           4.6657   -1.8186   31.1982 F       1  UNL1       -0.1579
     31 F           6.7169   -3.6177   32.4453 F       1  UNL1       -0.1579
     32 C           5.1626   -2.3769   33.1834 C.3     1  UNL1        0.4202
     33 F           4.0071   -3.1447   33.7535 F       1  UNL1       -0.1876
     34 F           5.7896   -1.2677   33.9751 F       1  UNL1       -0.1876
     35 C           3.6215    0.6592   26.6208 C.3     1  UNL1        0.1294
     36 O           2.5730   -1.3097   27.9528 O.3     1  UNL1       -0.3756
     37 C           2.4985    0.0988   27.4423 C.3     1  UNL1        0.2260
     38 H           3.4058   -1.7146   27.6641 H       1  UNL1        0.2107
     39 C           1.3010    0.9470   27.7534 C.3     1  UNL1        0.4235
     40 F           0.1036    1.7951   28.0645 F       1  UNL1       -0.1674
     41 F           0.6190   -0.2405   28.3656 F       1  UNL1       -0.1674
     42 F           1.9831    2.1344   27.1412 F       1  UNL1       -0.1674
@<TRIPOS>BOND
     1    37    36    1
     2    37    35    1
     3    35     1    1
     4     1     2    1
     5     2     3   ar
     6     3     4   ar
     7     4     5   ar
     8     5     6   ar
     9     6    11    1
    10    11    12   ar
    11    12    13   ar
    12    13    14   ar
    13    14    15   ar
    14    15    17    1
    15    17    18    1
    16    18    19    1
    17    18    20    1
    18    18    21    1
    19    15    16   ar
    20     6     7   ar
    21     7     8    1
    22     8     9    1
    23     9    10    1
    24    10    22    1
    25    22    23   ar
    26    23    24   ar
    27    24    25   ar
    28    25    26   ar
    29    26    28    1
    30    28    29    1
    31    29    30    1
    32    29    31    1
    33    29    32    1
    34    32    33    1
    35    32    34    1
    36    26    27   ar
    37    37    39    1
    38    39    40    1
    39    39    41    1
    40    39    42    1
    41    10     1    1
    42    27    22   ar
    43     7     2   ar
    44    16    11   ar
    45    36    38    1
@<TRIPOS>MOLECULE
*****
 42 45 0 0 0
SMALL
GASTEIGER

@<TRIPOS>ATOM
      1 N           3.5920    0.6883   25.7050 N.pl3   1  UNL1       -0.2973
      2 C           2.6742    0.8125   24.5250 C.ar    1  UNL1        0.0826
      3 C           1.2839    1.3445   24.7089 C.ar    1  UNL1        0.0176
      4 C           0.3662    1.4686   23.5289 C.ar    1  UNL1        0.0015
      5 C           0.8389    1.0607   22.1650 C.ar    1  UNL1        0.0031
      6 C           2.2292    0.5287   21.9811 C.ar    1  UNL1        0.0353
      7 C           3.1469    0.4045   23.1611 C.ar    1  UNL1        0.1517
      8 O           4.5373   -0.1275   22.9773 O.3     1  UNL1       -0.4721
      9 C           5.4550   -0.2517   24.1573 C.3     1  UNL1        0.2295
     10 C           4.9823    0.1562   25.5211 C.3     1  UNL1        0.1397
     11 C           2.7019    0.1208   20.6172 C.ar    1  UNL1        0.0060
     12 C           2.8752    1.1537   19.5435 C.ar    1  UNL1        0.0003
     13 C           3.3479    0.7458   18.1796 C.ar    1  UNL1        0.0031
     14 C           3.6472   -0.6951   17.8895 C.ar    1  UNL1        0.0372
     15 C           3.4739   -1.7280   18.9632 C.ar    1  UNL1        0.1468
     16 C           3.0012   -1.3201   20.3271 C.ar    1  UNL1        0.0373
     17 O           3.7733   -3.1690   18.6730 O.3     1  UNL1       -0.4045
     18 C           4.9530   -3.8344   19.3176 C.3     1  UNL1        0.5753
     19 F           6.1327   -4.4999   19.9623 F       1  UNL1       -0.1328
     20 F           5.8770   -3.0653   18.4206 F       1  UNL1       -0.1328
     21 F           4.0290   -4.6036   20.2146 F       1  UNL1       -0.1328
     22 C           5.9000    0.0321   26.7012 C.ar    1  UNL1        0.0023
     23 C           6.6079    1.2435   27.2315 C.ar    1  UNL1       -0.0024
     24 C           7.5256    1.1193   28.4115 C.ar    1  UNL1        0.0028
     25 C           7.7354   -0.2163   29.0611 C.ar    1  UNL1        0.0371
     26 C           7.0276   -1.4278   28.5308 C.ar    1  UNL1        0.1439
     27 C           6.1099   -1.3036   27.3508 C.ar    1  UNL1        0.0345
     28 O           7.2374   -2.7634   29.1804 O.3     1  UNL1       -0.4263
     29 C           7.1341   -2.8970   30.6709 C.3     1  UNL1        0.4723
     30 F           5.7325   -2.3650   30.6214 F       1  UNL1       -0.1579
     31 F           8.5357   -3.4290   30.7203 F       1  UNL1       -0.1579
     32 C           7.0308   -3.0306   32.1614 C.3     1  UNL1        0.4202
     33 F           6.1319   -4.0711   32.7606 F       1  UNL1       -0.1876
     34 F           7.8264   -2.1235   33.0526 F       1  UNL1       -0.1876
     35 C           3.1193    1.0962   27.0689 C.3     1  UNL1        0.1294
     36 O           2.5825   -1.3229   27.8499 O.3     1  UNL1       -0.3756
     37 C           2.2975    0.1491   27.8922 C.3     1  UNL1        0.2260
     38 H           3.3229   -1.4916   27.2464 H       1  UNL1        0.2107
     39 C           1.1906    0.6742   28.7577 C.3     1  UNL1        0.4235
     40 F           0.0837    1.1992   29.6232 F       1  UNL1       -0.1674
     41 F           0.4920   -0.6501   28.6677 F       1  UNL1       -0.1674
     42 F           1.8892    1.9985   28.8478 F       1  UNL1       -0.1674
@<TRIPOS>BOND
     1    37    36    1
     2    37    35    1
     3    35     1    1
     4     1     2    1
     5     2     3   ar
     6     3     4   ar
     7     4     5   ar
     8     5     6   ar
     9     6    11    1
    10    11    12   ar
    11    12    13   ar
    12    13    14   ar
    13    14    15   ar
    14    15    17    1
    15    17    18    1
    16    18    19    1
    17    18    20    1
    18    18    21    1
    19    15    16   ar
    20     6     7   ar
    21     7     8    1
    22     8     9    1
    23     9    10    1
    24    10    22    1
    25    22    23   ar
    26    23    24   ar
    27    24    25   ar
    28    25    26   ar
    29    26    28    1
    30    28    29    1
    31    29    30    1
    32    29    31    1
    33    29    32    1
    34    32    33    1
    35    32    34    1
    36    26    27   ar
    37    37    39    1
    38    39    40    1
    39    39    41    1
    40    39    42    1
    41    10     1    1
    42    27    22   ar
    43     7     2   ar
    44    16    11   ar
    45    36    38    1
@<TRIPOS>MOLECULE
*****
 42 45 0 0 0
SMALL
GASTEIGER

@<TRIPOS>ATOM
      1 N           3.7755    0.0751   27.1236 N.pl3   1  UNL1       -0.2973
      2 C           3.1399    0.1671   25.7680 C.ar    1  UNL1        0.0826
      3 C           1.8781    0.9567   25.5834 C.ar    1  UNL1        0.0176
      4 C           1.2426    1.0488   24.2278 C.ar    1  UNL1        0.0015
      5 C           1.8689    0.3512   23.0569 C.ar    1  UNL1        0.0031
      6 C           3.1308   -0.4384   23.2415 C.ar    1  UNL1        0.0353
      7 C           3.7663   -0.5305   24.5971 C.ar    1  UNL1        0.1517
      8 O           5.0282   -1.3201   24.7818 O.3     1  UNL1       -0.4721
      9 C           5.6638   -1.4121   26.1374 C.3     1  UNL1        0.2295
     10 C           5.0374   -0.7146   27.3083 C.3     1  UNL1        0.1397
     11 C           3.7571   -1.1360   22.0706 C.ar    1  UNL1        0.0060
     12 C           3.9852   -2.6179   22.1147 C.ar    1  UNL1        0.0003
     13 C           4.6116   -3.3155   20.9437 C.ar    1  UNL1        0.0031
     14 C           5.0098   -2.5312   19.7288 C.ar    1  UNL1        0.0372
     15 C           4.7818   -1.0493   19.6847 C.ar    1  UNL1        0.1468
     16 C           4.1554   -0.3517   20.8556 C.ar    1  UNL1        0.0373
     17 O           5.1801   -0.2649   18.4697 O.3     1  UNL1       -0.4045
     18 C           4.5268    1.0542   18.1812 C.3     1  UNL1        0.5753
     19 F           3.8736    2.3733   17.8927 F       1  UNL1       -0.1328
     20 F           5.7614    1.7675   18.6471 F       1  UNL1       -0.1328
     21 F           3.2923    0.3409   17.7153 F       1  UNL1       -0.1328
     22 C           5.6730   -0.8066   28.6639 C.ar    1  UNL1        0.0023
     23 C           6.2995    0.4077   29.2826 C.ar    1  UNL1       -0.0024
     24 C           6.9350    0.3156   30.6381 C.ar    1  UNL1        0.0028
     25 C           6.9441   -0.9909   31.3750 C.ar    1  UNL1        0.0371
     26 C           6.3176   -2.2052   30.7563 C.ar    1  UNL1        0.1439
     27 C           5.6821   -2.1131   29.4008 C.ar    1  UNL1        0.0345
     28 O           6.3267   -3.5117   31.4932 O.3     1  UNL1       -0.4263
     29 C           7.3546   -4.5526   31.1618 C.3     1  UNL1        0.4723
     30 F           8.3307   -3.8817   32.0822 F       1  UNL1       -0.1579
     31 F           6.3786   -5.2235   30.2414 F       1  UNL1       -0.1579
     32 C           8.3827   -5.5935   30.8304 C.3     1  UNL1        0.4202
     33 F           8.6941   -6.6805   31.8160 F       1  UNL1       -0.1876
     34 F           9.0992   -5.5473   29.5135 F       1  UNL1       -0.1876
     35 C           3.1492    0.7726   28.2946 C.3     1  UNL1        0.1294
     36 O           1.2574   -0.9453   28.7638 O.3     1  UNL1       -0.3756
     37 C           2.3088   -0.0011   29.2668 C.3     1  UNL1        0.2260
     38 H           1.2522   -0.9364   27.7938 H       1  UNL1        0.2107
     39 C           2.5200    0.1693   30.7421 C.3     1  UNL1        0.4235
     40 F           2.7311    0.3397   32.2173 F       1  UNL1       -0.1674
     41 F           2.2949    1.6458   30.6037 F       1  UNL1       -0.1674
     42 F           2.7451   -1.3073   30.8804 F       1  UNL1       -0.1674
@<TRIPOS>BOND
     1    37    36    1
     2    37    35    1
     3    35     1    1
     4     1     2    1
     5     2     3   ar
     6     3     4   ar
     7     4     5   ar
     8     5     6   ar
     9     6    11    1
    10    11    12   ar
    11    12    13   ar
    12    13    14   ar
    13    14    15   ar
    14    15    17    1
    15    17    18    1
    16    18    19    1
    17    18    20    1
    18    18    21    1
    19    15    16   ar
    20     6     7   ar
    21     7     8    1
    22     8     9    1
    23     9    10    1
    24    10    22    1
    25    22    23   ar
    26    23    24   ar
    27    24    25   ar
    28    25    26   ar
    29    26    28    1
    30    28    29    1
    31    29    30    1
    32    29    31    1
    33    29    32    1
    34    32    33    1
    35    32    34    1
    36    26    27   ar
    37    37    39    1
    38    39    40    1
    39    39    41    1
    40    39    42    1
    41    10     1    1
    42    27    22   ar
    43     7     2   ar
    44    16    11   ar
    45    36    38    1
@<TRIPOS>MOLECULE
*****
 42 45 0 0 0
SMALL
GASTEIGER

@<TRIPOS>ATOM
      1 N           4.4018    2.2188   32.9704 N.pl3   1  UNL1       -0.2973
      2 C           4.4992    2.0115   31.4879 C.ar    1  UNL1        0.0826
      3 C           3.7418    2.9081   30.5539 C.ar    1  UNL1        0.0176
      4 C           3.8392    2.7008   29.0716 C.ar    1  UNL1        0.0015
      5 C           4.6939    1.5969   28.5232 C.ar    1  UNL1        0.0031
      6 C           5.4513    0.7002   29.4572 C.ar    1  UNL1        0.0353
      7 C           5.3539    0.9076   30.9395 C.ar    1  UNL1        0.1517
      8 O           6.1113    0.0109   31.8736 O.3     1  UNL1       -0.4721
      9 C           6.0139    0.2182   33.3560 C.3     1  UNL1        0.2295
     10 C           5.1592    1.3221   33.9044 C.3     1  UNL1        0.1397
     11 C           6.3061   -0.4037   28.9088 C.ar    1  UNL1        0.0060
     12 C           7.6978   -0.1090   28.4333 C.ar    1  UNL1        0.0003
     13 C           8.5526   -1.2129   27.8849 C.ar    1  UNL1        0.0031
     14 C           8.0156   -2.6115   27.8120 C.ar    1  UNL1        0.0372
     15 C           6.6238   -2.9063   28.2875 C.ar    1  UNL1        0.1468
     16 C           5.7691   -1.8023   28.8359 C.ar    1  UNL1        0.0373
     17 O           6.0868   -4.3050   28.2146 O.3     1  UNL1       -0.4045
     18 C           6.7715   -5.4111   28.9614 C.3     1  UNL1        0.5753
     19 F           7.4562   -6.5172   29.7081 F       1  UNL1       -0.1328
     20 F           7.1784   -6.0374   27.6605 F       1  UNL1       -0.1328
     21 F           6.3646   -4.7848   30.2622 F       1  UNL1       -0.1328
     22 C           5.0618    1.5294   35.3869 C.ar    1  UNL1        0.0023
     23 C           6.0473    2.4180   36.0862 C.ar    1  UNL1       -0.0024
     24 C           5.9499    2.6252   37.5686 C.ar    1  UNL1        0.0028
     25 C           4.8670    1.9439   38.3516 C.ar    1  UNL1        0.0371
     26 C           3.8816    1.0553   37.6523 C.ar    1  UNL1        0.1439
     27 C           3.9789    0.8480   36.1699 C.ar    1  UNL1        0.0345
     28 O           2.7987    0.3739   38.4353 O.3     1  UNL1       -0.4263
     29 C           1.7168    1.1864   39.0828 C.3     1  UNL1        0.4723
     30 F           1.8501    2.2221   38.0061 F       1  UNL1       -0.1579
     31 F           1.5835    0.1506   40.1596 F       1  UNL1       -0.1579
     32 C           0.6349    1.9989   39.7304 C.3     1  UNL1        0.4202
     33 F          -0.2550    2.8673   38.8913 F       1  UNL1       -0.1876
     34 F           0.4428    1.9430   41.2170 F       1  UNL1       -0.1876
     35 C           3.5470    3.3227   33.5188 C.3     1  UNL1        0.1294
     36 O           1.3896    1.8877   33.7100 O.3     1  UNL1       -0.3756
     37 C           2.0521    3.2110   33.4650 C.3     1  UNL1        0.2260
     38 H           2.0660    1.2153   33.8869 H       1  UNL1        0.2107
     39 C           1.2198    4.4226   33.1663 C.3     1  UNL1        0.4235
     40 F           0.3874    5.6342   32.8675 F       1  UNL1       -0.1674
     41 F           2.3254    5.3051   33.6649 F       1  UNL1       -0.1674
     42 F           0.1141    3.5401   32.6676 F       1  UNL1       -0.1674
@<TRIPOS>BOND
     1    37    36    1
     2    37    35    1
     3    35     1    1
     4     1     2    1
     5     2     3   ar
     6     3     4   ar
     7     4     5   ar
     8     5     6   ar
     9     6    11    1
    10    11    12   ar
    11    12    13   ar
    12    13    14   ar
    13    14    15   ar
    14    15    17    1
    15    17    18    1
    16    18    19    1
    17    18    20    1
    18    18    21    1
    19    15    16   ar
    20     6     7   ar
    21     7     8    1
    22     8     9    1
    23     9    10    1
    24    10    22    1
    25    22    23   ar
    26    23    24   ar
    27    24    25   ar
    28    25    26   ar
    29    26    28    1
    30    28    29    1
    31    29    30    1
    32    29    31    1
    33    29    32    1
    34    32    33    1
    35    32    34    1
    36    26    27   ar
    37    37    39    1
    38    39    40    1
    39    39    41    1
    40    39    42    1
    41    10     1    1
    42    27    22   ar
    43     7     2   ar
    44    16    11   ar
    45    36    38    1
@<TRIPOS>MOLECULE
*****
 42 45 0 0 0
SMALL
GASTEIGER

@<TRIPOS>ATOM
      1 N          -5.8946  -17.5863   22.3287 N.pl3   1  UNL1       -0.2973
      2 C          -6.9409  -16.8487   23.1105 C.ar    1  UNL1        0.0826
      3 C          -6.5334  -15.8345   24.1378 C.ar    1  UNL1        0.0176
      4 C          -7.5797  -15.0969   24.9196 C.ar    1  UNL1        0.0015
      5 C          -9.0334  -15.3736   24.6742 C.ar    1  UNL1        0.0031
      6 C          -9.4408  -16.3878   23.6469 C.ar    1  UNL1        0.0353
      7 C          -8.3945  -17.1254   22.8651 C.ar    1  UNL1        0.1517
      8 O          -8.8020  -18.1396   21.8378 O.3     1  UNL1       -0.4721
      9 C          -7.7557  -18.8772   21.0559 C.3     1  UNL1        0.2295
     10 C          -6.3020  -18.6005   21.3014 C.3     1  UNL1        0.1397
     11 C         -10.8945  -16.6645   23.4015 C.ar    1  UNL1        0.0060
     12 C         -11.6374  -15.8945   22.3502 C.ar    1  UNL1        0.0003
     13 C         -13.0911  -16.1712   22.1047 C.ar    1  UNL1        0.0031
     14 C         -13.8019  -17.2178   22.9106 C.ar    1  UNL1        0.0372
     15 C         -13.0590  -17.9877   23.9619 C.ar    1  UNL1        0.1468
     16 C         -11.6053  -17.7110   24.2073 C.ar    1  UNL1        0.0373
     17 O         -13.7697  -19.0343   24.7678 O.3     1  UNL1       -0.4045
     18 C         -14.7586  -18.6276   25.8198 C.3     1  UNL1        0.5753
     19 F         -15.7475  -18.2209   26.8718 F       1  UNL1       -0.1328
     20 F         -13.6347  -18.3892   26.7841 F       1  UNL1       -0.1328
     21 F         -15.8826  -18.8660   24.8555 F       1  UNL1       -0.1328
     22 C          -5.2557  -19.3382   20.5195 C.ar    1  UNL1        0.0023
     23 C          -5.3446  -20.8277   20.3669 C.ar    1  UNL1       -0.0024
     24 C          -4.2984  -21.5652   19.5850 C.ar    1  UNL1        0.0028
     25 C          -3.1632  -20.8132   18.9558 C.ar    1  UNL1        0.0371
     26 C          -3.0743  -19.3237   19.1084 C.ar    1  UNL1        0.1439
     27 C          -4.1206  -18.5862   19.8903 C.ar    1  UNL1        0.0345
     28 O          -1.9391  -18.5717   18.4792 O.3     1  UNL1       -0.4263
     29 C          -1.0561  -17.7018   19.3239 C.3     1  UNL1        0.4723
     30 F          -0.2020  -18.8897   19.6543 F       1  UNL1       -0.1579
     31 F          -1.9103  -16.5139   18.9935 F       1  UNL1       -0.1579
     32 C          -0.1731  -16.8319   20.1686 C.3     1  UNL1        0.4202
     33 F          -0.7806  -15.8106   21.0838 F       1  UNL1       -0.1876
     34 F           1.3176  -16.9835   20.0981 F       1  UNL1       -0.1876
     35 C          -4.4409  -17.3097   22.5741 C.3     1  UNL1        0.1294
     36 O          -3.6229  -18.1383   24.8967 O.3     1  UNL1       -0.3756
     37 C          -3.6260  -18.2591   23.4016 C.3     1  UNL1        0.2260
     38 H          -4.1947  -17.4014   25.1627 H       1  UNL1        0.2107
     39 C          -2.8143  -19.3293   22.7339 C.3     1  UNL1        0.4235
     40 F          -2.0026  -20.3995   22.0661 F       1  UNL1       -0.1674
     41 F          -3.9156  -20.3177   22.9793 F       1  UNL1       -0.1674
     42 F          -1.7130  -18.3409   22.4884 F       1  UNL1       -0.1674
@<TRIPOS>BOND
     1    37    36    1
     2    37    35    1
     3    35     1    1
     4     1     2    1
     5     2     3   ar
     6     3     4   ar
     7     4     5   ar
     8     5     6   ar
     9     6    11    1
    10    11    12   ar
    11    12    13   ar
    12    13    14   ar
    13    14    15   ar
    14    15    17    1
    15    17    18    1
    16    18    19    1
    17    18    20    1
    18    18    21    1
    19    15    16   ar
    20     6     7   ar
    21     7     8    1
    22     8     9    1
    23     9    10    1
    24    10    22    1
    25    22    23   ar
    26    23    24   ar
    27    24    25   ar
    28    25    26   ar
    29    26    28    1
    30    28    29    1
    31    29    30    1
    32    29    31    1
    33    29    32    1
    34    32    33    1
    35    32    34    1
    36    26    27   ar
    37    37    39    1
    38    39    40    1
    39    39    41    1
    40    39    42    1
    41    10     1    1
    42    27    22   ar
    43     7     2   ar
    44    16    11   ar
    45    36    38    1
@<TRIPOS>MOLECULE
*****
 42 45 0 0 0
SMALL
GASTEIGER

@<TRIPOS>ATOM
      1 N          -5.8207  -17.7256   22.4221 N.pl3   1  UNL1       -0.2973
      2 C          -6.8958  -17.0829   23.2475 C.ar    1  UNL1        0.0826
      3 C          -6.5329  -16.0799   24.3021 C.ar    1  UNL1        0.0176
      4 C          -7.6080  -15.4372   25.1274 C.ar    1  UNL1        0.0015
      5 C          -9.0459  -15.7976   24.8982 C.ar    1  UNL1        0.0031
      6 C          -9.4087  -16.8006   23.8436 C.ar    1  UNL1        0.0353
      7 C          -8.3337  -17.4433   23.0183 C.ar    1  UNL1        0.1517
      8 O          -8.6965  -18.4464   21.9636 O.3     1  UNL1       -0.4721
      9 C          -7.6215  -19.0890   21.1383 C.3     1  UNL1        0.2295
     10 C          -6.1836  -18.7287   21.3675 C.3     1  UNL1        0.1397
     11 C         -10.8466  -17.1610   23.6143 C.ar    1  UNL1        0.0060
     12 C         -11.6140  -17.8950   24.6737 C.ar    1  UNL1        0.0003
     13 C         -13.0519  -18.2553   24.4445 C.ar    1  UNL1        0.0031
     14 C         -13.7225  -17.8817   23.1558 C.ar    1  UNL1        0.0372
     15 C         -12.9551  -17.1477   22.0964 C.ar    1  UNL1        0.1468
     16 C         -11.5172  -16.7873   22.3257 C.ar    1  UNL1        0.0373
     17 O         -13.6257  -16.7740   20.8077 O.3     1  UNL1       -0.4045
     18 C         -12.8253  -16.1645   19.6950 C.3     1  UNL1        0.5753
     19 F         -12.0250  -15.5550   18.5824 F       1  UNL1       -0.1328
     20 F         -11.9519  -17.3833   19.6557 F       1  UNL1       -0.1328
     21 F         -13.6988  -14.9457   19.7344 F       1  UNL1       -0.1328
     22 C          -5.1085  -19.3714   20.5422 C.ar    1  UNL1        0.0023
     23 C          -5.1128  -20.8563   20.3299 C.ar    1  UNL1       -0.0024
     24 C          -4.0377  -21.4989   19.5045 C.ar    1  UNL1        0.0028
     25 C          -2.9584  -20.6567   18.8914 C.ar    1  UNL1        0.0371
     26 C          -2.9542  -19.1719   19.1037 C.ar    1  UNL1        0.1439
     27 C          -4.0292  -18.5292   19.9291 C.ar    1  UNL1        0.0345
     28 O          -1.8749  -18.3296   18.4907 O.3     1  UNL1       -0.4263
     29 C          -0.9540  -17.5351   19.3684 C.3     1  UNL1        0.4723
     30 F          -1.9350  -16.4005   19.3708 F       1  UNL1       -0.1579
     31 F           0.0271  -18.6698   19.3661 F       1  UNL1       -0.1579
     32 C          -0.0330  -16.7405   20.2462 C.3     1  UNL1        0.4202
     33 F          -0.5857  -15.6664   21.1354 F       1  UNL1       -0.1876
     34 F           1.4407  -17.0202   20.2348 F       1  UNL1       -0.1876
     35 C          -4.3828  -17.3653   22.6514 C.3     1  UNL1        0.1294
     36 O          -3.4901  -18.2390   24.9295 O.3     1  UNL1       -0.3756
     37 C          -3.4933  -18.2884   23.4304 C.3     1  UNL1        0.2260
     38 H          -4.1145  -17.5611   25.2320 H       1  UNL1        0.2107
     39 C          -2.6070  -19.2608   22.7101 C.3     1  UNL1        0.4235
     40 F          -1.7206  -20.2333   21.9899 F       1  UNL1       -0.1674
     41 F          -3.6263  -20.3419   22.9154 F       1  UNL1       -0.1674
     42 F          -1.5876  -18.1797   22.5048 F       1  UNL1       -0.1674
@<TRIPOS>BOND
     1    37    36    1
     2    37    35    1
     3    35     1    1
     4     1     2    1
     5     2     3   ar
     6     3     4   ar
     7     4     5   ar
     8     5     6   ar
     9     6    11    1
    10    11    12   ar
    11    12    13   ar
    12    13    14   ar
    13    14    15   ar
    14    15    17    1
    15    17    18    1
    16    18    19    1
    17    18    20    1
    18    18    21    1
    19    15    16   ar
    20     6     7   ar
    21     7     8    1
    22     8     9    1
    23     9    10    1
    24    10    22    1
    25    22    23   ar
    26    23    24   ar
    27    24    25   ar
    28    25    26   ar
    29    26    28    1
    30    28    29    1
    31    29    30    1
    32    29    31    1
    33    29    32    1
    34    32    33    1
    35    32    34    1
    36    26    27   ar
    37    37    39    1
    38    39    40    1
    39    39    41    1
    40    39    42    1
    41    10     1    1
    42    27    22   ar
    43     7     2   ar
    44    16    11   ar
    45    36    38    1
