@<TRIPOS>MOLECULE
*****
 31 35 0 0 0
SMALL
GASTEIGER

@<TRIPOS>ATOM
      1 O           8.9870   -3.2773   30.6969 O.2     1  UNL1       -0.2526
      2 C           7.5476   -3.3777   31.1070 C.2     1  UNL1        0.3039
      3 N           6.6396   -4.3566   30.4233 N.am    1  UNL1       -0.2901
      4 N           7.0163   -2.4994   32.2006 N.am    1  UNL1       -0.2642
      5 C           7.9243   -1.5205   32.8842 C.3     1  UNL1        0.0954
      6 C           7.3930   -0.6421   33.9779 C.3     1  UNL1        0.0309
      7 C           5.9535   -0.7426   34.3880 C.3     1  UNL1        0.0827
      8 C           5.0455   -1.7214   33.7043 C.3     1  UNL1        0.0309
      9 C           5.5769   -2.5998   32.6106 C.3     1  UNL1        0.0954
     10 H           5.6949   -4.4225   30.6924 H       1  UNL1        0.1509
     11 C           7.1710   -5.2350   29.3296 C.3     1  UNL1        0.0777
     12 C           7.9137   -6.4925   29.6718 C.3     1  UNL1        0.0246
     13 C           8.4451   -7.3708   28.5782 C.3     1  UNL1        0.0277
     14 C           8.2338   -6.9917   27.1423 C.ar    1  UNL1       -0.0260
     15 C           8.7651   -7.8701   26.0487 C.ar    1  UNL1       -0.0046
     16 C           8.5538   -7.4910   24.6129 C.ar    1  UNL1       -0.0003
     17 C           7.8111   -6.2335   24.2707 C.ar    1  UNL1       -0.0003
     18 C           7.2797   -5.3551   25.3643 C.ar    1  UNL1       -0.0045
     19 C           7.4911   -5.7342   26.8001 C.ar    1  UNL1       -0.0245
     20 C           6.9597   -4.8558   27.8938 C.3     1  UNL1        0.0456
     21 C           5.4222    0.1358   35.4816 C.ar    1  UNL1        0.2362
     22 N           4.0198    0.1306   36.0136 N.ar    1  UNL1       -0.1895
     23 C           3.9308    1.1652   37.0961 C.ar    1  UNL1        0.2210
     24 N           5.2783    1.8098   37.2331 N.ar    1  UNL1       -0.0544
     25 O           6.2000    1.1736   36.2352 O.2     1  UNL1       -0.3370
     26 C           2.7089    1.4969   37.9004 C.ar    1  UNL1        0.1203
     27 C           2.1703    0.5061   38.8895 C.ar    1  UNL1        0.0224
     28 C           0.9483    0.8378   39.6938 C.ar    1  UNL1        0.0032
     29 C           0.2650    2.1603   39.5090 C.ar    1  UNL1        0.0207
     30 C           0.8037    3.1511   38.5199 C.ar    1  UNL1        0.0989
     31 N           2.0256    2.8193   37.7156 N.ar    1  UNL1       -0.2406
@<TRIPOS>BOND
     1     1     2    2
     2     2     3   am
     3     3    11    1
     4    11    12    1
     5    12    13    1
     6    13    14    1
     7    14    15   ar
     8    15    16   ar
     9    16    17   ar
    10    17    18   ar
    11    18    19   ar
    12    19    20    1
    13     2     4   am
    14     4     5    1
    15     5     6    1
    16     6     7    1
    17     7    21    1
    18    21    22   ar
    19    22    23   ar
    20    23    26    1
    21    26    27   ar
    22    27    28   ar
    23    28    29   ar
    24    29    30   ar
    25    30    31   ar
    26    23    24   ar
    27    24    25   ar
    28     7     8    1
    29     8     9    1
    30    20    11    1
    31     9     4    1
    32    19    14   ar
    33    25    21   ar
    34    31    26   ar
    35     3    10    1
@<TRIPOS>MOLECULE
*****
 31 35 0 0 0
SMALL
GASTEIGER

@<TRIPOS>ATOM
      1 O           4.5551   -4.0901   20.6127 O.2     1  UNL1       -0.2526
      2 C           4.6935   -2.8156   21.3915 C.2     1  UNL1        0.3039
      3 N           5.7727   -2.6813   22.4245 N.am    1  UNL1       -0.2901
      4 N           3.7527   -1.6753   21.1371 N.am    1  UNL1       -0.2642
      5 C           2.6735   -1.8096   20.1041 C.3     1  UNL1        0.0954
      6 C           1.7327   -0.6694   19.8498 C.3     1  UNL1        0.0309
      7 C           1.8711    0.6052   20.6285 C.3     1  UNL1        0.0827
      8 C           2.9503    0.7395   21.6616 C.3     1  UNL1        0.0309
      9 C           3.8911   -0.4008   21.9159 C.3     1  UNL1        0.0954
     10 H           5.8636   -1.8448   22.9356 H       1  UNL1        0.1509
     11 C           6.7136   -3.8216   22.6788 C.3     1  UNL1        0.0777
     12 C           7.6749   -4.2531   21.6113 C.3     1  UNL1        0.0246
     13 C           8.6157   -5.3934   21.8656 C.3     1  UNL1        0.0277
     14 C           8.5952   -6.1022   23.1874 C.ar    1  UNL1       -0.0260
     15 C           9.5360   -7.2425   23.4417 C.ar    1  UNL1       -0.0046
     16 C           9.5154   -7.9512   24.7635 C.ar    1  UNL1       -0.0003
     17 C           8.5541   -7.5197   25.8310 C.ar    1  UNL1       -0.0003
     18 C           7.6133   -6.3795   25.5767 C.ar    1  UNL1       -0.0045
     19 C           7.6338   -5.6707   24.2549 C.ar    1  UNL1       -0.0245
     20 C           6.6930   -4.5304   24.0006 C.3     1  UNL1        0.0456
     21 C           0.9303    1.7455   20.3742 C.ar    1  UNL1        0.2362
     22 N          -0.5627    1.7044   20.5130 N.ar    1  UNL1       -0.1895
     23 C          -1.0984    3.0605   20.1610 C.ar    1  UNL1        0.2210
     24 N           0.0635    3.9397   19.8046 N.ar    1  UNL1       -0.0544
     25 O           1.3173    3.1270   19.9363 O.2     1  UNL1       -0.3370
     26 C          -2.5425    3.4662   20.1647 C.ar    1  UNL1        0.1203
     27 C          -3.0330    4.5024   19.1974 C.ar    1  UNL1        0.0224
     28 C          -4.4771    4.9081   19.2011 C.ar    1  UNL1        0.0032
     29 C          -5.4308    4.2776   20.1722 C.ar    1  UNL1        0.0207
     30 C          -4.9403    3.2414   21.1396 C.ar    1  UNL1        0.0989
     31 N          -3.4962    2.8357   21.1358 N.ar    1  UNL1       -0.2406
@<TRIPOS>BOND
     1     1     2    2
     2     2     3   am
     3     3    11    1
     4    11    12    1
     5    12    13    1
     6    13    14    1
     7    14    15   ar
     8    15    16   ar
     9    16    17   ar
    10    17    18   ar
    11    18    19   ar
    12    19    20    1
    13     2     4   am
    14     4     5    1
    15     5     6    1
    16     6     7    1
    17     7    21    1
    18    21    22   ar
    19    22    23   ar
    20    23    26    1
    21    26    27   ar
    22    27    28   ar
    23    28    29   ar
    24    29    30   ar
    25    30    31   ar
    26    23    24   ar
    27    24    25   ar
    28     7     8    1
    29     8     9    1
    30    20    11    1
    31     9     4    1
    32    19    14   ar
    33    25    21   ar
    34    31    26   ar
    35     3    10    1
@<TRIPOS>MOLECULE
*****
 31 35 0 0 0
SMALL
GASTEIGER

@<TRIPOS>ATOM
      1 O          -0.8024    4.2997   19.1957 O.2     1  UNL1       -0.2526
      2 C          -0.7860    2.9375   19.8237 C.2     1  UNL1        0.3039
      3 N          -1.9054    2.5154   20.7286 N.am    1  UNL1       -0.2901
      4 N           0.3495    1.9975   19.5467 N.am    1  UNL1       -0.2642
      5 C           1.4689    2.4196   18.6417 C.3     1  UNL1        0.0954
      6 C           2.6045    1.4796   18.3647 C.3     1  UNL1        0.0309
      7 C           2.6208    0.1174   18.9927 C.3     1  UNL1        0.0827
      8 C           1.5014   -0.3047   19.8976 C.3     1  UNL1        0.0309
      9 C           0.3658    0.6354   20.1746 C.3     1  UNL1        0.0954
     10 H          -1.8947    1.6214   21.1408 H       1  UNL1        0.1509
     11 C          -3.0410    3.4555   21.0056 C.3     1  UNL1        0.0777
     12 C          -3.0213    4.3136   22.2358 C.3     1  UNL1        0.0246
     13 C          -4.1568    5.2536   22.5128 C.3     1  UNL1        0.0277
     14 C          -5.3122    5.3356   21.5596 C.ar    1  UNL1       -0.0260
     15 C          -6.4477    6.2757   21.8366 C.ar    1  UNL1       -0.0046
     16 C          -7.6030    6.3577   20.8834 C.ar    1  UNL1       -0.0003
     17 C          -7.6227    5.4996   19.6532 C.ar    1  UNL1       -0.0003
     18 C          -6.4872    4.5596   19.3762 C.ar    1  UNL1       -0.0045
     19 C          -5.3319    4.4776   20.3294 C.ar    1  UNL1       -0.0245
     20 C          -4.1963    3.5375   20.0524 C.3     1  UNL1        0.0456
     21 C           3.7564   -0.8226   18.7157 C.ar    1  UNL1        0.2362
     22 N           4.8204   -1.2313   19.6907 N.ar    1  UNL1       -0.1895
     23 C           5.7490   -2.1803   18.9927 C.ar    1  UNL1        0.2210
     24 N           5.2588   -2.3580   17.5862 N.ar    1  UNL1       -0.0544
     25 O           4.0273   -1.5189   17.4150 O.2     1  UNL1       -0.3370
     26 C           6.9558   -2.8363   19.5953 C.ar    1  UNL1        0.1203
     27 C           8.3284   -2.4644   19.1183 C.ar    1  UNL1        0.0224
     28 C           9.5353   -3.1204   19.7208 C.ar    1  UNL1        0.0032
     29 C           9.3695   -4.1484   20.8006 C.ar    1  UNL1        0.0207
     30 C           7.9969   -4.5203   21.2777 C.ar    1  UNL1        0.0989
     31 N           6.7901   -3.8643   20.6750 N.ar    1  UNL1       -0.2406
@<TRIPOS>BOND
     1     1     2    2
     2     2     3   am
     3     3    11    1
     4    11    12    1
     5    12    13    1
     6    13    14    1
     7    14    15   ar
     8    15    16   ar
     9    16    17   ar
    10    17    18   ar
    11    18    19   ar
    12    19    20    1
    13     2     4   am
    14     4     5    1
    15     5     6    1
    16     6     7    1
    17     7    21    1
    18    21    22   ar
    19    22    23   ar
    20    23    26    1
    21    26    27   ar
    22    27    28   ar
    23    28    29   ar
    24    29    30   ar
    25    30    31   ar
    26    23    24   ar
    27    24    25   ar
    28     7     8    1
    29     8     9    1
    30    20    11    1
    31     9     4    1
    32    19    14   ar
    33    25    21   ar
    34    31    26   ar
    35     3    10    1
@<TRIPOS>MOLECULE
*****
 31 35 0 0 0
SMALL
GASTEIGER

@<TRIPOS>ATOM
      1 O           5.7232    0.1171   25.0398 O.2     1  UNL1       -0.2526
      2 C           4.7178   -0.6806   25.8163 C.2     1  UNL1        0.3039
      3 N           4.1461   -1.9385   25.2326 N.am    1  UNL1       -0.2901
      4 N           4.2841   -0.2204   27.1765 N.am    1  UNL1       -0.2642
      5 C           4.8558    1.0376   27.7602 C.3     1  UNL1        0.0954
      6 C           4.4222    1.4978   29.1204 C.3     1  UNL1        0.0309
      7 C           3.4168    0.7001   29.8969 C.3     1  UNL1        0.0827
      8 C           2.8451   -0.5578   29.3132 C.3     1  UNL1        0.0309
      9 C           3.2788   -1.0181   27.9529 C.3     1  UNL1        0.0954
     10 H           3.4862   -2.4621   25.7422 H       1  UNL1        0.1509
     11 C           4.5798   -2.3988   23.8724 C.3     1  UNL1        0.0777
     12 C           5.7655   -3.3064   23.7305 C.3     1  UNL1        0.0246
     13 C           6.1993   -3.7666   22.3703 C.3     1  UNL1        0.0277
     14 C           5.4472   -3.3192   21.1520 C.ar    1  UNL1       -0.0260
     15 C           5.8809   -3.7795   19.7918 C.ar    1  UNL1       -0.0046
     16 C           5.1288   -3.3320   18.5736 C.ar    1  UNL1       -0.0003
     17 C           3.9431   -2.4244   18.7155 C.ar    1  UNL1       -0.0003
     18 C           3.5094   -1.9642   20.0756 C.ar    1  UNL1       -0.0045
     19 C           4.2614   -2.4116   21.2939 C.ar    1  UNL1       -0.0245
     20 C           3.8277   -1.9514   22.6541 C.3     1  UNL1        0.0456
     21 C           2.9831    1.1603   31.2571 C.ar    1  UNL1        0.2362
     22 N           3.6922    0.8827   32.5493 N.ar    1  UNL1       -0.1895
     23 C           2.9116    1.5298   33.6547 C.ar    1  UNL1        0.2210
     24 N           1.7200    2.2074   33.0456 N.ar    1  UNL1       -0.0544
     25 O           1.7643    1.9791   31.5638 O.2     1  UNL1       -0.3370
     26 C           3.2612    1.5039   35.1132 C.ar    1  UNL1        0.1203
     27 C           4.3916    0.6455   35.5984 C.ar    1  UNL1        0.0224
     28 C           4.7412    0.6195   37.0569 C.ar    1  UNL1        0.0032
     29 C           3.9603    1.4520   38.0302 C.ar    1  UNL1        0.0207
     30 C           2.8299    2.3104   37.5450 C.ar    1  UNL1        0.0989
     31 N           2.4804    2.3363   36.0865 N.ar    1  UNL1       -0.2406
@<TRIPOS>BOND
     1     1     2    2
     2     2     3   am
     3     3    11    1
     4    11    12    1
     5    12    13    1
     6    13    14    1
     7    14    15   ar
     8    15    16   ar
     9    16    17   ar
    10    17    18   ar
    11    18    19   ar
    12    19    20    1
    13     2     4   am
    14     4     5    1
    15     5     6    1
    16     6     7    1
    17     7    21    1
    18    21    22   ar
    19    22    23   ar
    20    23    26    1
    21    26    27   ar
    22    27    28   ar
    23    28    29   ar
    24    29    30   ar
    25    30    31   ar
    26    23    24   ar
    27    24    25   ar
    28     7     8    1
    29     8     9    1
    30    20    11    1
    31     9     4    1
    32    19    14   ar
    33    25    21   ar
    34    31    26   ar
    35     3    10    1
@<TRIPOS>MOLECULE
*****
 31 35 0 0 0
SMALL
GASTEIGER

@<TRIPOS>ATOM
      1 O           7.8279   -2.2122   30.2246 O.2     1  UNL1       -0.2526
      2 C           6.7716   -2.6663   31.1881 C.2     1  UNL1        0.3039
      3 N           6.4095   -4.1194   31.2739 N.am    1  UNL1       -0.2901
      4 N           6.0775   -1.6673   32.0657 N.am    1  UNL1       -0.2642
      5 C           6.4396   -0.2142   31.9799 C.3     1  UNL1        0.0954
      6 C           5.7455    0.7848   32.8575 C.3     1  UNL1        0.0309
      7 C           4.6893    0.3307   33.8209 C.3     1  UNL1        0.0827
      8 C           4.3271   -1.1224   33.9067 C.3     1  UNL1        0.0309
      9 C           5.0213   -2.1214   33.0291 C.3     1  UNL1        0.0954
     10 H           5.7163   -4.4174   31.9062 H       1  UNL1        0.1509
     11 C           7.1036   -5.1184   30.3962 C.3     1  UNL1        0.0777
     12 C           8.2562   -5.9147   30.9324 C.3     1  UNL1        0.0246
     13 C           8.9503   -6.9137   30.0548 C.3     1  UNL1        0.0277
     14 C           8.4920   -7.1164   28.6410 C.ar    1  UNL1       -0.0260
     15 C           9.1861   -8.1153   27.7634 C.ar    1  UNL1       -0.0046
     16 C           8.7277   -8.3179   26.3496 C.ar    1  UNL1       -0.0003
     17 C           7.5752   -7.5216   25.8135 C.ar    1  UNL1       -0.0003
     18 C           6.8810   -6.5227   26.6910 C.ar    1  UNL1       -0.0045
     19 C           7.3394   -6.3200   28.1048 C.ar    1  UNL1       -0.0245
     20 C           6.6452   -5.3210   28.9825 C.3     1  UNL1        0.0456
     21 C           3.9952    1.3297   34.6985 C.ar    1  UNL1        0.2362
     22 N           4.6138    2.0802   35.8404 N.ar    1  UNL1       -0.1895
     23 C           3.5616    2.9679   36.4359 C.ar    1  UNL1        0.2210
     24 N           2.2925    2.7660   35.6621 N.ar    1  UNL1       -0.0544
     25 O           2.5605    1.7535   34.5883 O.2     1  UNL1       -0.3370
     26 C           3.7460    3.8948   37.6008 C.ar    1  UNL1        0.1203
     27 C           3.6234    5.3771   37.4065 C.ar    1  UNL1        0.0224
     28 C           3.8077    6.3041   38.5713 C.ar    1  UNL1        0.0032
     29 C           4.1148    5.7486   39.9305 C.ar    1  UNL1        0.0207
     30 C           4.2374    4.2663   40.1248 C.ar    1  UNL1        0.0989
     31 N           4.0530    3.3394   38.9599 N.ar    1  UNL1       -0.2406
@<TRIPOS>BOND
     1     1     2    2
     2     2     3   am
     3     3    11    1
     4    11    12    1
     5    12    13    1
     6    13    14    1
     7    14    15   ar
     8    15    16   ar
     9    16    17   ar
    10    17    18   ar
    11    18    19   ar
    12    19    20    1
    13     2     4   am
    14     4     5    1
    15     5     6    1
    16     6     7    1
    17     7    21    1
    18    21    22   ar
    19    22    23   ar
    20    23    26    1
    21    26    27   ar
    22    27    28   ar
    23    28    29   ar
    24    29    30   ar
    25    30    31   ar
    26    23    24   ar
    27    24    25   ar
    28     7     8    1
    29     8     9    1
    30    20    11    1
    31     9     4    1
    32    19    14   ar
    33    25    21   ar
    34    31    26   ar
    35     3    10    1
@<TRIPOS>MOLECULE
*****
 31 35 0 0 0
SMALL
GASTEIGER

@<TRIPOS>ATOM
      1 O           5.7224   -1.0961   24.9958 O.2     1  UNL1       -0.2526
      2 C           4.3950   -0.9974   25.6875 C.2     1  UNL1        0.3039
      3 N           3.1337   -0.9076   24.8806 N.am    1  UNL1       -0.2901
      4 N           4.3290   -0.9885   27.1860 N.am    1  UNL1       -0.2642
      5 C           5.5904   -1.0782   27.9928 C.3     1  UNL1        0.0954
      6 C           5.5243   -1.0693   29.4913 C.3     1  UNL1        0.0309
      7 C           4.1970   -0.9706   30.1830 C.3     1  UNL1        0.0827
      8 C           2.9356   -0.8808   29.3762 C.3     1  UNL1        0.0309
      9 C           3.0017   -0.8898   27.8776 C.3     1  UNL1        0.0954
     10 H           2.2625   -0.8429   25.3346 H       1  UNL1        0.1509
     11 C           3.1998   -0.9166   23.3821 C.3     1  UNL1        0.0777
     12 C           2.5627    0.1912   22.5967 C.3     1  UNL1        0.0246
     13 C           2.6287    0.1823   21.0982 C.3     1  UNL1        0.0277
     14 C           3.3319   -0.9344   20.3850 C.ar    1  UNL1       -0.0260
     15 C           3.3979   -0.9433   18.8865 C.ar    1  UNL1       -0.0046
     16 C           4.1011   -2.0600   18.1735 C.ar    1  UNL1       -0.0003
     17 C           4.7383   -3.1678   18.9589 C.ar    1  UNL1       -0.0003
     18 C           4.6722   -3.1589   20.4574 C.ar    1  UNL1       -0.0045
     19 C           3.9690   -2.0422   21.1704 C.ar    1  UNL1       -0.0245
     20 C           3.9030   -2.0333   22.6690 C.3     1  UNL1        0.0456
     21 C           4.1309   -0.9616   31.6815 C.ar    1  UNL1        0.2362
     22 N           4.2806    0.2424   32.5635 N.ar    1  UNL1       -0.1895
     23 C           4.1459   -0.2070   33.9882 C.ar    1  UNL1        0.2210
     24 N           3.9129   -1.6888   33.9868 N.ar    1  UNL1       -0.0544
     25 O           3.9036   -2.1552   32.5612 O.2     1  UNL1       -0.3370
     26 C           4.2294    0.6713   35.2014 C.ar    1  UNL1        0.1203
     27 C           4.6549    0.0927   36.5183 C.ar    1  UNL1        0.0224
     28 C           4.7384    0.9709   37.7315 C.ar    1  UNL1        0.0032
     29 C           4.3965    2.4277   37.6277 C.ar    1  UNL1        0.0207
     30 C           3.9711    3.0063   36.3108 C.ar    1  UNL1        0.0989
     31 N           3.8875    2.1281   35.0976 N.ar    1  UNL1       -0.2406
@<TRIPOS>BOND
     1     1     2    2
     2     2     3   am
     3     3    11    1
     4    11    12    1
     5    12    13    1
     6    13    14    1
     7    14    15   ar
     8    15    16   ar
     9    16    17   ar
    10    17    18   ar
    11    18    19   ar
    12    19    20    1
    13     2     4   am
    14     4     5    1
    15     5     6    1
    16     6     7    1
    17     7    21    1
    18    21    22   ar
    19    22    23   ar
    20    23    26    1
    21    26    27   ar
    22    27    28   ar
    23    28    29   ar
    24    29    30   ar
    25    30    31   ar
    26    23    24   ar
    27    24    25   ar
    28     7     8    1
    29     8     9    1
    30    20    11    1
    31     9     4    1
    32    19    14   ar
    33    25    21   ar
    34    31    26   ar
    35     3    10    1
@<TRIPOS>MOLECULE
*****
 31 35 0 0 0
SMALL
GASTEIGER

@<TRIPOS>ATOM
      1 O           2.4141   -0.0820   31.7530 O.2     1  UNL1       -0.2526
      2 C           3.8515   -0.3007   31.3838 C.2     1  UNL1        0.3039
      3 N           4.9258   -0.1271   32.4161 N.am    1  UNL1       -0.2901
      4 N           4.2145   -0.6930   29.9823 N.am    1  UNL1       -0.2642
      5 C           3.1402   -0.8667   28.9499 C.3     1  UNL1        0.0954
      6 C           3.5032   -1.2590   27.5484 C.3     1  UNL1        0.0309
      7 C           4.9405   -1.4777   27.1792 C.3     1  UNL1        0.0827
      8 C           6.0148   -1.3040   28.2115 C.3     1  UNL1        0.0309
      9 C           5.6518   -0.9117   29.6131 C.3     1  UNL1        0.0954
     10 H           5.8691   -0.2706   32.1738 H       1  UNL1        0.1509
     11 C           4.5627    0.2652   33.8177 C.3     1  UNL1        0.0777
     12 C           5.0012   -0.5862   34.9723 C.3     1  UNL1        0.0246
     13 C           4.6381   -0.1939   36.3738 C.3     1  UNL1        0.0277
     14 C           3.8367    1.0498   36.6208 C.ar    1  UNL1       -0.0260
     15 C           3.4737    1.4421   38.0223 C.ar    1  UNL1       -0.0046
     16 C           2.6722    2.6857   38.2693 C.ar    1  UNL1       -0.0003
     17 C           2.2338    3.5371   37.1148 C.ar    1  UNL1       -0.0003
     18 C           2.5968    3.1448   35.7133 C.ar    1  UNL1       -0.0045
     19 C           3.3983    1.9012   35.4663 C.ar    1  UNL1       -0.0245
     20 C           3.7613    1.5088   34.0647 C.3     1  UNL1        0.0456
     21 C           5.3035   -1.8700   25.7777 C.ar    1  UNL1        0.2362
     22 N           4.3475   -2.0424   24.6348 N.ar    1  UNL1       -0.1895
     23 C           5.1393   -2.4377   23.4237 C.ar    1  UNL1        0.2210
     24 N           6.5848   -2.5096   23.8181 N.ar    1  UNL1       -0.0544
     25 O           6.6862   -2.1587   25.2730 O.2     1  UNL1       -0.3370
     26 C           4.5834   -2.7129   22.0580 C.ar    1  UNL1        0.1203
     27 C           3.7092   -1.6963   21.3853 C.ar    1  UNL1        0.0224
     28 C           3.1532   -1.9714   20.0195 C.ar    1  UNL1        0.0032
     29 C           3.4715   -3.2631   19.3265 C.ar    1  UNL1        0.0207
     30 C           4.3456   -4.2796   19.9991 C.ar    1  UNL1        0.0989
     31 N           4.9016   -4.0045   21.3649 N.ar    1  UNL1       -0.2406
@<TRIPOS>BOND
     1     1     2    2
     2     2     3   am
     3     3    11    1
     4    11    12    1
     5    12    13    1
     6    13    14    1
     7    14    15   ar
     8    15    16   ar
     9    16    17   ar
    10    17    18   ar
    11    18    19   ar
    12    19    20    1
    13     2     4   am
    14     4     5    1
    15     5     6    1
    16     6     7    1
    17     7    21    1
    18    21    22   ar
    19    22    23   ar
    20    23    26    1
    21    26    27   ar
    22    27    28   ar
    23    28    29   ar
    24    29    30   ar
    25    30    31   ar
    26    23    24   ar
    27    24    25   ar
    28     7     8    1
    29     8     9    1
    30    20    11    1
    31     9     4    1
    32    19    14   ar
    33    25    21   ar
    34    31    26   ar
    35     3    10    1
@<TRIPOS>MOLECULE
*****
 31 35 0 0 0
SMALL
GASTEIGER

@<TRIPOS>ATOM
      1 O           4.6509   -4.4784   21.2035 O.2     1  UNL1       -0.2526
      2 C           5.2312   -3.1044   21.3630 C.2     1  UNL1        0.3039
      3 N           6.5284   -2.9182   22.0929 N.am    1  UNL1       -0.2901
      4 N           4.5143   -1.9167   20.7927 N.am    1  UNL1       -0.2642
      5 C           3.2172   -2.1028   20.0628 C.3     1  UNL1        0.0954
      6 C           2.5003   -0.9151   19.4925 C.3     1  UNL1        0.0309
      7 C           3.0806    0.4589   19.6520 C.3     1  UNL1        0.0827
      8 C           4.3778    0.6451   20.3819 C.3     1  UNL1        0.0309
      9 C           5.0946   -0.5427   20.9522 C.3     1  UNL1        0.0954
     10 H           6.9092   -2.0164   22.1976 H       1  UNL1        0.1509
     11 C           7.2452   -4.1061   22.6632 C.3     1  UNL1        0.0777
     12 C           8.2664   -4.8327   21.8390 C.3     1  UNL1        0.0246
     13 C           8.9832   -6.0205   22.4093 C.3     1  UNL1        0.0277
     14 C           8.6789   -6.4817   23.8038 C.ar    1  UNL1       -0.0260
     15 C           9.3958   -7.6695   24.3741 C.ar    1  UNL1       -0.0046
     16 C           9.0915   -8.1307   25.7686 C.ar    1  UNL1       -0.0003
     17 C           8.0704   -7.4041   26.5928 C.ar    1  UNL1       -0.0003
     18 C           7.3535   -6.2163   26.0226 C.ar    1  UNL1       -0.0045
     19 C           7.6578   -5.7551   24.6281 C.ar    1  UNL1       -0.0245
     20 C           6.9410   -4.5673   24.0577 C.3     1  UNL1        0.0456
     21 C           2.3638    1.6467   19.0817 C.ar    1  UNL1        0.2362
     22 N           0.8822    1.7704   18.8829 N.ar    1  UNL1       -0.1895
     23 C           0.6053    3.1194   18.2883 C.ar    1  UNL1        0.2210
     24 N           1.9159    3.8295   18.1198 N.ar    1  UNL1       -0.0544
     25 O           3.0026    2.9193   18.6101 O.2     1  UNL1       -0.3370
     26 C          -0.7450    3.6630   17.9260 C.ar    1  UNL1        0.1203
     27 C          -1.7763    3.8819   18.9929 C.ar    1  UNL1        0.0224
     28 C          -3.1266    4.4255   18.6307 C.ar    1  UNL1        0.0032
     29 C          -3.4455    4.7502   17.2013 C.ar    1  UNL1        0.0207
     30 C          -2.4142    4.5312   16.1344 C.ar    1  UNL1        0.0989
     31 N          -1.0639    3.9877   16.4967 N.ar    1  UNL1       -0.2406
@<TRIPOS>BOND
     1     1     2    2
     2     2     3   am
     3     3    11    1
     4    11    12    1
     5    12    13    1
     6    13    14    1
     7    14    15   ar
     8    15    16   ar
     9    16    17   ar
    10    17    18   ar
    11    18    19   ar
    12    19    20    1
    13     2     4   am
    14     4     5    1
    15     5     6    1
    16     6     7    1
    17     7    21    1
    18    21    22   ar
    19    22    23   ar
    20    23    26    1
    21    26    27   ar
    22    27    28   ar
    23    28    29   ar
    24    29    30   ar
    25    30    31   ar
    26    23    24   ar
    27    24    25   ar
    28     7     8    1
    29     8     9    1
    30    20    11    1
    31     9     4    1
    32    19    14   ar
    33    25    21   ar
    34    31    26   ar
    35     3    10    1
@<TRIPOS>MOLECULE
*****
 31 35 0 0 0
SMALL
GASTEIGER

@<TRIPOS>ATOM
      1 O           6.6029   -3.7686   31.3385 O.2     1  UNL1       -0.2526
      2 C           6.1982   -2.7473   30.3171 C.2     1  UNL1        0.3039
      3 N           5.6720   -1.4136   30.7577 N.am    1  UNL1       -0.2901
      4 N           6.3198   -3.0597   28.8551 N.am    1  UNL1       -0.2642
      5 C           6.8461   -4.3935   28.4144 C.3     1  UNL1        0.0954
      6 C           6.9677   -4.7059   26.9524 C.3     1  UNL1        0.0309
      7 C           6.5631   -3.6846   25.9309 C.3     1  UNL1        0.0827
      8 C           6.0368   -2.3509   26.3716 C.3     1  UNL1        0.0309
      9 C           5.9152   -2.0385   27.8337 C.3     1  UNL1        0.0954
     10 H           5.4064   -0.7432   30.0874 H       1  UNL1        0.1509
     11 C           5.5503   -1.1011   32.2198 C.3     1  UNL1        0.0777
     12 C           4.4042   -1.6560   33.0125 C.3     1  UNL1        0.0246
     13 C           4.2825   -1.3436   34.4745 C.3     1  UNL1        0.0277
     14 C           5.3071   -0.4763   35.1440 C.ar    1  UNL1       -0.0260
     15 C           5.1855   -0.1639   36.6060 C.ar    1  UNL1       -0.0046
     16 C           6.2100    0.7033   37.2754 C.ar    1  UNL1       -0.0003
     17 C           7.3562    1.2582   36.4827 C.ar    1  UNL1       -0.0003
     18 C           7.4778    0.9459   35.0206 C.ar    1  UNL1       -0.0045
     19 C           6.4533    0.0786   34.3513 C.ar    1  UNL1       -0.0245
     20 C           6.5749   -0.2338   32.8892 C.3     1  UNL1        0.0456
     21 C           6.6847   -3.9971   24.4689 C.ar    1  UNL1        0.2362
     22 N           5.9882   -3.2769   23.3525 N.ar    1  UNL1       -0.1895
     23 C           6.3972   -3.9193   22.0602 C.ar    1  UNL1        0.2210
     24 N           7.3465   -5.0365   22.3779 N.ar    1  UNL1       -0.0544
     25 O           7.5241   -5.0845   23.8666 O.2     1  UNL1       -0.3370
     26 C           5.9376   -3.5154   20.6907 C.ar    1  UNL1        0.1203
     27 C           4.5326   -3.8078   20.2544 C.ar    1  UNL1        0.0224
     28 C           4.0729   -3.4040   18.8849 C.ar    1  UNL1        0.0032
     29 C           5.0185   -2.7077   17.9515 C.ar    1  UNL1        0.0207
     30 C           6.4236   -2.4153   18.3877 C.ar    1  UNL1        0.0989
     31 N           6.8831   -2.8191   19.7573 N.ar    1  UNL1       -0.2406
@<TRIPOS>BOND
     1     1     2    2
     2     2     3   am
     3     3    11    1
     4    11    12    1
     5    12    13    1
     6    13    14    1
     7    14    15   ar
     8    15    16   ar
     9    16    17   ar
    10    17    18   ar
    11    18    19   ar
    12    19    20    1
    13     2     4   am
    14     4     5    1
    15     5     6    1
    16     6     7    1
    17     7    21    1
    18    21    22   ar
    19    22    23   ar
    20    23    26    1
    21    26    27   ar
    22    27    28   ar
    23    28    29   ar
    24    29    30   ar
    25    30    31   ar
    26    23    24   ar
    27    24    25   ar
    28     7     8    1
    29     8     9    1
    30    20    11    1
    31     9     4    1
    32    19    14   ar
    33    25    21   ar
    34    31    26   ar
    35     3    10    1
