@<TRIPOS>MOLECULE
*****
 25 27 0 0 0
SMALL
GASTEIGER

@<TRIPOS>ATOM
      1 C          -7.5540  -16.6675   22.2947 C.3     1  UNL1        0.1217
      2 C          -7.3537  -16.2883   23.7321 C.ar    1  UNL1       -0.0045
      3 C          -6.0290  -15.7534   24.1891 C.ar    1  UNL1       -0.0029
      4 C          -5.8287  -15.3742   25.6264 C.ar    1  UNL1       -0.0003
      5 C          -6.9533  -15.5300   26.6069 C.ar    1  UNL1       -0.0000
      6 C          -8.2780  -16.0649   26.1499 C.ar    1  UNL1       -0.0003
      7 C          -8.4782  -16.4441   24.7125 C.ar    1  UNL1       -0.0026
      8 C          -9.8030  -16.9791   24.2555 C.ar    1  UNL1       -0.0003
      9 C         -10.5903  -16.2419   23.2130 C.ar    1  UNL1       -0.0000
     10 C         -11.9150  -16.7768   22.7560 C.ar    1  UNL1       -0.0000
     11 C         -12.4525  -18.0490   23.3414 C.ar    1  UNL1       -0.0000
     12 C         -11.6652  -18.7862   24.3839 C.ar    1  UNL1       -0.0000
     13 C         -10.3404  -18.2512   24.8409 C.ar    1  UNL1       -0.0000
     14 N          -7.3803  -18.0939   21.8641 N.3     1  UNL1       -0.1550
     15 C          -6.0038  -18.6512   21.6528 C.3     1  UNL1        0.0966
     16 C          -4.8820  -18.6310   22.6484 C.3     1  UNL1        0.0362
     17 C          -3.6923  -19.2939   22.0198 C.3     1  UNL1        0.0701
     18 N          -4.0789  -19.7238   20.6356 N.3     1  UNL1       -0.2963
     19 C          -5.5074  -19.3266   20.4089 C.3     1  UNL1        0.0865
     20 H          -3.9828  -20.7354   20.5479 H       1  UNL1        0.1233
     21 S          -8.5831  -18.9629   21.6448 S.O2    1  UNL1        0.0441
     22 O          -8.1108  -19.8895   22.7256 O.2     1  UNL1       -0.1573
     23 O          -9.0554  -18.0363   20.5639 O.2     1  UNL1       -0.1573
     24 C         -10.7627  -19.4996   20.3367 C.3     1  UNL1        0.0289
     25 C          -9.7859  -19.8318   21.4255 C.3     1  UNL1        0.1692
@<TRIPOS>BOND
     1    24    25    1
     2    25    21    1
     3    21    22    2
     4    21    23    2
     5    21    14    1
     6    14     1    1
     7     1     2    1
     8     2     3   ar
     9     3     4   ar
    10     4     5   ar
    11     5     6   ar
    12     6     7   ar
    13     7     8    1
    14     8     9   ar
    15     9    10   ar
    16    10    11   ar
    17    11    12   ar
    18    12    13   ar
    19    15    14    1
    20    15    16    1
    21    16    17    1
    22    17    18    1
    23    18    19    1
    24     7     2   ar
    25    13     8   ar
    26    19    15    1
    27    18    20    1
@<TRIPOS>MOLECULE
*****
 25 27 0 0 0
SMALL
GASTEIGER

@<TRIPOS>ATOM
      1 C          -7.9851  -16.3896   21.9951 C.3     1  UNL1        0.1217
      2 C          -7.6741  -16.1432   23.4417 C.ar    1  UNL1       -0.0045
      3 C          -6.3064  -15.6790   23.8463 C.ar    1  UNL1       -0.0029
      4 C          -5.9954  -15.4326   25.2929 C.ar    1  UNL1       -0.0003
      5 C          -7.0523  -15.6504   26.3348 C.ar    1  UNL1       -0.0000
      6 C          -8.4200  -16.1145   25.9302 C.ar    1  UNL1       -0.0003
      7 C          -8.7309  -16.3609   24.4837 C.ar    1  UNL1       -0.0026
      8 C         -10.0988  -16.8251   24.0790 C.ar    1  UNL1       -0.0003
      9 C         -10.5878  -18.1781   24.5038 C.ar    1  UNL1       -0.0000
     10 C         -11.9555  -18.6423   24.0992 C.ar    1  UNL1       -0.0000
     11 C         -12.8343  -17.7535   23.2698 C.ar    1  UNL1       -0.0000
     12 C         -12.3453  -16.4006   22.8450 C.ar    1  UNL1       -0.0000
     13 C         -10.9775  -15.9364   23.2496 C.ar    1  UNL1       -0.0000
     14 N          -8.1854  -17.7910   21.4992 N.3     1  UNL1       -0.1550
     15 C          -9.5060  -18.1988   20.9164 C.3     1  UNL1        0.0966
     16 C         -10.1717  -19.5320   21.0883 C.3     1  UNL1        0.0362
     17 C         -11.4699  -19.5022   20.3374 C.3     1  UNL1        0.0701
     18 N         -11.6065  -18.1505   19.7015 N.3     1  UNL1       -0.2963
     19 C         -10.3928  -17.3450   20.0593 C.3     1  UNL1        0.0865
     20 H         -12.4451  -17.6867   20.0509 H       1  UNL1        0.1233
     21 S          -7.0650  -18.7847   21.5862 S.O2    1  UNL1        0.0441
     22 O          -7.6755  -19.3643   22.8277 O.2     1  UNL1       -0.1573
     23 O          -6.4546  -18.2051   20.3447 O.2     1  UNL1       -0.1573
     24 C          -5.7933  -20.8323   20.6166 C.3     1  UNL1        0.0289
     25 C          -5.9447  -19.7783   21.6732 C.3     1  UNL1        0.1692
@<TRIPOS>BOND
     1    24    25    1
     2    25    21    1
     3    21    22    2
     4    21    23    2
     5    21    14    1
     6    14     1    1
     7     1     2    1
     8     2     3   ar
     9     3     4   ar
    10     4     5   ar
    11     5     6   ar
    12     6     7   ar
    13     7     8    1
    14     8     9   ar
    15     9    10   ar
    16    10    11   ar
    17    11    12   ar
    18    12    13   ar
    19    15    14    1
    20    15    16    1
    21    16    17    1
    22    17    18    1
    23    18    19    1
    24     7     2   ar
    25    13     8   ar
    26    19    15    1
    27    18    20    1
@<TRIPOS>MOLECULE
*****
 25 27 0 0 0
SMALL
GASTEIGER

@<TRIPOS>ATOM
      1 C          -8.1643  -18.5654   22.6487 C.3     1  UNL1        0.1217
      2 C          -8.5158  -19.1234   21.3014 C.ar    1  UNL1       -0.0045
      3 C          -9.9543  -19.2804   20.9067 C.ar    1  UNL1       -0.0029
      4 C         -10.3057  -19.8384   19.5595 C.ar    1  UNL1       -0.0003
      5 C          -9.2186  -20.2395   18.6070 C.ar    1  UNL1       -0.0000
      6 C          -7.7800  -20.0825   19.0017 C.ar    1  UNL1       -0.0003
      7 C          -7.4286  -19.5244   20.3489 C.ar    1  UNL1       -0.0026
      8 C          -5.9900  -19.3674   20.7437 C.ar    1  UNL1       -0.0003
      9 C          -5.5616  -19.6639   22.1503 C.ar    1  UNL1       -0.0000
     10 C          -4.1231  -19.5069   22.5451 C.ar    1  UNL1       -0.0000
     11 C          -3.1128  -19.0534   21.5332 C.ar    1  UNL1       -0.0000
     12 C          -3.5412  -18.7570   20.1266 C.ar    1  UNL1       -0.0000
     13 C          -4.9798  -18.9140   19.7318 C.ar    1  UNL1       -0.0000
     14 N          -8.5577  -17.1625   23.0053 N.3     1  UNL1       -0.1550
     15 C          -7.5603  -16.2438   23.6466 C.3     1  UNL1        0.0966
     16 C          -6.0707  -16.3068   23.4822 C.3     1  UNL1        0.0362
     17 C          -5.4671  -15.2028   24.2989 C.3     1  UNL1        0.0701
     18 N          -6.5838  -14.4575   24.9680 N.3     1  UNL1       -0.2963
     19 C          -7.8775  -15.1010   24.5649 C.3     1  UNL1        0.0865
     20 H          -6.5754  -13.4817   24.6713 H       1  UNL1        0.1233
     21 S          -9.9486  -16.6783   22.7206 S.O2    1  UNL1        0.0441
     22 O         -10.4588  -17.4490   23.9020 O.2     1  UNL1       -0.1573
     23 O          -9.4384  -15.9076   21.5392 O.2     1  UNL1       -0.1573
     24 C         -12.5088  -17.1120   22.6356 C.3     1  UNL1        0.0289
     25 C         -11.3394  -16.1941   22.4358 C.3     1  UNL1        0.1692
@<TRIPOS>BOND
     1    24    25    1
     2    25    21    1
     3    21    22    2
     4    21    23    2
     5    21    14    1
     6    14     1    1
     7     1     2    1
     8     2     3   ar
     9     3     4   ar
    10     4     5   ar
    11     5     6   ar
    12     6     7   ar
    13     7     8    1
    14     8     9   ar
    15     9    10   ar
    16    10    11   ar
    17    11    12   ar
    18    12    13   ar
    19    15    14    1
    20    15    16    1
    21    16    17    1
    22    17    18    1
    23    18    19    1
    24     7     2   ar
    25    13     8   ar
    26    19    15    1
    27    18    20    1
@<TRIPOS>MOLECULE
*****
 25 27 0 0 0
SMALL
GASTEIGER

@<TRIPOS>ATOM
      1 C          -8.3037  -18.7268   22.7211 C.3     1  UNL1        0.1217
      2 C          -8.5652  -19.2169   21.3277 C.ar    1  UNL1       -0.0045
      3 C          -9.9723  -19.3060   20.8157 C.ar    1  UNL1       -0.0029
      4 C         -10.2338  -19.7960   19.4224 C.ar    1  UNL1       -0.0003
      5 C          -9.0882  -20.1969   18.5410 C.ar    1  UNL1       -0.0000
      6 C          -7.6811  -20.1078   19.0529 C.ar    1  UNL1       -0.0003
      7 C          -7.4196  -19.6178   20.4463 C.ar    1  UNL1       -0.0026
      8 C          -6.0125  -19.5287   20.9583 C.ar    1  UNL1       -0.0003
      9 C          -4.9027  -20.2236   20.2265 C.ar    1  UNL1       -0.0000
     10 C          -3.4956  -20.1345   20.7384 C.ar    1  UNL1       -0.0000
     11 C          -3.1983  -19.3506   21.9823 C.ar    1  UNL1       -0.0000
     12 C          -4.3081  -18.6557   22.7141 C.ar    1  UNL1       -0.0000
     13 C          -5.7152  -18.7448   22.2021 C.ar    1  UNL1       -0.0000
     14 N          -8.9939  -17.4938   23.2244 N.3     1  UNL1       -0.1550
     15 C         -10.4923  -17.4288   23.2455 C.3     1  UNL1        0.0966
     16 C         -11.4079  -18.4071   23.9197 C.3     1  UNL1        0.0362
     17 C         -12.8197  -17.9569   23.6869 C.3     1  UNL1        0.0701
     18 N         -12.7766  -16.7003   22.8688 N.3     1  UNL1       -0.2963
     19 C         -11.3382  -16.3739   22.5960 C.3     1  UNL1        0.0865
     20 H         -13.2131  -15.9363   23.3846 H       1  UNL1        0.1233
     21 S          -8.1856  -16.3258   23.7067 S.O2    1  UNL1        0.0441
     22 O          -7.7542  -16.0428   22.2982 O.2     1  UNL1       -0.1573
     23 O          -8.6170  -16.6089   25.1151 O.2     1  UNL1       -0.1573
     24 C          -5.8803  -15.2454   24.2248 C.3     1  UNL1        0.0289
     25 C          -7.3773  -15.1579   24.1889 C.3     1  UNL1        0.1692
@<TRIPOS>BOND
     1    24    25    1
     2    25    21    1
     3    21    22    2
     4    21    23    2
     5    21    14    1
     6    14     1    1
     7     1     2    1
     8     2     3   ar
     9     3     4   ar
    10     4     5   ar
    11     5     6   ar
    12     6     7   ar
    13     7     8    1
    14     8     9   ar
    15     9    10   ar
    16    10    11   ar
    17    11    12   ar
    18    12    13   ar
    19    15    14    1
    20    15    16    1
    21    16    17    1
    22    17    18    1
    23    18    19    1
    24     7     2   ar
    25    13     8   ar
    26    19    15    1
    27    18    20    1
@<TRIPOS>MOLECULE
*****
 25 27 0 0 0
SMALL
GASTEIGER

@<TRIPOS>ATOM
      1 C          -8.3452  -18.2292   22.9979 C.3     1  UNL1        0.1217
      2 C          -8.7105  -18.8505   21.6824 C.ar    1  UNL1       -0.0045
      3 C          -7.6438  -19.1430   20.6692 C.ar    1  UNL1       -0.0029
      4 C          -8.0092  -19.7643   19.3537 C.ar    1  UNL1       -0.0003
      5 C          -9.4411  -20.0931   19.0515 C.ar    1  UNL1       -0.0000
      6 C         -10.5078  -19.8006   20.0647 C.ar    1  UNL1       -0.0003
      7 C         -10.1424  -19.1793   21.3801 C.ar    1  UNL1       -0.0026
      8 C         -11.2091  -18.8868   22.3935 C.ar    1  UNL1       -0.0003
      9 C         -11.0422  -19.3456   23.8118 C.ar    1  UNL1       -0.0000
     10 C         -12.1088  -19.0531   24.8251 C.ar    1  UNL1       -0.0000
     11 C         -13.3424  -18.3018   24.4201 C.ar    1  UNL1       -0.0000
     12 C         -13.5092  -17.8430   23.0017 C.ar    1  UNL1       -0.0000
     13 C         -12.4426  -18.1355   21.9884 C.ar    1  UNL1       -0.0000
     14 N          -8.2985  -16.7362   23.1350 N.3     1  UNL1       -0.1550
     15 C          -7.4938  -16.1087   24.2343 C.3     1  UNL1        0.0966
     16 C          -6.0096  -15.8913   24.2267 C.3     1  UNL1        0.0362
     17 C          -5.6304  -15.2367   25.5220 C.3     1  UNL1        0.0701
     18 N          -6.8802  -15.0496   26.3301 N.3     1  UNL1       -0.2963
     19 C          -8.0318  -15.5886   25.5343 C.3     1  UNL1        0.0865
     20 H          -7.0245  -14.0578   26.5198 H       1  UNL1        0.1233
     21 S          -9.0568  -15.8706   22.1727 S.O2    1  UNL1        0.0441
     22 O          -7.8174  -15.7062   21.3440 O.2     1  UNL1       -0.1573
     23 O         -10.2962  -16.0351   23.0014 O.2     1  UNL1       -0.1573
     24 C         -10.8000  -15.6223   20.2623 C.3     1  UNL1        0.0289
     25 C          -9.8150  -15.0051   21.2104 C.3     1  UNL1        0.1692
@<TRIPOS>BOND
     1    24    25    1
     2    25    21    1
     3    21    22    2
     4    21    23    2
     5    21    14    1
     6    14     1    1
     7     1     2    1
     8     2     3   ar
     9     3     4   ar
    10     4     5   ar
    11     5     6   ar
    12     6     7   ar
    13     7     8    1
    14     8     9   ar
    15     9    10   ar
    16    10    11   ar
    17    11    12   ar
    18    12    13   ar
    19    15    14    1
    20    15    16    1
    21    16    17    1
    22    17    18    1
    23    18    19    1
    24     7     2   ar
    25    13     8   ar
    26    19    15    1
    27    18    20    1
@<TRIPOS>MOLECULE
*****
 25 27 0 0 0
SMALL
GASTEIGER

@<TRIPOS>ATOM
      1 C          -7.5856  -16.6328   22.6586 C.3     1  UNL1        0.1217
      2 C          -6.5435  -17.7068   22.5548 C.ar    1  UNL1       -0.0045
      3 C          -5.1367  -17.4320   22.9968 C.ar    1  UNL1       -0.0029
      4 C          -4.0947  -18.5059   22.8930 C.ar    1  UNL1       -0.0003
      5 C          -4.4594  -19.8546   22.3471 C.ar    1  UNL1       -0.0000
      6 C          -5.8662  -20.1294   21.9051 C.ar    1  UNL1       -0.0003
      7 C          -6.9082  -19.0555   22.0089 C.ar    1  UNL1       -0.0026
      8 C          -8.3151  -19.3302   21.5668 C.ar    1  UNL1       -0.0003
      9 C          -8.7688  -18.9052   20.2017 C.ar    1  UNL1       -0.0000
     10 C         -10.1755  -19.1799   19.7596 C.ar    1  UNL1       -0.0000
     11 C         -11.1287  -19.8797   20.6826 C.ar    1  UNL1       -0.0000
     12 C         -10.6750  -20.3047   22.0477 C.ar    1  UNL1       -0.0000
     13 C          -9.2681  -20.0300   22.4898 C.ar    1  UNL1       -0.0000
     14 N          -8.4240  -16.5186   23.8972 N.3     1  UNL1       -0.1550
     15 C          -7.8375  -15.9357   25.1487 C.3     1  UNL1        0.0966
     16 C          -8.4510  -15.9865   26.5166 C.3     1  UNL1        0.0362
     17 C          -7.5272  -15.2819   27.4653 C.3     1  UNL1        0.0701
     18 N          -6.3429  -14.7956   26.6838 N.3     1  UNL1       -0.2963
     19 C          -6.5347  -15.1996   25.2520 C.3     1  UNL1        0.0865
     20 H          -5.4894  -15.2165   27.0509 H       1  UNL1        0.1233
     21 S          -9.8489  -16.9872   23.8842 S.O2    1  UNL1        0.0441
     22 O         -10.1387  -16.0743   22.7299 O.2     1  UNL1       -0.1573
     23 O          -9.5591  -17.9002   25.0385 O.2     1  UNL1       -0.1573
     24 C         -12.2150  -16.9653   22.8114 C.3     1  UNL1        0.0289
     25 C         -11.2737  -17.4559   23.8713 C.3     1  UNL1        0.1692
@<TRIPOS>BOND
     1    24    25    1
     2    25    21    1
     3    21    22    2
     4    21    23    2
     5    21    14    1
     6    14     1    1
     7     1     2    1
     8     2     3   ar
     9     3     4   ar
    10     4     5   ar
    11     5     6   ar
    12     6     7   ar
    13     7     8    1
    14     8     9   ar
    15     9    10   ar
    16    10    11   ar
    17    11    12   ar
    18    12    13   ar
    19    15    14    1
    20    15    16    1
    21    16    17    1
    22    17    18    1
    23    18    19    1
    24     7     2   ar
    25    13     8   ar
    26    19    15    1
    27    18    20    1
@<TRIPOS>MOLECULE
*****
 25 27 0 0 0
SMALL
GASTEIGER

@<TRIPOS>ATOM
      1 C          -7.8234  -19.4017   22.3769 C.3     1  UNL1        0.1217
      2 C          -8.4470  -19.5859   21.0251 C.ar    1  UNL1       -0.0045
      3 C          -7.5898  -19.9361   19.8451 C.ar    1  UNL1       -0.0029
      4 C          -8.2135  -20.1204   18.4934 C.ar    1  UNL1       -0.0003
      5 C          -9.6944  -19.9544   18.3218 C.ar    1  UNL1       -0.0000
      6 C         -10.5516  -19.6042   19.5018 C.ar    1  UNL1       -0.0003
      7 C          -9.9279  -19.4200   20.8535 C.ar    1  UNL1       -0.0026
      8 C         -10.7851  -19.0698   22.0336 C.ar    1  UNL1       -0.0003
      9 C         -10.6083  -19.7997   23.3320 C.ar    1  UNL1       -0.0000
     10 C         -11.4654  -19.4496   24.5121 C.ar    1  UNL1       -0.0000
     11 C         -12.4995  -18.3694   24.3938 C.ar    1  UNL1       -0.0000
     12 C         -12.6764  -17.6394   23.0954 C.ar    1  UNL1       -0.0000
     13 C         -11.8192  -17.9896   21.9153 C.ar    1  UNL1       -0.0000
     14 N          -7.1070  -18.1252   22.7046 N.3     1  UNL1       -0.1550
     15 C          -5.6088  -18.0722   22.6560 C.3     1  UNL1        0.0966
     16 C          -4.7351  -17.1197   23.4172 C.3     1  UNL1        0.0362
     17 C          -3.3075  -17.4212   23.0693 C.3     1  UNL1        0.0701
     18 N          -3.2989  -18.5601   22.0931 N.3     1  UNL1       -0.2963
     19 C          -4.7212  -18.9624   21.8377 C.3     1  UNL1        0.0865
     20 H          -2.7814  -19.3473   22.4841 H       1  UNL1        0.1233
     21 S          -7.8890  -16.9017   23.0810 S.O2    1  UNL1        0.0441
     22 O          -7.6082  -16.3074   21.7327 O.2     1  UNL1       -0.1573
     23 O          -8.1698  -17.4959   24.4293 O.2     1  UNL1       -0.1573
     24 C          -9.0145  -15.4204   24.8945 C.3     1  UNL1        0.0289
     25 C          -8.6709  -15.6782   23.4574 C.3     1  UNL1        0.1692
@<TRIPOS>BOND
     1    24    25    1
     2    25    21    1
     3    21    22    2
     4    21    23    2
     5    21    14    1
     6    14     1    1
     7     1     2    1
     8     2     3   ar
     9     3     4   ar
    10     4     5   ar
    11     5     6   ar
    12     6     7   ar
    13     7     8    1
    14     8     9   ar
    15     9    10   ar
    16    10    11   ar
    17    11    12   ar
    18    12    13   ar
    19    15    14    1
    20    15    16    1
    21    16    17    1
    22    17    18    1
    23    18    19    1
    24     7     2   ar
    25    13     8   ar
    26    19    15    1
    27    18    20    1
@<TRIPOS>MOLECULE
*****
 25 27 0 0 0
SMALL
GASTEIGER

@<TRIPOS>ATOM
      1 C          -8.4173  -18.1532   23.0386 C.3     1  UNL1        0.1217
      2 C          -8.7820  -18.7734   21.7224 C.ar    1  UNL1       -0.0045
      3 C          -7.7172  -19.0494   20.7027 C.ar    1  UNL1       -0.0029
      4 C          -8.0820  -19.6696   19.3865 C.ar    1  UNL1       -0.0003
      5 C          -9.5116  -20.0137   19.0901 C.ar    1  UNL1       -0.0000
      6 C         -10.5764  -19.7376   20.1099 C.ar    1  UNL1       -0.0003
      7 C         -10.2116  -19.1175   21.4260 C.ar    1  UNL1       -0.0026
      8 C         -11.2764  -18.8414   22.4458 C.ar    1  UNL1       -0.0003
      9 C         -12.5136  -18.0894   22.0535 C.ar    1  UNL1       -0.0000
     10 C         -13.5784  -17.8133   23.0733 C.ar    1  UNL1       -0.0000
     11 C         -13.4061  -18.2891   24.4854 C.ar    1  UNL1       -0.0000
     12 C         -12.1689  -19.0411   24.8776 C.ar    1  UNL1       -0.0000
     13 C         -11.1040  -19.3172   23.8578 C.ar    1  UNL1       -0.0000
     14 N          -8.3406  -16.6608   23.1689 N.3     1  UNL1       -0.1550
     15 C          -8.8110  -15.7848   22.0458 C.3     1  UNL1        0.0966
     16 C         -10.1553  -15.8462   21.3833 C.3     1  UNL1        0.0362
     17 C         -10.1947  -14.7929   20.3161 C.3     1  UNL1        0.0701
     18 N          -8.8747  -14.0804   20.3191 N.3     1  UNL1       -0.2963
     19 C          -8.0195  -14.6935   21.3881 C.3     1  UNL1        0.0865
     20 H          -9.0166  -13.0896   20.5151 H       1  UNL1        0.1233
     21 S          -7.7936  -16.0445   24.4223 S.O2    1  UNL1        0.0441
     22 O          -9.1900  -15.7731   24.8983 O.2     1  UNL1       -0.1573
     23 O          -6.3973  -16.3158   23.9464 O.2     1  UNL1       -0.1573
     24 C          -8.0000  -15.5586   26.9662 C.3     1  UNL1        0.0289
     25 C          -7.2466  -15.4282   25.6757 C.3     1  UNL1        0.1692
@<TRIPOS>BOND
     1    24    25    1
     2    25    21    1
     3    21    22    2
     4    21    23    2
     5    21    14    1
     6    14     1    1
     7     1     2    1
     8     2     3   ar
     9     3     4   ar
    10     4     5   ar
    11     5     6   ar
    12     6     7   ar
    13     7     8    1
    14     8     9   ar
    15     9    10   ar
    16    10    11   ar
    17    11    12   ar
    18    12    13   ar
    19    15    14    1
    20    15    16    1
    21    16    17    1
    22    17    18    1
    23    18    19    1
    24     7     2   ar
    25    13     8   ar
    26    19    15    1
    27    18    20    1
@<TRIPOS>MOLECULE
*****
 25 27 0 0 0
SMALL
GASTEIGER

@<TRIPOS>ATOM
      1 C          -7.3394  -18.1880   23.4116 C.3     1  UNL1        0.1217
      2 C          -6.4613  -18.7065   22.3114 C.ar    1  UNL1       -0.0045
      3 C          -4.9692  -18.6225   22.4401 C.ar    1  UNL1       -0.0029
      4 C          -4.0913  -19.1409   21.3400 C.ar    1  UNL1       -0.0003
      5 C          -4.7054  -19.7433   20.1111 C.ar    1  UNL1       -0.0000
      6 C          -6.1975  -19.8272   19.9824 C.ar    1  UNL1       -0.0003
      7 C          -7.0754  -19.3088   21.0826 C.ar    1  UNL1       -0.0026
      8 C          -8.5676  -19.3928   20.9539 C.ar    1  UNL1       -0.0003
      9 C          -9.3853  -19.9713   22.0705 C.ar    1  UNL1       -0.0000
     10 C         -10.8774  -20.0552   21.9419 C.ar    1  UNL1       -0.0000
     11 C         -11.5519  -19.5606   20.6967 C.ar    1  UNL1       -0.0000
     12 C         -10.7342  -18.9821   19.5801 C.ar    1  UNL1       -0.0000
     13 C          -9.2420  -18.8982   19.7088 C.ar    1  UNL1       -0.0000
     14 N          -7.7616  -16.7487   23.4189 N.3     1  UNL1       -0.1550
     15 C          -8.9023  -16.2973   22.5559 C.3     1  UNL1        0.0966
     16 C         -10.3565  -16.5702   22.8029 C.3     1  UNL1        0.0362
     17 C         -11.1422  -15.9353   21.6940 C.3     1  UNL1        0.0701
     18 N         -10.1735  -15.2700   20.7616 N.3     1  UNL1       -0.2963
     19 C          -8.7893  -15.4937   21.2944 C.3     1  UNL1        0.0865
     20 H         -10.3690  -14.2700   20.7151 H       1  UNL1        0.1233
     21 S          -7.0430  -15.7607   24.2894 S.O2    1  UNL1        0.0441
     22 O          -7.9764  -16.0778   25.4199 O.2     1  UNL1       -0.1573
     23 O          -6.1096  -15.4437   23.1588 O.2     1  UNL1       -0.1573
     24 C          -5.3300  -15.2521   26.1753 C.3     1  UNL1        0.0289
     25 C          -6.3243  -14.7728   25.1597 C.3     1  UNL1        0.1692
@<TRIPOS>BOND
     1    24    25    1
     2    25    21    1
     3    21    22    2
     4    21    23    2
     5    21    14    1
     6    14     1    1
     7     1     2    1
     8     2     3   ar
     9     3     4   ar
    10     4     5   ar
    11     5     6   ar
    12     6     7   ar
    13     7     8    1
    14     8     9   ar
    15     9    10   ar
    16    10    11   ar
    17    11    12   ar
    18    12    13   ar
    19    15    14    1
    20    15    16    1
    21    16    17    1
    22    17    18    1
    23    18    19    1
    24     7     2   ar
    25    13     8   ar
    26    19    15    1
    27    18    20    1
