@<TRIPOS>MOLECULE
*****
 20 22 0 0 0
SMALL
GASTEIGER

@<TRIPOS>ATOM
      1 C          -7.7258  -18.9875   21.5436 C.ar    1  UNL1        0.0016
      2 C          -7.4170  -19.6254   20.2216 C.ar    1  UNL1        0.0001
      3 C          -5.9928  -19.7733   19.7748 C.ar    1  UNL1        0.0001
      4 C          -4.8774  -19.2832   20.6499 C.ar    1  UNL1        0.0030
      5 C          -3.4532  -19.4311   20.2030 C.ar    1  UNL1        0.0369
      6 C          -2.3378  -18.9409   21.0780 C.ar    1  UNL1        0.1387
      7 C          -2.6467  -18.3029   22.4000 C.ar    1  UNL1        0.0369
      8 C          -4.0709  -18.1551   22.8469 C.ar    1  UNL1        0.0031
      9 C          -5.1863  -18.6452   21.9718 C.ar    1  UNL1        0.0002
     10 C          -6.6105  -18.4973   22.4186 C.ar    1  UNL1        0.0001
     11 C         -11.5445  -17.9085   21.6034 C.ar    1  UNL1        0.1578
     12 C         -11.9986  -18.5438   22.8842 C.ar    1  UNL1        0.1356
     13 N         -11.0284  -19.3269   23.7181 N.ar    1  UNL1       -0.2391
     14 C          -9.6041  -19.4748   23.2712 C.ar    1  UNL1        0.0991
     15 C          -9.1501  -18.8396   21.9905 C.ar    1  UNL1        0.0222
     16 C         -10.1203  -18.0564   21.1566 C.ar    1  UNL1        0.0401
     17 C         -12.0154  -16.0555   19.8442 C.3     1  UNL1        0.2525
     18 O         -12.5148  -17.1254   20.7696 O.3     1  UNL1       -0.4699
     19 O          -0.9136  -19.0888   20.6312 O.3     1  UNL1       -0.4714
     20 C          -0.2479  -17.9816   19.8689 C.3     1  UNL1        0.2525
@<TRIPOS>BOND
     1    17    18    1
     2    18    11    1
     3    11    12   ar
     4    12    13   ar
     5    13    14   ar
     6    14    15   ar
     7    15     1    1
     8     1     2   ar
     9     2     3   ar
    10     3     4   ar
    11     4     5   ar
    12     5     6   ar
    13     6    19    1
    14    19    20    1
    15     6     7   ar
    16     7     8   ar
    17     8     9   ar
    18     9    10   ar
    19    15    16   ar
    20    16    11   ar
    21    10     1   ar
    22     9     4   ar
@<TRIPOS>MOLECULE
*****
 20 22 0 0 0
SMALL
GASTEIGER

@<TRIPOS>ATOM
      1 C          -8.6138  -18.7312   21.2828 C.ar    1  UNL1        0.0016
      2 C          -8.2566  -19.4804   20.0334 C.ar    1  UNL1        0.0001
      3 C          -6.8215  -19.7971   19.7333 C.ar    1  UNL1        0.0001
      4 C          -5.7436  -19.3646   20.6825 C.ar    1  UNL1        0.0030
      5 C          -4.3084  -19.6813   20.3824 C.ar    1  UNL1        0.0369
      6 C          -3.2305  -19.2488   21.3316 C.ar    1  UNL1        0.1387
      7 C          -3.5878  -18.4995   22.5811 C.ar    1  UNL1        0.0369
      8 C          -5.0229  -18.1828   22.8812 C.ar    1  UNL1        0.0031
      9 C          -6.1008  -18.6153   21.9319 C.ar    1  UNL1        0.0002
     10 C          -7.5359  -18.2986   22.2321 C.ar    1  UNL1        0.0001
     11 C         -12.0294  -18.3239   23.2621 C.ar    1  UNL1        0.1578
     12 C         -12.9192  -17.7810   22.1834 C.ar    1  UNL1        0.1356
     13 N         -12.3738  -17.5547   20.8045 N.ar    1  UNL1       -0.2391
     14 C         -10.9386  -17.8715   20.5043 C.ar    1  UNL1        0.0991
     15 C         -10.0489  -18.4144   21.5830 C.ar    1  UNL1        0.0222
     16 C         -10.5943  -18.6407   22.9619 C.ar    1  UNL1        0.0401
     17 C         -14.0425  -18.3853   24.9035 C.3     1  UNL1        0.2525
     18 O         -12.5748  -18.5502   24.6410 O.3     1  UNL1       -0.4699
     19 O          -1.7954  -19.5655   21.0315 O.3     1  UNL1       -0.4714
     20 C          -1.0024  -18.6682   20.1280 C.3     1  UNL1        0.2525
@<TRIPOS>BOND
     1    17    18    1
     2    18    11    1
     3    11    12   ar
     4    12    13   ar
     5    13    14   ar
     6    14    15   ar
     7    15     1    1
     8     1     2   ar
     9     2     3   ar
    10     3     4   ar
    11     4     5   ar
    12     5     6   ar
    13     6    19    1
    14    19    20    1
    15     6     7   ar
    16     7     8   ar
    17     8     9   ar
    18     9    10   ar
    19    15    16   ar
    20    16    11   ar
    21    10     1   ar
    22     9     4   ar
@<TRIPOS>MOLECULE
*****
 20 22 0 0 0
SMALL
GASTEIGER

@<TRIPOS>ATOM
      1 C          -7.3479  -19.2752   22.1219 C.ar    1  UNL1        0.0016
      2 C          -7.9501  -20.3893   22.9258 C.ar    1  UNL1        0.0001
      3 C          -9.3647  -20.2829   23.4130 C.ar    1  UNL1        0.0001
      4 C         -10.1773  -19.0625   23.0963 C.ar    1  UNL1        0.0030
      5 C         -11.5920  -18.9562   23.5835 C.ar    1  UNL1        0.0369
      6 C         -12.4045  -17.7357   23.2668 C.ar    1  UNL1        0.1387
      7 C         -11.8023  -16.6216   22.4629 C.ar    1  UNL1        0.0369
      8 C         -10.3877  -16.7280   21.9758 C.ar    1  UNL1        0.0031
      9 C          -9.5751  -17.9484   22.2924 C.ar    1  UNL1        0.0002
     10 C          -8.1605  -18.0548   21.8053 C.ar    1  UNL1        0.0001
     11 C          -3.4533  -18.6143   21.7410 C.ar    1  UNL1        0.1578
     12 C          -3.1038  -19.5942   20.6603 C.ar    1  UNL1        0.1356
     13 N          -4.1691  -20.4677   20.0669 N.ar    1  UNL1       -0.2391
     14 C          -5.5838  -20.3614   20.5541 C.ar    1  UNL1        0.0991
     15 C          -5.9332  -19.3815   21.6347 C.ar    1  UNL1        0.0222
     16 C          -4.8680  -18.5080   22.2282 C.ar    1  UNL1        0.0401
     17 C          -2.0024  -16.4608   21.6539 C.3     1  UNL1        0.2525
     18 O          -2.3881  -17.7407   22.3344 O.3     1  UNL1       -0.4699
     19 O         -13.8192  -17.6294   23.7540 O.3     1  UNL1       -0.4714
     20 C         -14.2493  -18.3816   24.9784 C.3     1  UNL1        0.2525
@<TRIPOS>BOND
     1    17    18    1
     2    18    11    1
     3    11    12   ar
     4    12    13   ar
     5    13    14   ar
     6    14    15   ar
     7    15     1    1
     8     1     2   ar
     9     2     3   ar
    10     3     4   ar
    11     4     5   ar
    12     5     6   ar
    13     6    19    1
    14    19    20    1
    15     6     7   ar
    16     7     8   ar
    17     8     9   ar
    18     9    10   ar
    19    15    16   ar
    20    16    11   ar
    21    10     1   ar
    22     9     4   ar
@<TRIPOS>MOLECULE
*****
 20 22 0 0 0
SMALL
GASTEIGER

@<TRIPOS>ATOM
      1 C          -6.8690  -18.6092   22.2438 C.ar    1  UNL1        0.0016
      2 C          -6.0642  -17.7861   23.2054 C.ar    1  UNL1        0.0001
      3 C          -4.5835  -17.6431   23.0136 C.ar    1  UNL1        0.0001
      4 C          -3.9075  -18.3232   21.8601 C.ar    1  UNL1        0.0030
      5 C          -2.4266  -18.1801   21.6683 C.ar    1  UNL1        0.0369
      6 C          -1.7506  -18.8602   20.5149 C.ar    1  UNL1        0.1387
      7 C          -2.5554  -19.6833   19.5532 C.ar    1  UNL1        0.0369
      8 C          -4.0362  -19.8264   19.7450 C.ar    1  UNL1        0.0031
      9 C          -4.7122  -19.1463   20.8985 C.ar    1  UNL1        0.0002
     10 C          -6.1930  -19.2893   21.0903 C.ar    1  UNL1        0.0001
     11 C         -10.7610  -17.8484   22.0903 C.ar    1  UNL1        0.1578
     12 C         -11.3114  -19.0383   22.8191 C.ar    1  UNL1        0.1356
     13 N         -10.3811  -20.0852   23.3562 N.ar    1  UNL1       -0.2391
     14 C          -8.9002  -19.9422   23.1644 C.ar    1  UNL1        0.0991
     15 C          -8.3498  -18.7523   22.4356 C.ar    1  UNL1        0.0222
     16 C          -9.2802  -17.7054   21.8985 C.ar    1  UNL1        0.0401
     17 C         -12.5375  -15.9962   22.4942 C.3     1  UNL1        0.2525
     18 O         -11.6914  -16.8016   21.5532 O.3     1  UNL1       -0.4699
     19 O          -0.2698  -18.7172   20.3230 O.3     1  UNL1       -0.4714
     20 C           0.3219  -17.3703   20.0301 C.3     1  UNL1        0.2525
@<TRIPOS>BOND
     1    17    18    1
     2    18    11    1
     3    11    12   ar
     4    12    13   ar
     5    13    14   ar
     6    14    15   ar
     7    15     1    1
     8     1     2   ar
     9     2     3   ar
    10     3     4   ar
    11     4     5   ar
    12     5     6   ar
    13     6    19    1
    14    19    20    1
    15     6     7   ar
    16     7     8   ar
    17     8     9   ar
    18     9    10   ar
    19    15    16   ar
    20    16    11   ar
    21    10     1   ar
    22     9     4   ar
@<TRIPOS>MOLECULE
*****
 20 22 0 0 0
SMALL
GASTEIGER

@<TRIPOS>ATOM
      1 C         -13.8909   -6.5759   18.9519 C.ar    1  UNL1        0.0016
      2 C         -15.0381   -5.6986   19.3569 C.ar    1  UNL1        0.0001
      3 C         -16.4318   -6.2523   19.3860 C.ar    1  UNL1        0.0001
      4 C         -16.6783   -7.6834   19.0101 C.ar    1  UNL1        0.0030
      5 C         -18.0721   -8.2371   19.0393 C.ar    1  UNL1        0.0369
      6 C         -18.3186   -9.6682   18.6634 C.ar    1  UNL1        0.1387
      7 C         -17.1712  -10.5455   18.2584 C.ar    1  UNL1        0.0369
      8 C         -15.7775   -9.9918   18.2293 C.ar    1  UNL1        0.0031
      9 C         -15.5310   -8.5607   18.6051 C.ar    1  UNL1        0.0002
     10 C         -14.1373   -8.0070   18.5760 C.ar    1  UNL1        0.0001
     11 C         -10.8867   -3.9872   18.7987 C.ar    1  UNL1        0.1578
     12 C          -9.7095   -4.9147   18.8645 C.ar    1  UNL1        0.1356
     13 N          -9.9262   -6.3959   18.9594 N.ar    1  UNL1       -0.2391
     14 C         -11.3201   -6.9497   18.9885 C.ar    1  UNL1        0.0991
     15 C         -12.4971   -6.0222   18.9227 C.ar    1  UNL1        0.0222
     16 C         -12.2804   -4.5410   18.8278 C.ar    1  UNL1        0.0401
     17 C         -11.8252   -1.5660   18.8829 C.3     1  UNL1        0.2525
     18 O         -10.6700   -2.5060   18.7038 O.3     1  UNL1       -0.4699
     19 O         -19.7123  -10.2219   18.6925 O.3     1  UNL1       -0.4714
     20 C         -20.4639  -10.4292   17.4110 C.3     1  UNL1        0.2525
@<TRIPOS>BOND
     1    17    18    1
     2    18    11    1
     3    11    12   ar
     4    12    13   ar
     5    13    14   ar
     6    14    15   ar
     7    15     1    1
     8     1     2   ar
     9     2     3   ar
    10     3     4   ar
    11     4     5   ar
    12     5     6   ar
    13     6    19    1
    14    19    20    1
    15     6     7   ar
    16     7     8   ar
    17     8     9   ar
    18     9    10   ar
    19    15    16   ar
    20    16    11   ar
    21    10     1   ar
    22     9     4   ar
@<TRIPOS>MOLECULE
*****
 20 22 0 0 0
SMALL
GASTEIGER

@<TRIPOS>ATOM
      1 C          -7.1058  -18.9120   21.3498 C.ar    1  UNL1        0.0016
      2 C          -6.8392  -19.2850   19.9216 C.ar    1  UNL1        0.0001
      3 C          -5.4294  -19.3465   19.4132 C.ar    1  UNL1        0.0001
      4 C          -4.2861  -19.0350   20.3330 C.ar    1  UNL1        0.0030
      5 C          -2.8762  -19.0965   19.8245 C.ar    1  UNL1        0.0369
      6 C          -1.7330  -18.7851   20.7442 C.ar    1  UNL1        0.1387
      7 C          -1.9996  -18.4121   22.1725 C.ar    1  UNL1        0.0369
      8 C          -3.4095  -18.3506   22.6809 C.ar    1  UNL1        0.0031
      9 C          -4.5527  -18.6621   21.7611 C.ar    1  UNL1        0.0002
     10 C          -5.9626  -18.6006   22.2696 C.ar    1  UNL1        0.0001
     11 C         -10.3027  -19.5193   23.6216 C.ar    1  UNL1        0.1578
     12 C         -11.3354  -18.7276   22.8753 C.ar    1  UNL1        0.1356
     13 N         -10.9582  -17.9974   21.6205 N.ar    1  UNL1       -0.2391
     14 C          -9.5483  -18.0589   21.1120 C.ar    1  UNL1        0.0991
     15 C          -8.5157  -18.8505   21.8583 C.ar    1  UNL1        0.0222
     16 C          -8.8929  -19.5807   23.1131 C.ar    1  UNL1        0.0401
     17 C          -9.9993  -21.5394   25.2269 C.3     1  UNL1        0.2525
     18 O         -10.6799  -20.2495   24.8764 O.3     1  UNL1       -0.4699
     19 O          -0.3232  -18.8465   20.2358 O.3     1  UNL1       -0.4714
     20 C           0.4561  -17.5813   20.0307 C.3     1  UNL1        0.2525
@<TRIPOS>BOND
     1    17    18    1
     2    18    11    1
     3    11    12   ar
     4    12    13   ar
     5    13    14   ar
     6    14    15   ar
     7    15     1    1
     8     1     2   ar
     9     2     3   ar
    10     3     4   ar
    11     4     5   ar
    12     5     6   ar
    13     6    19    1
    14    19    20    1
    15     6     7   ar
    16     7     8   ar
    17     8     9   ar
    18     9    10   ar
    19    15    16   ar
    20    16    11   ar
    21    10     1   ar
    22     9     4   ar
@<TRIPOS>MOLECULE
*****
 20 22 0 0 0
SMALL
GASTEIGER

@<TRIPOS>ATOM
      1 C         -14.3415   -1.9230   19.4558 C.ar    1  UNL1        0.0016
      2 C         -15.0539   -3.2019   19.7826 C.ar    1  UNL1        0.0001
      3 C         -14.3107   -4.5043   19.7479 C.ar    1  UNL1        0.0001
      4 C         -12.8551   -4.5278   19.3865 C.ar    1  UNL1        0.0030
      5 C         -12.1118   -5.8303   19.3519 C.ar    1  UNL1        0.0369
      6 C         -10.6562   -5.8538   18.9904 C.ar    1  UNL1        0.1387
      7 C          -9.9438   -4.5748   18.6636 C.ar    1  UNL1        0.0369
      8 C         -10.6871   -3.2724   18.6983 C.ar    1  UNL1        0.0031
      9 C         -12.1427   -3.2489   19.0597 C.ar    1  UNL1        0.0002
     10 C         -12.8859   -1.9465   19.0943 C.ar    1  UNL1        0.0001
     11 C         -17.0231    0.8400   20.4177 C.ar    1  UNL1        0.1578
     12 C         -16.5713    1.9845   19.5597 C.ar    1  UNL1        0.1356
     13 N         -15.3762    1.8265   18.6671 N.ar    1  UNL1       -0.2391
     14 C         -14.6329    0.5239   18.6325 C.ar    1  UNL1        0.0991
     15 C         -15.0848   -0.6205   19.4904 C.ar    1  UNL1        0.0222
     16 C         -16.2799   -0.4624   20.3830 C.ar    1  UNL1        0.0401
     17 C         -18.2331    2.0682   22.3613 C.3     1  UNL1        0.2525
     18 O         -18.2182    0.9980   21.3103 O.3     1  UNL1       -0.4699
     19 O          -9.9130   -7.1562   18.9558 O.3     1  UNL1       -0.4714
     20 C         -10.0826   -8.0858   17.7908 C.3     1  UNL1        0.2525
@<TRIPOS>BOND
     1    17    18    1
     2    18    11    1
     3    11    12   ar
     4    12    13   ar
     5    13    14   ar
     6    14    15   ar
     7    15     1    1
     8     1     2   ar
     9     2     3   ar
    10     3     4   ar
    11     4     5   ar
    12     5     6   ar
    13     6    19    1
    14    19    20    1
    15     6     7   ar
    16     7     8   ar
    17     8     9   ar
    18     9    10   ar
    19    15    16   ar
    20    16    11   ar
    21    10     1   ar
    22     9     4   ar
@<TRIPOS>MOLECULE
*****
 20 22 0 0 0
SMALL
GASTEIGER

@<TRIPOS>ATOM
      1 C         -14.3875   -1.8446   19.3374 C.ar    1  UNL1        0.0016
      2 C         -15.1092   -3.1136   19.6822 C.ar    1  UNL1        0.0001
      3 C         -14.3731   -4.4205   19.6756 C.ar    1  UNL1        0.0001
      4 C         -12.9153   -4.4584   19.3242 C.ar    1  UNL1        0.0030
      5 C         -12.1793   -5.7655   19.3177 C.ar    1  UNL1        0.0369
      6 C         -10.7215   -5.8034   18.9663 C.ar    1  UNL1        0.1387
      7 C          -9.9998   -4.5344   18.6215 C.ar    1  UNL1        0.0369
      8 C         -10.7359   -3.2275   18.6280 C.ar    1  UNL1        0.0031
      9 C         -12.1937   -3.1895   18.9794 C.ar    1  UNL1        0.0002
     10 C         -12.9298   -1.8826   18.9860 C.ar    1  UNL1        0.0001
     11 C         -15.1913    2.0091   18.8344 C.ar    1  UNL1        0.1578
     12 C         -16.5957    2.0764   19.3571 C.ar    1  UNL1        0.1356
     13 N         -17.2641    0.8366   19.8732 N.ar    1  UNL1       -0.2391
     14 C         -16.5280   -0.4704   19.8666 C.ar    1  UNL1        0.0991
     15 C         -15.1236   -0.5376   19.3440 C.ar    1  UNL1        0.0222
     16 C         -14.4553    0.7021   18.8279 C.ar    1  UNL1        0.0401
     17 C         -15.1397    4.0183   17.1880 C.3     1  UNL1        0.2525
     18 O         -14.5229    3.2488   18.3183 O.3     1  UNL1       -0.4699
     19 O          -9.9854   -7.1104   18.9597 O.3     1  UNL1       -0.4714
     20 C         -10.1746   -8.0721   17.8241 C.3     1  UNL1        0.2525
@<TRIPOS>BOND
     1    17    18    1
     2    18    11    1
     3    11    12   ar
     4    12    13   ar
     5    13    14   ar
     6    14    15   ar
     7    15     1    1
     8     1     2   ar
     9     2     3   ar
    10     3     4   ar
    11     4     5   ar
    12     5     6   ar
    13     6    19    1
    14    19    20    1
    15     6     7   ar
    16     7     8   ar
    17     8     9   ar
    18     9    10   ar
    19    15    16   ar
    20    16    11   ar
    21    10     1   ar
    22     9     4   ar
@<TRIPOS>MOLECULE
*****
 20 22 0 0 0
SMALL
GASTEIGER

@<TRIPOS>ATOM
      1 C           4.5139   -2.5925   21.6052 C.ar    1  UNL1        0.0016
      2 C           3.9476   -2.8056   20.2327 C.ar    1  UNL1        0.0001
      3 C           2.7827   -1.9838   19.7662 C.ar    1  UNL1        0.0001
      4 C           2.1841   -0.9490   20.6723 C.ar    1  UNL1        0.0030
      5 C           1.0191   -0.1272   20.2058 C.ar    1  UNL1        0.0369
      6 C           0.4206    0.9076   21.1118 C.ar    1  UNL1        0.1387
      7 C           0.9870    1.1206   22.4844 C.ar    1  UNL1        0.0369
      8 C           2.1519    0.2988   22.9508 C.ar    1  UNL1        0.0031
      9 C           2.7505   -0.7360   22.0448 C.ar    1  UNL1        0.0002
     10 C           3.9154   -1.5577   22.5112 C.ar    1  UNL1        0.0001
     11 C           6.9979   -4.5598   23.9947 C.ar    1  UNL1        0.1578
     12 C           8.0088   -5.0579   23.0047 C.ar    1  UNL1        0.1356
     13 N           7.8547   -4.7342   21.5482 N.ar    1  UNL1       -0.2391
     14 C           6.6897   -3.9124   21.0817 C.ar    1  UNL1        0.0991
     15 C           5.6789   -3.4143   22.0717 C.ar    1  UNL1        0.0222
     16 C           5.8330   -3.7380   23.5282 C.ar    1  UNL1        0.0401
     17 C           7.4115   -6.2966   25.8822 C.3     1  UNL1        0.2525
     18 O           7.1520   -4.8834   25.4513 O.3     1  UNL1       -0.4699
     19 O          -0.7443    1.7294   20.6454 O.3     1  UNL1       -0.4714
     20 C          -1.1077    2.9930   21.3674 C.3     1  UNL1        0.2525
@<TRIPOS>BOND
     1    17    18    1
     2    18    11    1
     3    11    12   ar
     4    12    13   ar
     5    13    14   ar
     6    14    15   ar
     7    15     1    1
     8     1     2   ar
     9     2     3   ar
    10     3     4   ar
    11     4     5   ar
    12     5     6   ar
    13     6    19    1
    14    19    20    1
    15     6     7   ar
    16     7     8   ar
    17     8     9   ar
    18     9    10   ar
    19    15    16   ar
    20    16    11   ar
    21    10     1   ar
    22     9     4   ar
