@<TRIPOS>MOLECULE
*****
 31 34 0 0 0
SMALL
GASTEIGER

@<TRIPOS>ATOM
      1 C           6.1074   -0.3810   19.1871 C.ar    1  UNL1        0.1220
      2 N           7.3244   -0.5615   20.0452 N.ar    1  UNL1       -0.2322
      3 C           7.3901   -1.6959   21.0244 C.ar    1  UNL1        0.0872
      4 C           8.6071   -1.8764   21.8825 C.ar    1  UNL1        0.0193
      5 C           8.6728   -3.0108   22.8617 C.ar    1  UNL1        0.0015
      6 C           7.5215   -3.9646   22.9828 C.ar    1  UNL1        0.0002
      7 C           6.3045   -3.7841   22.1247 C.ar    1  UNL1        0.0063
      8 C           6.2388   -2.6498   21.1456 C.ar    1  UNL1        0.0738
      9 C           5.0218   -2.4692   20.2875 C.ar    1  UNL1        0.2631
     10 O           3.8705   -3.4231   20.4086 O.2     1  UNL1       -0.2669
     11 N           4.9561   -1.3349   19.3083 N.ar    1  UNL1       -0.2840
     12 C           7.5873   -5.0991   23.9620 C.ar    1  UNL1        0.0001
     13 C           6.9658   -4.9550   25.3196 C.ar    1  UNL1        0.0009
     14 C           7.0316   -6.0894   26.2988 C.ar    1  UNL1        0.0114
     15 C           7.7188   -7.3679   25.9205 C.ar    1  UNL1        0.0577
     16 CL          7.7846   -8.5022   26.8996 Cl      1  UNL1       -0.0822
     17 C           8.3403   -7.5119   24.5628 C.ar    1  UNL1        0.0114
     18 C           8.2745   -6.3776   23.5837 C.ar    1  UNL1        0.0009
     19 C           6.3759    0.5186   16.7646 C.3     1  UNL1        0.0079
     20 C           6.0416    0.7534   18.2079 C.3     1  UNL1        0.0570
     21 C           5.6416    2.1226   18.6720 C.3     1  UNL1        0.0079
     22 C           3.7390   -1.1543   18.4502 C.3     1  UNL1        0.1115
     23 C           2.5814   -0.3429   18.9517 C.3     1  UNL1        0.0388
     24 C           1.7193   -0.8712   20.0598 C.3     1  UNL1        0.0048
     25 C           0.5617   -0.0598   20.5613 C.3     1  UNL1        0.0174
     26 C           0.2662    1.2799   19.9548 C.3     1  UNL1        0.0720
     27 N           1.1282    1.8082   18.8467 N.3     1  UNL1       -0.2739
     28 C           2.2859    0.9968   18.3452 C.3     1  UNL1        0.0739
     29 C           0.8327    3.1479   18.2402 C.3     1  UNL1        0.0576
     30 C          -0.5218    3.4255   17.6585 C.3     1  UNL1        0.0173
     31 C           1.8916    4.2101   18.2155 C.3     1  UNL1        0.0173
@<TRIPOS>BOND
     1    19    20    1
     2    20    21    1
     3    20     1    1
     4     1     2   ar
     5     2     3   ar
     6     3     4   ar
     7     4     5   ar
     8     5     6   ar
     9     6    12    1
    10    12    13   ar
    11    13    14   ar
    12    14    15   ar
    13    15    16    1
    14    15    17   ar
    15    17    18   ar
    16     6     7   ar
    17     7     8   ar
    18     8     9   ar
    19     9    10    2
    20     9    11   ar
    21    11    22    1
    22    23    22    1
    23    23    24    1
    24    24    25    1
    25    25    26    1
    26    26    27    1
    27    27    29    1
    28    29    30    1
    29    29    31    1
    30    27    28    1
    31    11     1   ar
    32    28    23    1
    33     8     3   ar
    34    18    12   ar
@<TRIPOS>MOLECULE
*****
 31 34 0 0 0
SMALL
GASTEIGER

@<TRIPOS>ATOM
      1 C           5.8830   -1.9121   32.2512 C.ar    1  UNL1        0.1220
      2 N           6.2733   -3.3569   32.1509 N.ar    1  UNL1       -0.2322
      3 C           6.6256   -3.9479   30.8179 C.ar    1  UNL1        0.0872
      4 C           7.0160   -5.3927   30.7176 C.ar    1  UNL1        0.0193
      5 C           7.3682   -5.9836   29.3847 C.ar    1  UNL1        0.0015
      6 C           7.3301   -5.1297   28.1520 C.ar    1  UNL1        0.0002
      7 C           6.9397   -3.6849   28.2523 C.ar    1  UNL1        0.0063
      8 C           6.5875   -3.0940   29.5853 C.ar    1  UNL1        0.0738
      9 C           6.1970   -1.6491   29.6856 C.ar    1  UNL1        0.2631
     10 O           6.1589   -0.7952   28.4530 O.2     1  UNL1       -0.2669
     11 N           5.8448   -1.0582   31.0185 N.ar    1  UNL1       -0.2840
     12 C           7.6824   -5.7206   26.8191 C.ar    1  UNL1        0.0001
     13 C           8.1572   -7.1407   26.7301 C.ar    1  UNL1        0.0009
     14 C           8.5095   -7.7316   25.3971 C.ar    1  UNL1        0.0114
     15 C           8.3869   -6.9025   24.1532 C.ar    1  UNL1        0.0577
     16 CL          8.7391   -7.4934   22.8202 Cl      1  UNL1       -0.0822
     17 C           7.9120   -5.4824   24.2422 C.ar    1  UNL1        0.0114
     18 C           7.5597   -4.8915   25.5751 C.ar    1  UNL1        0.0009
     19 C           4.1768   -1.5693   34.1803 C.3     1  UNL1        0.0079
     20 C           5.5307   -1.3212   33.5841 C.3     1  UNL1        0.0570
     21 C           6.5323   -0.4821   34.3208 C.3     1  UNL1        0.0079
     22 C           5.4544    0.3867   31.1189 C.3     1  UNL1        0.1115
     23 C           4.0061    0.7760   31.0893 C.3     1  UNL1        0.0388
     24 C           3.3961    1.4854   32.2618 C.3     1  UNL1        0.0048
     25 C           1.9478    1.8747   32.2322 C.3     1  UNL1        0.0174
     26 C           1.1095    1.5546   31.0302 C.3     1  UNL1        0.0720
     27 N           1.7195    0.8452   29.8578 N.3     1  UNL1       -0.2739
     28 C           3.1678    0.4559   29.8873 C.3     1  UNL1        0.0739
     29 C           0.8812    0.5251   28.6558 C.3     1  UNL1        0.0576
     30 C           1.3401    0.9400   27.2893 C.3     1  UNL1        0.0173
     31 C          -0.4160   -0.2099   28.8203 C.3     1  UNL1        0.0173
@<TRIPOS>BOND
     1    19    20    1
     2    20    21    1
     3    20     1    1
     4     1     2   ar
     5     2     3   ar
     6     3     4   ar
     7     4     5   ar
     8     5     6   ar
     9     6    12    1
    10    12    13   ar
    11    13    14   ar
    12    14    15   ar
    13    15    16    1
    14    15    17   ar
    15    17    18   ar
    16     6     7   ar
    17     7     8   ar
    18     8     9   ar
    19     9    10    2
    20     9    11   ar
    21    11    22    1
    22    23    22    1
    23    23    24    1
    24    24    25    1
    25    25    26    1
    26    26    27    1
    27    27    29    1
    28    29    30    1
    29    29    31    1
    30    27    28    1
    31    11     1   ar
    32    28    23    1
    33     8     3   ar
    34    18    12   ar
@<TRIPOS>MOLECULE
*****
 31 34 0 0 0
SMALL
GASTEIGER

@<TRIPOS>ATOM
      1 C           0.2155    3.3467   24.7584 C.ar    1  UNL1        0.1220
      2 N           1.1720    2.3071   25.2626 N.ar    1  UNL1       -0.2322
      3 C           1.7215    1.2749   24.3231 C.ar    1  UNL1        0.0872
      4 C           2.6780    0.2352   24.8273 C.ar    1  UNL1        0.0193
      5 C           3.2275   -0.7969   23.8878 C.ar    1  UNL1        0.0015
      6 C           2.8206   -0.7894   22.4441 C.ar    1  UNL1        0.0002
      7 C           1.8641    0.2503   21.9399 C.ar    1  UNL1        0.0063
      8 C           1.3146    1.2824   22.8794 C.ar    1  UNL1        0.0738
      9 C           0.3581    2.3221   22.3751 C.ar    1  UNL1        0.2631
     10 O          -0.0488    2.3297   20.9314 O.2     1  UNL1       -0.2669
     11 N          -0.1914    3.3543   23.3146 N.ar    1  UNL1       -0.2840
     12 C           3.3701   -1.8216   21.5046 C.ar    1  UNL1        0.0001
     13 C           3.0025   -1.7841   20.0509 C.ar    1  UNL1        0.0009
     14 C           3.5520   -2.8163   19.1114 C.ar    1  UNL1        0.0114
     15 C           4.4693   -3.8860   19.6257 C.ar    1  UNL1        0.0577
     16 CL          5.0188   -4.9181   18.6862 Cl      1  UNL1       -0.0822
     17 C           4.8369   -3.9234   21.0795 C.ar    1  UNL1        0.0114
     18 C           4.2874   -2.8913   22.0189 C.ar    1  UNL1        0.0009
     19 C          -1.5295    4.0604   26.5460 C.3     1  UNL1        0.0079
     20 C          -0.3340    4.3789   25.6979 C.3     1  UNL1        0.0570
     21 C           0.3119    5.7296   25.7892 C.3     1  UNL1        0.0079
     22 C          -1.1479    4.3940   22.8104 C.3     1  UNL1        0.1115
     23 C          -2.5565    4.0122   22.4642 C.3     1  UNL1        0.0388
     24 C          -3.5190    3.6318   23.5501 C.3     1  UNL1        0.0048
     25 C          -4.9276    3.2501   23.2038 C.3     1  UNL1        0.0174
     26 C          -5.3739    3.2487   21.7717 C.3     1  UNL1        0.0720
     27 N          -4.4115    3.6290   20.6859 N.3     1  UNL1       -0.2739
     28 C          -3.0028    4.0108   21.0321 C.3     1  UNL1        0.0739
     29 C          -4.8577    3.6276   19.2538 C.3     1  UNL1        0.0576
     30 C          -3.8864    3.9761   18.1652 C.3     1  UNL1        0.0173
     31 C          -6.2754    3.2777   18.9103 C.3     1  UNL1        0.0173
@<TRIPOS>BOND
     1    19    20    1
     2    20    21    1
     3    20     1    1
     4     1     2   ar
     5     2     3   ar
     6     3     4   ar
     7     4     5   ar
     8     5     6   ar
     9     6    12    1
    10    12    13   ar
    11    13    14   ar
    12    14    15   ar
    13    15    16    1
    14    15    17   ar
    15    17    18   ar
    16     6     7   ar
    17     7     8   ar
    18     8     9   ar
    19     9    10    2
    20     9    11   ar
    21    11    22    1
    22    23    22    1
    23    23    24    1
    24    24    25    1
    25    25    26    1
    26    26    27    1
    27    27    29    1
    28    29    30    1
    29    29    31    1
    30    27    28    1
    31    11     1   ar
    32    28    23    1
    33     8     3   ar
    34    18    12   ar
@<TRIPOS>MOLECULE
*****
 31 34 0 0 0
SMALL
GASTEIGER

@<TRIPOS>ATOM
      1 C           6.4224   -2.6405   20.7882 C.ar    1  UNL1        0.1220
      2 N           6.8763   -3.8712   21.5158 N.ar    1  UNL1       -0.2322
      3 C           6.8431   -3.9113   23.0149 C.ar    1  UNL1        0.0872
      4 C           7.2969   -5.1421   23.7424 C.ar    1  UNL1        0.0193
      5 C           7.2638   -5.1822   25.2415 C.ar    1  UNL1        0.0015
      6 C           6.7767   -3.9916   26.0130 C.ar    1  UNL1        0.0002
      7 C           6.3229   -2.7609   25.2855 C.ar    1  UNL1        0.0063
      8 C           6.3561   -2.7207   23.7865 C.ar    1  UNL1        0.0738
      9 C           5.9022   -1.4900   23.0589 C.ar    1  UNL1        0.2631
     10 O           5.4152   -0.2994   23.8304 O.2     1  UNL1       -0.2669
     11 N           5.9354   -1.4499   21.5598 N.ar    1  UNL1       -0.2840
     12 C           6.7436   -4.0317   27.5122 C.ar    1  UNL1        0.0001
     13 C           6.5811   -2.7614   28.2931 C.ar    1  UNL1        0.0009
     14 C           6.5479   -2.8016   29.7922 C.ar    1  UNL1        0.0114
     15 C           6.6772   -4.1121   30.5104 C.ar    1  UNL1        0.0577
     16 CL          6.6441   -4.1523   32.0095 Cl      1  UNL1       -0.0822
     17 C           6.8397   -5.3825   29.7294 C.ar    1  UNL1        0.0114
     18 C           6.8729   -5.3423   28.2304 C.ar    1  UNL1        0.0009
     19 C           7.6391   -2.0111   18.5806 C.3     1  UNL1        0.0079
     20 C           6.4556   -2.6003   19.2891 C.3     1  UNL1        0.0570
     21 C           5.3052   -3.1494   18.4985 C.3     1  UNL1        0.0079
     22 C           5.4816   -0.2191   20.8322 C.3     1  UNL1        0.1115
     23 C           4.0461   -0.0776   20.4207 C.3     1  UNL1        0.0388
     24 C           3.0686   -1.1757   20.7191 C.3     1  UNL1        0.0048
     25 C           1.6331   -1.0342   20.3077 C.3     1  UNL1        0.0174
     26 C           1.1750    0.2053   19.5978 C.3     1  UNL1        0.0720
     27 N           2.1525    1.3033   19.2995 N.3     1  UNL1       -0.2739
     28 C           3.5880    1.1618   19.7109 C.3     1  UNL1        0.0739
     29 C           1.6944    2.5427   18.5897 C.3     1  UNL1        0.0576
     30 C           0.2552    2.6919   18.1941 C.3     1  UNL1        0.0173
     31 C           2.6755    3.6330   18.2754 C.3     1  UNL1        0.0173
@<TRIPOS>BOND
     1    19    20    1
     2    20    21    1
     3    20     1    1
     4     1     2   ar
     5     2     3   ar
     6     3     4   ar
     7     4     5   ar
     8     5     6   ar
     9     6    12    1
    10    12    13   ar
    11    13    14   ar
    12    14    15   ar
    13    15    16    1
    14    15    17   ar
    15    17    18   ar
    16     6     7   ar
    17     7     8   ar
    18     8     9   ar
    19     9    10    2
    20     9    11   ar
    21    11    22    1
    22    23    22    1
    23    23    24    1
    24    24    25    1
    25    25    26    1
    26    26    27    1
    27    27    29    1
    28    29    30    1
    29    29    31    1
    30    27    28    1
    31    11     1   ar
    32    28    23    1
    33     8     3   ar
    34    18    12   ar
@<TRIPOS>MOLECULE
*****
 31 34 0 0 0
SMALL
GASTEIGER

@<TRIPOS>ATOM
      1 C           2.7954    1.1316   27.1207 C.ar    1  UNL1        0.1220
      2 N           2.4703    2.1250   26.0449 N.ar    1  UNL1       -0.2322
      3 C           1.0438    2.5093   25.7851 C.ar    1  UNL1        0.0872
      4 C           0.7186    3.5027   24.7094 C.ar    1  UNL1        0.0193
      5 C          -0.7078    3.8870   24.4497 C.ar    1  UNL1        0.0015
      6 C          -1.8092    3.2778   25.2657 C.ar    1  UNL1        0.0002
      7 C          -1.4840    2.2844   26.3415 C.ar    1  UNL1        0.0063
      8 C          -0.0576    1.9002   26.6012 C.ar    1  UNL1        0.0738
      9 C           0.2676    0.9067   27.6771 C.ar    1  UNL1        0.2631
     10 O          -0.8337    0.2975   28.4931 O.2     1  UNL1       -0.2669
     11 N           1.6941    0.5224   27.9368 N.ar    1  UNL1       -0.2840
     12 C          -3.2357    3.6621   25.0060 C.ar    1  UNL1        0.0001
     13 C          -4.0401    4.3304   26.0812 C.ar    1  UNL1        0.0009
     14 C          -5.4667    4.7147   25.8215 C.ar    1  UNL1        0.0114
     15 C          -6.0887    4.4307   24.4864 C.ar    1  UNL1        0.0577
     16 CL         -7.5151    4.8150   24.2266 Cl      1  UNL1       -0.0822
     17 C          -5.2842    3.7624   23.4111 C.ar    1  UNL1        0.0114
     18 C          -3.8578    3.3781   23.6709 C.ar    1  UNL1        0.0009
     19 C           5.0477    1.5402   28.3496 C.3     1  UNL1        0.0079
     20 C           4.2220    0.7473   27.3804 C.3     1  UNL1        0.0570
     21 C           4.8226   -0.4299   26.6709 C.3     1  UNL1        0.0079
     22 C           2.0193   -0.4710   29.0126 C.3     1  UNL1        0.1115
     23 C           2.3521    0.0036   30.3960 C.3     1  UNL1        0.0388
     24 C           1.8641    1.3414   30.8676 C.3     1  UNL1        0.0048
     25 C           2.1969    1.8161   32.2510 C.3     1  UNL1        0.0174
     26 C           3.0176    0.9530   33.1629 C.3     1  UNL1        0.0720
     27 N           3.5055   -0.3847   32.6914 N.3     1  UNL1       -0.2739
     28 C           3.1727   -0.8594   31.3079 C.3     1  UNL1        0.0739
     29 C           4.3262   -1.2477   33.6033 C.3     1  UNL1        0.0576
     30 C           4.7291   -2.6261   33.1699 C.3     1  UNL1        0.0173
     31 C           4.7441   -0.7324   34.9486 C.3     1  UNL1        0.0173
@<TRIPOS>BOND
     1    19    20    1
     2    20    21    1
     3    20     1    1
     4     1     2   ar
     5     2     3   ar
     6     3     4   ar
     7     4     5   ar
     8     5     6   ar
     9     6    12    1
    10    12    13   ar
    11    13    14   ar
    12    14    15   ar
    13    15    16    1
    14    15    17   ar
    15    17    18   ar
    16     6     7   ar
    17     7     8   ar
    18     8     9   ar
    19     9    10    2
    20     9    11   ar
    21    11    22    1
    22    23    22    1
    23    23    24    1
    24    24    25    1
    25    25    26    1
    26    26    27    1
    27    27    29    1
    28    29    30    1
    29    29    31    1
    30    27    28    1
    31    11     1   ar
    32    28    23    1
    33     8     3   ar
    34    18    12   ar
@<TRIPOS>MOLECULE
*****
 31 34 0 0 0
SMALL
GASTEIGER

@<TRIPOS>ATOM
      1 C          -0.6818    3.4678   18.8409 C.ar    1  UNL1        0.1220
      2 N           0.1670    2.4500   18.1384 N.ar    1  UNL1       -0.2322
      3 C           0.9962    1.4864   18.9349 C.ar    1  UNL1        0.0872
      4 C           1.8450    0.4686   18.2324 C.ar    1  UNL1        0.0193
      5 C           2.6741   -0.4949   19.0288 C.ar    1  UNL1        0.0015
      6 C           2.6543   -0.4405   20.5277 C.ar    1  UNL1        0.0002
      7 C           1.8054    0.5773   21.2302 C.ar    1  UNL1        0.0063
      8 C           0.9764    1.5407   20.4337 C.ar    1  UNL1        0.0738
      9 C           0.1275    2.5586   21.1362 C.ar    1  UNL1        0.2631
     10 O           0.1077    2.6129   22.6351 O.2     1  UNL1       -0.2669
     11 N          -0.7016    3.5221   20.3398 N.ar    1  UNL1       -0.2840
     12 C           3.4834   -1.4041   21.3241 C.ar    1  UNL1        0.0001
     13 C           4.2379   -2.4978   20.6281 C.ar    1  UNL1        0.0009
     14 C           5.0670   -3.4613   21.4245 C.ar    1  UNL1        0.0114
     15 C           5.1416   -3.3311   22.9170 C.ar    1  UNL1        0.0577
     16 CL          5.9706   -4.2946   23.7134 Cl      1  UNL1       -0.0822
     17 C           4.3870   -2.2373   23.6130 C.ar    1  UNL1        0.0114
     18 C           3.5580   -1.2739   22.8166 C.ar    1  UNL1        0.0009
     19 C          -0.9403    5.7597   17.6450 C.3     1  UNL1        0.0079
     20 C          -1.5109    4.4313   18.0445 C.3     1  UNL1        0.0570
     21 C          -2.9107    4.0663   17.6476 C.3     1  UNL1        0.0079
     22 C          -1.5505    4.5399   21.0422 C.3     1  UNL1        0.1115
     23 C          -2.7475    4.1014   21.8327 C.3     1  UNL1        0.0388
     24 C          -3.8812    3.3968   21.1482 C.3     1  UNL1        0.0048
     25 C          -5.0782    2.9582   21.9386 C.3     1  UNL1        0.0174
     26 C          -5.1416    3.2242   23.4135 C.3     1  UNL1        0.0720
     27 N          -4.0080    3.9287   24.0979 N.3     1  UNL1       -0.2739
     28 C          -2.8110    4.3673   23.3075 C.3     1  UNL1        0.0739
     29 C          -4.0714    4.1947   25.5728 C.3     1  UNL1        0.0576
     30 C          -5.1611    5.0601   26.1326 C.3     1  UNL1        0.0173
     31 C          -3.0450    3.5952   26.4878 C.3     1  UNL1        0.0173
@<TRIPOS>BOND
     1    19    20    1
     2    20    21    1
     3    20     1    1
     4     1     2   ar
     5     2     3   ar
     6     3     4   ar
     7     4     5   ar
     8     5     6   ar
     9     6    12    1
    10    12    13   ar
    11    13    14   ar
    12    14    15   ar
    13    15    16    1
    14    15    17   ar
    15    17    18   ar
    16     6     7   ar
    17     7     8   ar
    18     8     9   ar
    19     9    10    2
    20     9    11   ar
    21    11    22    1
    22    23    22    1
    23    23    24    1
    24    24    25    1
    25    25    26    1
    26    26    27    1
    27    27    29    1
    28    29    30    1
    29    29    31    1
    30    27    28    1
    31    11     1   ar
    32    28    23    1
    33     8     3   ar
    34    18    12   ar
@<TRIPOS>MOLECULE
*****
 31 34 0 0 0
SMALL
GASTEIGER

@<TRIPOS>ATOM
      1 C          -0.9952    2.8297   21.1789 C.ar    1  UNL1        0.1220
      2 N          -0.5753    1.6569   20.3434 N.ar    1  UNL1       -0.2322
      3 C           0.5464    0.7727   20.8019 C.ar    1  UNL1        0.0872
      4 C           0.9663   -0.4001   19.9663 C.ar    1  UNL1        0.0193
      5 C           2.0879   -1.2842   20.4248 C.ar    1  UNL1        0.0015
      6 C           2.7896   -0.9956   21.7188 C.ar    1  UNL1        0.0002
      7 C           2.3696    0.1772   22.5543 C.ar    1  UNL1        0.0063
      8 C           1.2480    1.0613   22.0958 C.ar    1  UNL1        0.0738
      9 C           0.8280    2.2342   22.9314 C.ar    1  UNL1        0.2631
     10 O           1.5297    2.5228   24.2254 O.2     1  UNL1       -0.2669
     11 N          -0.2936    3.1184   22.4729 N.ar    1  UNL1       -0.2840
     12 C           3.9112   -1.8799   22.1772 C.ar    1  UNL1        0.0001
     13 C           4.2566   -1.9584   23.6348 C.ar    1  UNL1        0.0009
     14 C           5.3783   -2.8426   24.0932 C.ar    1  UNL1        0.0114
     15 C           6.1545   -3.6483   23.0940 C.ar    1  UNL1        0.0577
     16 CL          7.2761   -4.5325   23.5524 Cl      1  UNL1       -0.0822
     17 C           5.8091   -3.5697   21.6364 C.ar    1  UNL1        0.0114
     18 C           4.6875   -2.6855   21.1780 C.ar    1  UNL1        0.0009
     19 C          -3.5387    3.2605   20.8708 C.3     1  UNL1        0.0079
     20 C          -2.1169    3.7140   20.7205 C.3     1  UNL1        0.0570
     21 C          -1.8166    5.0516   20.1118 C.3     1  UNL1        0.0079
     22 C          -0.7136    4.2912   23.3085 C.3     1  UNL1        0.1115
     23 C          -1.7288    4.1108   24.3979 C.3     1  UNL1        0.0388
     24 C          -1.3300    3.4754   25.6969 C.3     1  UNL1        0.0048
     25 C          -2.3452    3.2950   26.7863 C.3     1  UNL1        0.0174
     26 C          -3.7592    3.7499   26.5767 C.3     1  UNL1        0.0720
     27 N          -4.1579    4.3853   25.2777 N.3     1  UNL1       -0.2739
     28 C          -3.1427    4.5657   24.1883 C.3     1  UNL1        0.0739
     29 C          -5.5717    4.8402   25.0682 C.3     1  UNL1        0.0576
     30 C          -6.2996    4.4713   23.8095 C.3     1  UNL1        0.0173
     31 C          -6.2579    5.6640   26.1173 C.3     1  UNL1        0.0173
@<TRIPOS>BOND
     1    19    20    1
     2    20    21    1
     3    20     1    1
     4     1     2   ar
     5     2     3   ar
     6     3     4   ar
     7     4     5   ar
     8     5     6   ar
     9     6    12    1
    10    12    13   ar
    11    13    14   ar
    12    14    15   ar
    13    15    16    1
    14    15    17   ar
    15    17    18   ar
    16     6     7   ar
    17     7     8   ar
    18     8     9   ar
    19     9    10    2
    20     9    11   ar
    21    11    22    1
    22    23    22    1
    23    23    24    1
    24    24    25    1
    25    25    26    1
    26    26    27    1
    27    27    29    1
    28    29    30    1
    29    29    31    1
    30    27    28    1
    31    11     1   ar
    32    28    23    1
    33     8     3   ar
    34    18    12   ar
@<TRIPOS>MOLECULE
*****
 31 34 0 0 0
SMALL
GASTEIGER

@<TRIPOS>ATOM
      1 C           7.0559   -4.1126   24.0971 C.ar    1  UNL1        0.1220
      2 N           6.2524   -4.5272   22.9003 N.ar    1  UNL1       -0.2322
      3 C           5.3769   -3.5290   22.2023 C.ar    1  UNL1        0.0872
      4 C           4.5734   -3.9436   21.0054 C.ar    1  UNL1        0.0193
      5 C           3.6980   -2.9455   20.3074 C.ar    1  UNL1        0.0015
      6 C           3.6260   -1.5327   20.8063 C.ar    1  UNL1        0.0002
      7 C           4.4295   -1.1181   22.0032 C.ar    1  UNL1        0.0063
      8 C           5.3050   -2.1162   22.7011 C.ar    1  UNL1        0.0738
      9 C           6.1085   -1.7017   23.8980 C.ar    1  UNL1        0.2631
     10 O           6.0365   -0.2889   24.3969 O.2     1  UNL1       -0.2669
     11 N           6.9839   -2.6998   24.5960 N.ar    1  UNL1       -0.2840
     12 C           2.7505   -0.5345   20.1083 C.ar    1  UNL1        0.0001
     13 C           1.3163   -0.3784   20.5186 C.ar    1  UNL1        0.0009
     14 C           0.4408    0.6198   19.8206 C.ar    1  UNL1        0.0114
     15 C           0.9996    1.4618   18.7122 C.ar    1  UNL1        0.0577
     16 CL          0.1242    2.4600   18.0141 Cl      1  UNL1       -0.0822
     17 C           2.4340    1.3057   18.3018 C.ar    1  UNL1        0.0114
     18 C           3.3094    0.3076   18.9999 C.ar    1  UNL1        0.0009
     19 C           7.3419   -6.0459   25.8091 C.3     1  UNL1        0.0079
     20 C           7.9314   -5.1108   24.7952 C.3     1  UNL1        0.0570
     21 C           9.3964   -5.1738   24.4793 C.3     1  UNL1        0.0079
     22 C           7.7875   -2.2852   25.7929 C.3     1  UNL1        0.1115
     23 C           7.1291   -2.1734   27.1361 C.3     1  UNL1        0.0388
     24 C           6.3005   -0.9676   27.4671 C.3     1  UNL1        0.0048
     25 C           5.6421   -0.8557   28.8103 C.3     1  UNL1        0.0174
     26 C           5.8124   -1.9497   29.8224 C.3     1  UNL1        0.0720
     27 N           6.6410   -3.1554   29.4913 N.3     1  UNL1       -0.2739
     28 C           7.2993   -3.2673   28.1482 C.3     1  UNL1        0.0739
     29 C           6.8112   -4.2493   30.5035 C.3     1  UNL1        0.0576
     30 C           6.8994   -3.9138   31.9628 C.3     1  UNL1        0.0173
     31 C           6.8933   -5.6788   30.0562 C.3     1  UNL1        0.0173
@<TRIPOS>BOND
     1    19    20    1
     2    20    21    1
     3    20     1    1
     4     1     2   ar
     5     2     3   ar
     6     3     4   ar
     7     4     5   ar
     8     5     6   ar
     9     6    12    1
    10    12    13   ar
    11    13    14   ar
    12    14    15   ar
    13    15    16    1
    14    15    17   ar
    15    17    18   ar
    16     6     7   ar
    17     7     8   ar
    18     8     9   ar
    19     9    10    2
    20     9    11   ar
    21    11    22    1
    22    23    22    1
    23    23    24    1
    24    24    25    1
    25    25    26    1
    26    26    27    1
    27    27    29    1
    28    29    30    1
    29    29    31    1
    30    27    28    1
    31    11     1   ar
    32    28    23    1
    33     8     3   ar
    34    18    12   ar
@<TRIPOS>MOLECULE
*****
 31 34 0 0 0
SMALL
GASTEIGER

@<TRIPOS>ATOM
      1 C          -0.0718    3.5671   24.7119 C.ar    1  UNL1        0.1220
      2 N           0.8691    2.5362   25.2613 N.ar    1  UNL1       -0.2322
      3 C           1.4616    1.5009   24.3518 C.ar    1  UNL1        0.0872
      4 C           2.4025    0.4700   24.9013 C.ar    1  UNL1        0.0193
      5 C           2.9949   -0.5652   23.9918 C.ar    1  UNL1        0.0015
      6 C           2.6464   -0.5696   22.5328 C.ar    1  UNL1        0.0002
      7 C           1.7055    0.4612   21.9834 C.ar    1  UNL1        0.0063
      8 C           1.1131    1.4965   22.8929 C.ar    1  UNL1        0.0738
      9 C           0.1721    2.5274   22.3435 C.ar    1  UNL1        0.2631
     10 O          -0.1764    2.5230   20.8845 O.2     1  UNL1       -0.2669
     11 N          -0.4203    3.5627   23.2530 N.ar    1  UNL1       -0.2840
     12 C           3.2388   -1.6050   21.6233 C.ar    1  UNL1        0.0001
     13 C           4.1776   -2.6376   22.1733 C.ar    1  UNL1        0.0009
     14 C           4.7700   -3.6729   21.2638 C.ar    1  UNL1        0.0114
     15 C           4.4237   -3.6756   19.8043 C.ar    1  UNL1        0.0577
     16 CL          5.0161   -4.7109   18.8948 Cl      1  UNL1       -0.0822
     17 C           3.4849   -2.6429   19.2544 C.ar    1  UNL1        0.0114
     18 C           2.8925   -1.6076   20.1639 C.ar    1  UNL1        0.0009
     19 C          -1.8441    4.2585   26.4813 C.3     1  UNL1        0.0079
     20 C          -0.6643    4.6025   25.6214 C.3     1  UNL1        0.0570
     21 C          -0.0768    5.9817   25.6709 C.3     1  UNL1        0.0079
     22 C          -1.3613    4.5937   22.7035 C.3     1  UNL1        0.1115
     23 C          -2.8141    4.2648   22.5270 C.3     1  UNL1        0.0388
     24 C          -3.2704    3.5113   21.3128 C.3     1  UNL1        0.0048
     25 C          -4.7232    3.1825   21.1364 C.3     1  UNL1        0.0174
     26 C          -5.7198    3.6071   22.1741 C.3     1  UNL1        0.0720
     27 N          -5.2634    4.3605   23.3882 N.3     1  UNL1       -0.2739
     28 C          -3.8106    4.6893   23.5646 C.3     1  UNL1        0.0739
     29 C          -6.2599    4.7850   24.4258 C.3     1  UNL1        0.0576
     30 C          -7.7213    4.8254   24.0900 C.3     1  UNL1        0.0173
     31 C          -5.7951    5.1692   25.7993 C.3     1  UNL1        0.0173
@<TRIPOS>BOND
     1    19    20    1
     2    20    21    1
     3    20     1    1
     4     1     2   ar
     5     2     3   ar
     6     3     4   ar
     7     4     5   ar
     8     5     6   ar
     9     6    12    1
    10    12    13   ar
    11    13    14   ar
    12    14    15   ar
    13    15    16    1
    14    15    17   ar
    15    17    18   ar
    16     6     7   ar
    17     7     8   ar
    18     8     9   ar
    19     9    10    2
    20     9    11   ar
    21    11    22    1
    22    23    22    1
    23    23    24    1
    24    24    25    1
    25    25    26    1
    26    26    27    1
    27    27    29    1
    28    29    30    1
    29    29    31    1
    30    27    28    1
    31    11     1   ar
    32    28    23    1
    33     8     3   ar
    34    18    12   ar
