@<TRIPOS>MOLECULE
*****
 22 24 0 0 0
SMALL
GASTEIGER

@<TRIPOS>ATOM
      1 C          -8.6962  -18.7862   21.5464 C.ar    1  UNL1        0.0428
      2 C          -9.2248  -19.5520   20.3699 C.ar    1  UNL1        0.0077
      3 C         -10.3737  -19.0064   19.5747 C.ar    1  UNL1        0.0006
      4 C         -10.9940  -17.6950   19.9560 C.ar    1  UNL1        0.0013
      5 C         -10.4655  -16.9292   21.1325 C.ar    1  UNL1        0.0150
      6 C          -9.3166  -17.4748   21.9277 C.ar    1  UNL1        0.0540
      7 N          -8.7881  -16.7090   23.1042 N.pl3   1  UNL1       -0.3043
      8 C          -7.8238  -15.5798   22.8922 C.3     1  UNL1        0.1079
      9 C          -7.2952  -14.8140   24.0687 C.3     1  UNL1        0.0903
     10 N          -7.7309  -15.1774   25.4573 N.3     1  UNL1       -0.2946
     11 C          -8.6953  -16.3067   25.6693 C.3     1  UNL1        0.0903
     12 C          -9.2238  -17.0725   24.4928 C.3     1  UNL1        0.1079
     13 H          -8.1607  -14.3440   25.8586 H       1  UNL1        0.1233
     14 S          -7.5473  -19.3318   22.3416 S.3     1  UNL1       -0.0848
     15 CL         -2.5088  -18.1508   21.8738 Cl      1  UNL1       -0.0813
     16 C          -3.6980  -18.9610   21.4500 C.ar    1  UNL1        0.0687
     17 C          -3.5570  -19.9908   20.3686 C.ar    1  UNL1        0.0123
     18 C          -4.7461  -20.8010   19.9448 C.ar    1  UNL1        0.0014
     19 C          -6.0762  -20.5813   20.6025 C.ar    1  UNL1        0.0074
     20 C          -6.2172  -19.5515   21.6839 C.ar    1  UNL1        0.0409
     21 C          -5.0281  -18.7413   22.1076 C.ar    1  UNL1        0.0741
     22 CL         -5.1691  -17.7115   23.1891 Cl      1  UNL1       -0.0808
@<TRIPOS>BOND
     1    15    16    1
     2    16    17   ar
     3    17    18   ar
     4    18    19   ar
     5    19    20   ar
     6    20    14    1
     7    14     1    1
     8     1     2   ar
     9     2     3   ar
    10     3     4   ar
    11     4     5   ar
    12     5     6   ar
    13     6     7    1
    14     7     8    1
    15     8     9    1
    16     9    10    1
    17    10    11    1
    18    11    12    1
    19    20    21   ar
    20    21    22    1
    21    21    16   ar
    22     6     1   ar
    23    12     7    1
    24    10    13    1
@<TRIPOS>MOLECULE
*****
 22 24 0 0 0
SMALL
GASTEIGER

@<TRIPOS>ATOM
      1 C          -7.2109  -16.0975   24.7577 C.ar    1  UNL1        0.0428
      2 C          -6.1776  -15.3864   25.5804 C.ar    1  UNL1        0.0077
      3 C          -6.4246  -15.1316   27.0379 C.ar    1  UNL1        0.0006
      4 C          -7.7047  -15.5879   27.6726 C.ar    1  UNL1        0.0013
      5 C          -8.7380  -16.2991   26.8500 C.ar    1  UNL1        0.0150
      6 C          -8.4911  -16.5539   25.3926 C.ar    1  UNL1        0.0540
      7 N          -9.5243  -17.2650   24.5700 N.pl3   1  UNL1       -0.3043
      8 C         -10.2971  -16.5157   23.5253 C.3     1  UNL1        0.1079
      9 C         -11.3303  -17.2269   22.7027 C.3     1  UNL1        0.0903
     10 N         -11.5908  -18.6872   22.9247 N.3     1  UNL1       -0.2946
     11 C         -10.8180  -19.4366   23.9694 C.3     1  UNL1        0.0903
     12 C          -9.7848  -18.7255   24.7921 C.3     1  UNL1        0.1079
     13 H         -11.4155  -19.1561   22.0360 H       1  UNL1        0.1233
     14 S          -6.9640  -16.3523   23.3003 S.3     1  UNL1       -0.0848
     15 CL         -6.0345  -20.8253   20.8247 Cl      1  UNL1       -0.0813
     16 C          -5.5444  -19.6660   21.6407 C.ar    1  UNL1        0.0687
     17 C          -4.0995  -19.5838   22.0348 C.ar    1  UNL1        0.0123
     18 C          -3.6094  -18.4246   22.8507 C.ar    1  UNL1        0.0014
     19 C          -4.5642  -17.3474   23.2726 C.ar    1  UNL1        0.0074
     20 C          -6.0091  -17.4295   22.8785 C.ar    1  UNL1        0.0409
     21 C          -6.4992  -18.5888   22.0625 C.ar    1  UNL1        0.0741
     22 CL         -7.9443  -18.6709   21.6684 Cl      1  UNL1       -0.0808
@<TRIPOS>BOND
     1    15    16    1
     2    16    17   ar
     3    17    18   ar
     4    18    19   ar
     5    19    20   ar
     6    20    14    1
     7    14     1    1
     8     1     2   ar
     9     2     3   ar
    10     3     4   ar
    11     4     5   ar
    12     5     6   ar
    13     6     7    1
    14     7     8    1
    15     8     9    1
    16     9    10    1
    17    10    11    1
    18    11    12    1
    19    20    21   ar
    20    21    22    1
    21    21    16   ar
    22     6     1   ar
    23    12     7    1
    24    10    13    1
@<TRIPOS>MOLECULE
*****
 22 24 0 0 0
SMALL
GASTEIGER

@<TRIPOS>ATOM
      1 C          -9.9358  -16.9036   22.4355 C.ar    1  UNL1        0.0428
      2 C         -11.1911  -16.1352   22.7251 C.ar    1  UNL1        0.0077
      3 C         -12.5282  -16.7347   22.4041 C.ar    1  UNL1        0.0006
      4 C         -12.6099  -18.1023   21.7937 C.ar    1  UNL1        0.0013
      5 C         -11.3546  -18.8707   21.5041 C.ar    1  UNL1        0.0150
      6 C         -10.0176  -18.2713   21.8250 C.ar    1  UNL1        0.0540
      7 N          -8.7622  -19.0397   21.5355 N.pl3   1  UNL1       -0.3043
      8 C          -8.2328  -19.1106   20.1339 C.3     1  UNL1        0.1079
      9 C          -6.9775  -19.8790   19.8443 C.3     1  UNL1        0.0903
     10 N          -6.2516  -20.5764   20.9564 N.3     1  UNL1       -0.2946
     11 C          -6.7811  -20.5055   22.3581 C.3     1  UNL1        0.0903
     12 C          -8.0364  -19.7371   22.6476 C.3     1  UNL1        0.1079
     13 H          -5.3073  -20.1915   20.9785 H       1  UNL1        0.1233
     14 S          -8.5987  -16.3043   22.7565 S.3     1  UNL1       -0.0848
     15 CL         -5.0397  -14.8547   26.2540 Cl      1  UNL1       -0.0813
     16 C          -6.3707  -15.4669   25.9322 C.ar    1  UNL1        0.0687
     17 C          -7.2533  -15.9667   27.0373 C.ar    1  UNL1        0.0123
     18 C          -8.5843  -16.5790   26.7155 C.ar    1  UNL1        0.0014
     19 C          -9.0327  -16.6915   25.2886 C.ar    1  UNL1        0.0074
     20 C          -8.1502  -16.1918   24.1835 C.ar    1  UNL1        0.0409
     21 C          -6.8192  -15.5795   24.5053 C.ar    1  UNL1        0.0741
     22 CL         -5.9367  -15.0797   23.4000 Cl      1  UNL1       -0.0808
@<TRIPOS>BOND
     1    15    16    1
     2    16    17   ar
     3    17    18   ar
     4    18    19   ar
     5    19    20   ar
     6    20    14    1
     7    14     1    1
     8     1     2   ar
     9     2     3   ar
    10     3     4   ar
    11     4     5   ar
    12     5     6   ar
    13     6     7    1
    14     7     8    1
    15     8     9    1
    16     9    10    1
    17    10    11    1
    18    11    12    1
    19    20    21   ar
    20    21    22    1
    21    21    16   ar
    22     6     1   ar
    23    12     7    1
    24    10    13    1
@<TRIPOS>MOLECULE
*****
 22 24 0 0 0
SMALL
GASTEIGER

@<TRIPOS>ATOM
      1 C          -7.1981  -16.0438   24.6656 C.ar    1  UNL1        0.0428
      2 C          -6.0770  -15.3700   25.3999 C.ar    1  UNL1        0.0077
      3 C          -6.1793  -15.1420   26.8790 C.ar    1  UNL1        0.0006
      4 C          -7.4026  -15.5879   27.6237 C.ar    1  UNL1        0.0013
      5 C          -8.5236  -16.2617   26.8894 C.ar    1  UNL1        0.0150
      6 C          -8.4214  -16.4897   25.4104 C.ar    1  UNL1        0.0540
      7 N          -9.5425  -17.1636   24.6761 N.pl3   1  UNL1       -0.3043
      8 C          -9.9076  -18.5813   25.0026 C.3     1  UNL1        0.1079
      9 C         -11.0287  -19.2551   24.2683 C.3     1  UNL1        0.0903
     10 N         -11.7846  -18.5113   23.2075 N.3     1  UNL1       -0.2946
     11 C         -11.4194  -17.0934   22.8810 C.3     1  UNL1        0.0903
     12 C         -10.2983  -16.4196   23.6153 C.3     1  UNL1        0.1079
     13 H         -12.7637  -18.5048   23.4934 H       1  UNL1        0.1233
     14 S          -7.0958  -16.2718   23.1866 S.3     1  UNL1       -0.0848
     15 CL         -3.2862  -19.6598   22.1826 Cl      1  UNL1       -0.0813
     16 C          -4.7416  -19.2974   22.1602 C.ar    1  UNL1        0.0687
     17 C          -5.7475  -20.2665   21.6136 C.ar    1  UNL1        0.0123
     18 C          -7.2029  -19.9040   21.5912 C.ar    1  UNL1        0.0014
     19 C          -7.6523  -18.5725   22.1155 C.ar    1  UNL1        0.0074
     20 C          -6.6464  -17.6034   22.6622 C.ar    1  UNL1        0.0409
     21 C          -5.1910  -17.9658   22.6846 C.ar    1  UNL1        0.0741
     22 CL         -4.1850  -16.9966   23.2313 Cl      1  UNL1       -0.0808
@<TRIPOS>BOND
     1    15    16    1
     2    16    17   ar
     3    17    18   ar
     4    18    19   ar
     5    19    20   ar
     6    20    14    1
     7    14     1    1
     8     1     2   ar
     9     2     3   ar
    10     3     4   ar
    11     4     5   ar
    12     5     6   ar
    13     6     7    1
    14     7     8    1
    15     8     9    1
    16     9    10    1
    17    10    11    1
    18    11    12    1
    19    20    21   ar
    20    21    22    1
    21    21    16   ar
    22     6     1   ar
    23    12     7    1
    24    10    13    1
@<TRIPOS>MOLECULE
*****
 22 24 0 0 0
SMALL
GASTEIGER

@<TRIPOS>ATOM
      1 C          -8.9552  -18.6108   21.6341 C.ar    1  UNL1        0.0428
      2 C          -9.5738  -19.2788   20.4420 C.ar    1  UNL1        0.0077
      3 C         -10.6278  -18.5672   19.6465 C.ar    1  UNL1        0.0006
      4 C         -11.0630  -17.1876   20.0429 C.ar    1  UNL1        0.0013
      5 C         -10.4443  -16.5196   21.2350 C.ar    1  UNL1        0.0150
      6 C          -9.3904  -17.2311   22.0305 C.ar    1  UNL1        0.0540
      7 N          -8.7717  -16.5630   23.2225 N.pl3   1  UNL1       -0.3043
      8 C          -9.1982  -16.9537   24.6066 C.3     1  UNL1        0.1079
      9 C          -8.5795  -16.2856   25.7986 C.3     1  UNL1        0.0903
     10 N          -7.5344  -15.2269   25.6066 N.3     1  UNL1       -0.2946
     11 C          -7.1079  -14.8362   24.2225 C.3     1  UNL1        0.0903
     12 C          -7.7266  -15.5043   23.0305 C.3     1  UNL1        0.1079
     13 H          -6.6973  -15.5479   26.0931 H       1  UNL1        0.1233
     14 S          -7.9013  -19.3223   22.4296 S.3     1  UNL1       -0.0848
     15 CL         -3.7288  -20.4413   19.5420 Cl      1  UNL1       -0.0813
     16 C          -4.3647  -19.6749   20.6637 C.ar    1  UNL1        0.0687
     17 C          -3.5503  -18.7016   21.4633 C.ar    1  UNL1        0.0123
     18 C          -4.1862  -17.9352   22.5850 C.ar    1  UNL1        0.0014
     19 C          -5.6365  -18.1421   22.9071 C.ar    1  UNL1        0.0074
     20 C          -6.4509  -19.1154   22.1075 C.ar    1  UNL1        0.0409
     21 C          -5.8150  -19.8818   20.9858 C.ar    1  UNL1        0.0741
     22 CL         -6.6295  -20.8552   20.1862 Cl      1  UNL1       -0.0808
@<TRIPOS>BOND
     1    15    16    1
     2    16    17   ar
     3    17    18   ar
     4    18    19   ar
     5    19    20   ar
     6    20    14    1
     7    14     1    1
     8     1     2   ar
     9     2     3   ar
    10     3     4   ar
    11     4     5   ar
    12     5     6   ar
    13     6     7    1
    14     7     8    1
    15     8     9    1
    16     9    10    1
    17    10    11    1
    18    11    12    1
    19    20    21   ar
    20    21    22    1
    21    21    16   ar
    22     6     1   ar
    23    12     7    1
    24    10    13    1
@<TRIPOS>MOLECULE
*****
 22 24 0 0 0
SMALL
GASTEIGER

@<TRIPOS>ATOM
      1 C          -7.9841  -17.2491   23.5277 C.ar    1  UNL1        0.0428
      2 C          -8.6176  -16.2322   24.4302 C.ar    1  UNL1        0.0077
      3 C          -7.7822  -15.1445   25.0376 C.ar    1  UNL1        0.0006
      4 C          -6.3132  -15.0737   24.7424 C.ar    1  UNL1        0.0013
      5 C          -5.6797  -16.0906   23.8399 C.ar    1  UNL1        0.0150
      6 C          -6.5151  -17.1783   23.2325 C.ar    1  UNL1        0.0540
      7 N          -5.8815  -18.1952   22.3300 N.pl3   1  UNL1       -0.3043
      8 C          -4.5058  -18.7115   22.6310 C.3     1  UNL1        0.1079
      9 C          -3.8723  -19.7284   21.7285 C.3     1  UNL1        0.0903
     10 N          -4.6145  -20.2290   20.5250 N.3     1  UNL1       -0.2946
     11 C          -5.9903  -19.7126   20.2239 C.3     1  UNL1        0.0903
     12 C          -6.6238  -18.6957   21.1264 C.3     1  UNL1        0.1079
     13 H          -4.6957  -21.2404   20.6288 H       1  UNL1        0.1233
     14 S          -8.8195  -18.3368   22.9203 S.3     1  UNL1       -0.0848
     15 CL        -13.9245  -18.0990   23.8598 Cl      1  UNL1       -0.0813
     16 C         -12.7663  -17.9208   22.9234 C.ar    1  UNL1        0.0687
     17 C         -13.0023  -17.4455   21.5204 C.ar    1  UNL1        0.0123
     18 C         -11.8441  -17.2673   20.5841 C.ar    1  UNL1        0.0014
     19 C         -10.4498  -17.5644   21.0507 C.ar    1  UNL1        0.0074
     20 C         -10.2138  -18.0397   22.4536 C.ar    1  UNL1        0.0409
     21 C         -11.3720  -18.2179   23.3900 C.ar    1  UNL1        0.0741
     22 CL        -11.1359  -18.6932   24.7930 Cl      1  UNL1       -0.0808
@<TRIPOS>BOND
     1    15    16    1
     2    16    17   ar
     3    17    18   ar
     4    18    19   ar
     5    19    20   ar
     6    20    14    1
     7    14     1    1
     8     1     2   ar
     9     2     3   ar
    10     3     4   ar
    11     4     5   ar
    12     5     6   ar
    13     6     7    1
    14     7     8    1
    15     8     9    1
    16     9    10    1
    17    10    11    1
    18    11    12    1
    19    20    21   ar
    20    21    22    1
    21    21    16   ar
    22     6     1   ar
    23    12     7    1
    24    10    13    1
@<TRIPOS>MOLECULE
*****
 22 24 0 0 0
SMALL
GASTEIGER

@<TRIPOS>ATOM
      1 C          -7.9504  -17.6241   22.1708 C.ar    1  UNL1        0.0428
      2 C          -6.5714  -18.1829   22.3605 C.ar    1  UNL1        0.0077
      3 C          -6.1493  -19.4101   21.6081 C.ar    1  UNL1        0.0006
      4 C          -7.1063  -20.0784   20.6660 C.ar    1  UNL1        0.0013
      5 C          -8.4854  -19.5196   20.4763 C.ar    1  UNL1        0.0150
      6 C          -8.9074  -18.2925   21.2287 C.ar    1  UNL1        0.0540
      7 N         -10.2865  -17.7337   21.0390 N.pl3   1  UNL1       -0.3043
      8 C         -11.4369  -18.2939   21.8217 C.3     1  UNL1        0.1079
      9 C         -12.8159  -17.7351   21.6320 C.3     1  UNL1        0.0903
     10 N         -13.0446  -16.6161   20.6596 N.3     1  UNL1       -0.2946
     11 C         -11.8941  -16.0558   19.8769 C.3     1  UNL1        0.0903
     12 C         -10.5150  -16.6146   20.0666 C.3     1  UNL1        0.1079
     13 H         -13.4445  -15.8421   21.1901 H       1  UNL1        0.1233
     14 S          -8.3724  -16.3970   22.9231 S.3     1  UNL1       -0.0848
     15 CL         -4.9874  -14.7286   26.4949 Cl      1  UNL1       -0.0813
     16 C          -6.2868  -15.3921   26.1465 C.ar    1  UNL1        0.0687
     17 C          -7.1929  -15.8849   27.2355 C.ar    1  UNL1        0.0123
     18 C          -8.4923  -16.5485   26.8870 C.ar    1  UNL1        0.0014
     19 C          -8.8855  -16.7192   25.4496 C.ar    1  UNL1        0.0074
     20 C          -7.9793  -16.2263   24.3606 C.ar    1  UNL1        0.0409
     21 C          -6.6799  -15.5628   24.7091 C.ar    1  UNL1        0.0741
     22 CL         -5.7737  -15.0700   23.6200 Cl      1  UNL1       -0.0808
@<TRIPOS>BOND
     1    15    16    1
     2    16    17   ar
     3    17    18   ar
     4    18    19   ar
     5    19    20   ar
     6    20    14    1
     7    14     1    1
     8     1     2   ar
     9     2     3   ar
    10     3     4   ar
    11     4     5   ar
    12     5     6   ar
    13     6     7    1
    14     7     8    1
    15     8     9    1
    16     9    10    1
    17    10    11    1
    18    11    12    1
    19    20    21   ar
    20    21    22    1
    21    21    16   ar
    22     6     1   ar
    23    12     7    1
    24    10    13    1
@<TRIPOS>MOLECULE
*****
 22 24 0 0 0
SMALL
GASTEIGER

@<TRIPOS>ATOM
      1 C          -7.2721  -17.6465   22.3022 C.ar    1  UNL1        0.0428
      2 C          -5.8601  -18.1524   22.2865 C.ar    1  UNL1        0.0077
      3 C          -5.5546  -19.5056   21.7157 C.ar    1  UNL1        0.0006
      4 C          -6.6611  -20.3526   21.1606 C.ar    1  UNL1        0.0013
      5 C          -8.0731  -19.8467   21.1763 C.ar    1  UNL1        0.0150
      6 C          -8.3786  -18.4936   21.7471 C.ar    1  UNL1        0.0540
      7 N          -9.7906  -17.9877   21.7628 N.pl3   1  UNL1       -0.3043
      8 C         -10.1612  -16.7735   20.9638 C.3     1  UNL1        0.1079
      9 C         -11.5732  -16.2676   20.9795 C.3     1  UNL1        0.0903
     10 N         -12.6146  -16.9757   21.7943 N.3     1  UNL1       -0.2946
     11 C         -12.2441  -18.1899   22.5934 C.3     1  UNL1        0.0903
     12 C         -10.8321  -18.6959   22.5776 C.3     1  UNL1        0.1079
     13 H         -13.3499  -17.2618   21.1478 H       1  UNL1        0.1233
     14 S          -7.5777  -16.2934   22.8730 S.3     1  UNL1       -0.0848
     15 CL         -8.6619  -16.2131   27.9542 Cl      1  UNL1       -0.0813
     16 C          -7.7208  -15.9259   26.8220 C.ar    1  UNL1        0.0687
     17 C          -6.3807  -15.3112   27.0982 C.ar    1  UNL1        0.0123
     18 C          -5.4396  -15.0239   25.9661 C.ar    1  UNL1        0.0014
     19 C          -5.8386  -15.3513   24.5577 C.ar    1  UNL1        0.0074
     20 C          -7.1787  -15.9660   24.2814 C.ar    1  UNL1        0.0409
     21 C          -8.1198  -16.2533   25.4136 C.ar    1  UNL1        0.0741
     22 CL         -9.4599  -16.8680   25.1373 Cl      1  UNL1       -0.0808
@<TRIPOS>BOND
     1    15    16    1
     2    16    17   ar
     3    17    18   ar
     4    18    19   ar
     5    19    20   ar
     6    20    14    1
     7    14     1    1
     8     1     2   ar
     9     2     3   ar
    10     3     4   ar
    11     4     5   ar
    12     5     6   ar
    13     6     7    1
    14     7     8    1
    15     8     9    1
    16     9    10    1
    17    10    11    1
    18    11    12    1
    19    20    21   ar
    20    21    22    1
    21    21    16   ar
    22     6     1   ar
    23    12     7    1
    24    10    13    1
@<TRIPOS>MOLECULE
*****
 22 24 0 0 0
SMALL
GASTEIGER

@<TRIPOS>ATOM
      1 C          -8.6039  -18.1027   21.0895 C.ar    1  UNL1        0.0428
      2 C         -10.0607  -18.0677   20.7339 C.ar    1  UNL1        0.0077
      3 C         -10.6053  -19.0170   19.7080 C.ar    1  UNL1        0.0006
      4 C          -9.6931  -20.0012   19.0378 C.ar    1  UNL1        0.0013
      5 C          -8.2363  -20.0362   19.3934 C.ar    1  UNL1        0.0150
      6 C          -7.6917  -19.0870   20.4193 C.ar    1  UNL1        0.0540
      7 N          -6.2349  -19.1220   20.7749 N.pl3   1  UNL1       -0.3043
      8 C          -5.1986  -18.8871   19.7163 C.3     1  UNL1        0.1079
      9 C          -3.7418  -18.9221   20.0719 C.3     1  UNL1        0.0903
     10 N          -3.3213  -19.1919   21.4862 N.3     1  UNL1       -0.2946
     11 C          -4.3576  -19.4268   22.5450 C.3     1  UNL1        0.0903
     12 C          -5.8144  -19.3918   22.1893 C.3     1  UNL1        0.1079
     13 H          -2.7692  -18.3890   21.7876 H       1  UNL1        0.1233
     14 S          -8.0593  -17.1535   22.1154 S.3     1  UNL1       -0.0848
     15 CL         -8.0952  -15.2980   26.9688 Cl      1  UNL1       -0.0813
     16 C          -8.5030  -16.3453   25.9754 C.ar    1  UNL1        0.0687
     17 C          -9.3365  -17.5122   26.4154 C.ar    1  UNL1        0.0123
     18 C          -9.7444  -18.5595   25.4220 C.ar    1  UNL1        0.0014
     19 C          -9.3186  -18.4399   23.9887 C.ar    1  UNL1        0.0074
     20 C          -8.4851  -17.2731   23.5487 C.ar    1  UNL1        0.0409
     21 C          -8.0773  -16.2257   24.5421 C.ar    1  UNL1        0.0741
     22 CL         -7.2437  -15.0588   24.1021 Cl      1  UNL1       -0.0808
@<TRIPOS>BOND
     1    15    16    1
     2    16    17   ar
     3    17    18   ar
     4    18    19   ar
     5    19    20   ar
     6    20    14    1
     7    14     1    1
     8     1     2   ar
     9     2     3   ar
    10     3     4   ar
    11     4     5   ar
    12     5     6   ar
    13     6     7    1
    14     7     8    1
    15     8     9    1
    16     9    10    1
    17    10    11    1
    18    11    12    1
    19    20    21   ar
    20    21    22    1
    21    21    16   ar
    22     6     1   ar
    23    12     7    1
    24    10    13    1
