@<TRIPOS>MOLECULE
*****
 43 46 0 0 0
SMALL
GASTEIGER

@<TRIPOS>ATOM
      1 C           6.3676   -1.7141   21.0279 C.ar    1  UNL1        0.1586
      2 C           6.6905   -3.0043   20.3343 C.ar    1  UNL1        0.0388
      3 C           7.1777   -4.1806   21.1272 C.ar    1  UNL1        0.0032
      4 C           7.3420   -4.0669   22.6138 C.ar    1  UNL1        0.0014
      5 C           7.0191   -2.7767   23.3075 C.ar    1  UNL1        0.0178
      6 C           6.5319   -1.6003   22.5146 C.ar    1  UNL1        0.0865
      7 C           7.8292   -5.2432   23.4068 C.ar    1  UNL1        0.0001
      8 C           8.6853   -6.2864   22.7519 C.ar    1  UNL1        0.0000
      9 C           9.1725   -7.4628   23.5448 C.ar    1  UNL1        0.0000
     10 C           8.8036   -7.5960   24.9926 C.ar    1  UNL1        0.0011
     11 C           7.9475   -6.5529   25.6475 C.ar    1  UNL1        0.0140
     12 C           7.4602   -5.3765   24.8546 C.ar    1  UNL1        0.0011
     13 C           7.5785   -6.6861   27.0953 C.2     1  UNL1        0.0729
     14 O           8.2932   -7.6792   27.9631 O.co2   1  UNL1       -0.5446
     15 O           6.4949   -5.8263   27.6754 O.co2   1  UNL1       -0.5446
     16 N           6.2090   -0.3102   23.2083 N.am    1  UNL1       -0.2656
     17 C           5.0421   -0.2354   24.1478 C.2     1  UNL1        0.3082
     18 O           4.1981   -1.4508   24.3937 O.2     1  UNL1       -0.2521
     19 N           4.7192    1.0548   24.8415 N.am    1  UNL1       -0.2681
     20 H           6.7630    0.4875   23.0469 H       1  UNL1        0.1565
     21 H           5.2732    1.8525   24.6802 H       1  UNL1        0.1564
     22 C           3.5523    1.1296   25.7811 C.ar    1  UNL1        0.0518
     23 C           2.1612    1.2756   25.2391 C.ar    1  UNL1        0.0178
     24 C           0.9943    1.3504   26.1787 C.ar    1  UNL1        0.0385
     25 C           1.2185    1.2791   27.6602 C.ar    1  UNL1        0.1469
     26 C           2.6095    1.1331   28.2020 C.ar    1  UNL1        0.0385
     27 C           3.7764    1.0583   27.2625 C.ar    1  UNL1        0.0178
     28 O           0.0516    1.3539   28.5997 O.3     1  UNL1       -0.4045
     29 C          -0.9395    0.2293   28.6556 C.3     1  UNL1        0.5753
     30 F          -1.9306   -0.8952   28.7115 F       1  UNL1       -0.1328
     31 F           0.1525   -0.7126   29.0683 F       1  UNL1       -0.1328
     32 F          -2.0315    1.1712   28.2430 F       1  UNL1       -0.1328
     33 O           5.8804   -0.5377   20.2350 O.3     1  UNL1       -0.4526
     34 C           3.9631    0.4445   18.7827 C.ar    1  UNL1        0.0117
     35 C           2.4987    0.6036   18.4997 C.ar    1  UNL1       -0.0013
     36 C           1.4871   -0.0605   19.3861 C.ar    1  UNL1       -0.0001
     37 C           1.9399   -0.8836   20.5554 C.ar    1  UNL1        0.0031
     38 C           3.4043   -1.0427   20.8384 C.ar    1  UNL1        0.0372
     39 C           4.4159   -0.3786   19.9520 C.ar    1  UNL1        0.1413
     40 C           4.8702    2.3609   18.7153 C.3     1  UNL1        0.0045
     41 C           4.9747    1.1086   17.8963 C.3     1  UNL1        0.0218
     42 C           5.0792   -0.1438   17.0773 C.3     1  UNL1        0.0045
     43 C           5.9863    1.7726   17.0099 C.3     1  UNL1        0.0045
@<TRIPOS>UNITY_ATOM_ATTR
14 1
charge -1
@<TRIPOS>BOND
     1    40    41    1
     2    41    42    1
     3    41    43    1
     4    41    34    1
     5    34    35   ar
     6    35    36   ar
     7    36    37   ar
     8    37    38   ar
     9    38    39   ar
    10    39    33    1
    11    33     1    1
    12     1     2   ar
    13     2     3   ar
    14     3     4   ar
    15     4     7    1
    16     7     8   ar
    17     8     9   ar
    18     9    10   ar
    19    10    11   ar
    20    11    13    1
    21    13    14   ar
    22    13    15   ar
    23    11    12   ar
    24     4     5   ar
    25     5     6   ar
    26     6    16    1
    27    16    17   am
    28    17    18    2
    29    17    19   am
    30    19    22    1
    31    22    23   ar
    32    23    24   ar
    33    24    25   ar
    34    25    28    1
    35    28    29    1
    36    29    30    1
    37    29    31    1
    38    29    32    1
    39    25    26   ar
    40    26    27   ar
    41    39    34   ar
    42     6     1   ar
    43    27    22   ar
    44    12     7   ar
    45    16    20    1
    46    19    21    1
@<TRIPOS>MOLECULE
*****
 43 46 0 0 0
SMALL
GASTEIGER

@<TRIPOS>ATOM
      1 C           2.8378    0.6201   21.0220 C.ar    1  UNL1        0.1586
      2 C           1.3774    0.8916   20.8128 C.ar    1  UNL1        0.0388
      3 C           0.5088    1.2616   21.9784 C.ar    1  UNL1        0.0032
      4 C           1.1005    1.3601   23.3533 C.ar    1  UNL1        0.0014
      5 C           2.5608    1.0886   23.5625 C.ar    1  UNL1        0.0178
      6 C           3.4295    0.7186   22.3969 C.ar    1  UNL1        0.0865
      7 C           0.2320    1.7301   24.5189 C.ar    1  UNL1        0.0001
      8 C          -0.6907    2.9089   24.4224 C.ar    1  UNL1        0.0000
      9 C          -1.5592    3.2789   25.5879 C.ar    1  UNL1        0.0000
     10 C          -1.5053    2.4701   26.8501 C.ar    1  UNL1        0.0011
     11 C          -0.5827    1.2914   26.9466 C.ar    1  UNL1        0.0140
     12 C           0.2859    0.9213   25.7810 C.ar    1  UNL1        0.0011
     13 C          -0.5287    0.4826   28.2087 C.2     1  UNL1        0.0729
     14 O          -1.7641    0.3090   29.0417 O.co2   1  UNL1       -0.5446
     15 O           0.7606   -0.1526   28.6379 O.co2   1  UNL1       -0.5446
     16 N           4.8897    0.4471   22.6061 N.am    1  UNL1       -0.2656
     17 C           5.3314   -0.8484   23.2197 C.2     1  UNL1        0.3082
     18 O           4.3127   -1.8725   23.6240 O.2     1  UNL1       -0.2521
     19 N           6.7917   -1.1199   23.4289 N.am    1  UNL1       -0.2681
     20 H           5.5584    1.1193   22.3408 H       1  UNL1        0.1565
     21 H           7.4603   -0.4477   23.1636 H       1  UNL1        0.1564
     22 C           7.2334   -2.4155   24.0425 C.ar    1  UNL1        0.0518
     23 C           7.2946   -3.6591   23.2060 C.ar    1  UNL1        0.0178
     24 C           7.7362   -4.9547   23.8195 C.ar    1  UNL1        0.0385
     25 C           8.1166   -5.0066   25.2696 C.ar    1  UNL1        0.1469
     26 C           8.0554   -3.7630   26.1060 C.ar    1  UNL1        0.0385
     27 C           7.6137   -2.4675   25.4925 C.ar    1  UNL1        0.0178
     28 O           8.5582   -6.3022   25.8832 O.3     1  UNL1       -0.4045
     29 C           7.5665   -7.4071   26.0975 C.3     1  UNL1        0.5753
     30 F           6.5749   -8.5119   26.3117 F       1  UNL1       -0.1328
     31 F           8.0491   -8.0825   24.8481 F       1  UNL1       -0.1328
     32 F           7.0839   -6.7317   27.3468 F       1  UNL1       -0.1328
     33 O           3.7063    0.2501   19.8565 O.3     1  UNL1       -0.4526
     34 C           4.9042   -1.5609   18.4298 C.ar    1  UNL1        0.0117
     35 C           5.1897   -3.0037   18.1354 C.ar    1  UNL1       -0.0013
     36 C           4.5629   -4.0784   18.9734 C.ar    1  UNL1       -0.0001
     37 C           3.6506   -3.7103   20.1056 C.ar    1  UNL1        0.0031
     38 C           3.3651   -2.2675   20.4000 C.ar    1  UNL1        0.0372
     39 C           3.9919   -1.1927   19.5621 C.ar    1  UNL1        0.1413
     40 C           6.7570   -0.5280   18.4551 C.3     1  UNL1        0.0045
     41 C           5.5310   -0.4862   17.5918 C.3     1  UNL1        0.0218
     42 C           4.3051   -0.4443   16.7285 C.3     1  UNL1        0.0045
     43 C           6.1578    0.5885   16.7539 C.3     1  UNL1        0.0045
@<TRIPOS>UNITY_ATOM_ATTR
14 1
charge -1
@<TRIPOS>BOND
     1    40    41    1
     2    41    42    1
     3    41    43    1
     4    41    34    1
     5    34    35   ar
     6    35    36   ar
     7    36    37   ar
     8    37    38   ar
     9    38    39   ar
    10    39    33    1
    11    33     1    1
    12     1     2   ar
    13     2     3   ar
    14     3     4   ar
    15     4     7    1
    16     7     8   ar
    17     8     9   ar
    18     9    10   ar
    19    10    11   ar
    20    11    13    1
    21    13    14   ar
    22    13    15   ar
    23    11    12   ar
    24     4     5   ar
    25     5     6   ar
    26     6    16    1
    27    16    17   am
    28    17    18    2
    29    17    19   am
    30    19    22    1
    31    22    23   ar
    32    23    24   ar
    33    24    25   ar
    34    25    28    1
    35    28    29    1
    36    29    30    1
    37    29    31    1
    38    29    32    1
    39    25    26   ar
    40    26    27   ar
    41    39    34   ar
    42     6     1   ar
    43    27    22   ar
    44    12     7   ar
    45    16    20    1
    46    19    21    1
@<TRIPOS>MOLECULE
*****
 43 46 0 0 0
SMALL
GASTEIGER

@<TRIPOS>ATOM
      1 C           3.5613    0.2578   21.6802 C.ar    1  UNL1        0.1586
      2 C           2.2142    0.6813   21.1743 C.ar    1  UNL1        0.0388
      3 C           1.1725    1.1724   22.1354 C.ar    1  UNL1        0.0032
      4 C           1.4779    1.2400   23.6024 C.ar    1  UNL1        0.0014
      5 C           2.8249    0.8165   24.1083 C.ar    1  UNL1        0.0178
      6 C           3.8667    0.3254   23.1473 C.ar    1  UNL1        0.0865
      7 C           0.4362    1.7310   24.5635 C.ar    1  UNL1        0.0001
      8 C          -0.5500    2.7755   24.1314 C.ar    1  UNL1        0.0000
      9 C          -1.5917    3.2666   25.0925 C.ar    1  UNL1        0.0000
     10 C          -1.6472    2.7132   26.4856 C.ar    1  UNL1        0.0011
     11 C          -0.6611    1.6688   26.9177 C.ar    1  UNL1        0.0140
     12 C           0.3807    1.1777   25.9566 C.ar    1  UNL1        0.0011
     13 C          -0.7166    1.1155   28.3108 C.2     1  UNL1        0.0729
     14 O          -1.5504   -0.0966   28.6036 O.co2   1  UNL1       -0.5446
     15 O           0.0616    1.7742   29.4110 O.co2   1  UNL1       -0.5446
     16 N           5.2137   -0.0981   23.6532 N.am    1  UNL1       -0.2656
     17 C           5.3252   -1.2256   24.6363 C.2     1  UNL1        0.3082
     18 O           4.0896   -1.9296   25.1133 O.2     1  UNL1       -0.2521
     19 N           6.6723   -1.6491   25.1422 N.am    1  UNL1       -0.2681
     20 H           6.0247    0.3639   23.3401 H       1  UNL1        0.1565
     21 H           7.4833   -1.1871   24.8291 H       1  UNL1        0.1564
     22 C           6.7838   -2.7766   26.1253 C.ar    1  UNL1        0.0518
     23 C           6.8122   -2.4883   27.5971 C.ar    1  UNL1        0.0178
     24 C           6.9236   -3.6158   28.5801 C.ar    1  UNL1        0.0385
     25 C           7.0067   -5.0315   28.0913 C.ar    1  UNL1        0.1469
     26 C           6.9783   -5.3198   26.6196 C.ar    1  UNL1        0.0385
     27 C           6.8669   -4.1923   25.6366 C.ar    1  UNL1        0.0178
     28 O           7.1181   -6.1590   29.0744 O.3     1  UNL1       -0.4045
     29 C           7.9445   -5.9932   30.3153 C.3     1  UNL1        0.5753
     30 F           8.7707   -5.8274   31.5562 F       1  UNL1       -0.1328
     31 F           6.6991   -6.0357   31.1502 F       1  UNL1       -0.1328
     32 F           9.1899   -5.9507   29.4804 F       1  UNL1       -0.1328
     33 O           4.6030   -0.2333   20.7191 O.3     1  UNL1       -0.4526
     34 C           4.8986   -1.9876   18.8257 C.ar    1  UNL1        0.0117
     35 C           4.8778   -3.4137   18.3613 C.ar    1  UNL1       -0.0013
     36 C           4.5405   -4.5117   19.3260 C.ar    1  UNL1       -0.0001
     37 C           4.2241   -4.1836   20.7550 C.ar    1  UNL1        0.0031
     38 C           4.2449   -2.7575   21.2194 C.ar    1  UNL1        0.0372
     39 C           4.5822   -1.6595   20.2547 C.ar    1  UNL1        0.1413
     40 C           3.7791   -0.7172   17.5478 C.3     1  UNL1        0.0045
     41 C           5.2359   -0.8895   17.8610 C.3     1  UNL1        0.0218
     42 C           6.6927   -1.0618   18.1742 C.3     1  UNL1        0.0045
     43 C           5.5731    0.2085   16.8963 C.3     1  UNL1        0.0045
@<TRIPOS>UNITY_ATOM_ATTR
14 1
charge -1
@<TRIPOS>BOND
     1    40    41    1
     2    41    42    1
     3    41    43    1
     4    41    34    1
     5    34    35   ar
     6    35    36   ar
     7    36    37   ar
     8    37    38   ar
     9    38    39   ar
    10    39    33    1
    11    33     1    1
    12     1     2   ar
    13     2     3   ar
    14     3     4   ar
    15     4     7    1
    16     7     8   ar
    17     8     9   ar
    18     9    10   ar
    19    10    11   ar
    20    11    13    1
    21    13    14   ar
    22    13    15   ar
    23    11    12   ar
    24     4     5   ar
    25     5     6   ar
    26     6    16    1
    27    16    17   am
    28    17    18    2
    29    17    19   am
    30    19    22    1
    31    22    23   ar
    32    23    24   ar
    33    24    25   ar
    34    25    28    1
    35    28    29    1
    36    29    30    1
    37    29    31    1
    38    29    32    1
    39    25    26   ar
    40    26    27   ar
    41    39    34   ar
    42     6     1   ar
    43    27    22   ar
    44    12     7   ar
    45    16    20    1
    46    19    21    1
@<TRIPOS>MOLECULE
*****
 43 46 0 0 0
SMALL
GASTEIGER

@<TRIPOS>ATOM
      1 C           0.3847    3.0286   26.1260 C.ar    1  UNL1        0.1586
      2 C          -0.8596    3.1151   26.9593 C.ar    1  UNL1        0.0388
      3 C          -2.1916    3.3156   26.2996 C.ar    1  UNL1        0.0032
      4 C          -2.2795    3.4297   24.8065 C.ar    1  UNL1        0.0014
      5 C          -1.0353    3.3432   23.9732 C.ar    1  UNL1        0.0178
      6 C           0.2969    3.1426   24.6330 C.ar    1  UNL1        0.0865
      7 C          -3.6115    3.6303   24.1467 C.ar    1  UNL1        0.0001
      8 C          -4.8197    3.9476   24.9772 C.ar    1  UNL1        0.0000
      9 C          -6.1517    4.1482   24.3175 C.ar    1  UNL1        0.0000
     10 C          -6.2757    4.0314   22.8272 C.ar    1  UNL1        0.0011
     11 C          -5.0676    3.7141   21.9966 C.ar    1  UNL1        0.0140
     12 C          -3.7355    3.5136   22.6564 C.ar    1  UNL1        0.0011
     13 C          -5.1916    3.5974   20.5063 C.2     1  UNL1        0.0729
     14 O          -3.9651    3.4045   19.6645 O.co2   1  UNL1       -0.5446
     15 O          -6.5420    3.6736   19.8578 O.co2   1  UNL1       -0.5446
     16 N           1.5411    3.0561   23.7997 N.am    1  UNL1       -0.2656
     17 C           1.7581    1.8788   22.8959 C.2     1  UNL1        0.3082
     18 O           0.7310    0.7880   22.8254 O.2     1  UNL1       -0.2521
     19 N           3.0024    1.7923   22.0626 N.am    1  UNL1       -0.2681
     20 H           2.2153    3.7721   23.8459 H       1  UNL1        0.1565
     21 H           3.6766    2.5083   22.1088 H       1  UNL1        0.1564
     22 C           3.2195    0.6150   21.1588 C.ar    1  UNL1        0.0518
     23 C           3.5394   -0.7294   21.7422 C.ar    1  UNL1        0.0178
     24 C           3.7565   -1.9067   20.8384 C.ar    1  UNL1        0.0385
     25 C           3.6535   -1.7396   19.3512 C.ar    1  UNL1        0.1469
     26 C           3.3336   -0.3953   18.7679 C.ar    1  UNL1        0.0385
     27 C           3.1165    0.7820   19.6717 C.ar    1  UNL1        0.0178
     28 O           3.8706   -2.9170   18.4474 O.3     1  UNL1       -0.4045
     29 C           3.9258   -4.3022   19.0204 C.3     1  UNL1        0.5753
     30 F           3.9809   -5.6873   19.5933 F       1  UNL1       -0.1328
     31 F           2.4347   -4.4115   18.8995 F       1  UNL1       -0.1328
     32 F           5.4169   -4.1928   19.1413 F       1  UNL1       -0.1328
     33 O           1.7168    2.8280   26.7858 O.3     1  UNL1       -0.4526
     34 C           2.0557    0.7012   28.2391 C.ar    1  UNL1        0.0117
     35 C           2.6088   -0.6830   28.4067 C.ar    1  UNL1       -0.0013
     36 C           3.3760   -1.3246   27.2888 C.ar    1  UNL1       -0.0001
     37 C           3.5902   -0.5820   26.0033 C.ar    1  UNL1        0.0031
     38 C           3.0371    0.8021   25.8356 C.ar    1  UNL1        0.0372
     39 C           2.2699    1.4437   26.9535 C.ar    1  UNL1        0.1413
     40 C           2.4983    2.1502   29.7239 C.3     1  UNL1        0.0045
     41 C           1.2885    1.3428   29.3570 C.3     1  UNL1        0.0218
     42 C           0.0787    0.5354   28.9901 C.3     1  UNL1        0.0045
     43 C           0.5213    1.9844   30.4749 C.3     1  UNL1        0.0045
@<TRIPOS>UNITY_ATOM_ATTR
14 1
charge -1
@<TRIPOS>BOND
     1    40    41    1
     2    41    42    1
     3    41    43    1
     4    41    34    1
     5    34    35   ar
     6    35    36   ar
     7    36    37   ar
     8    37    38   ar
     9    38    39   ar
    10    39    33    1
    11    33     1    1
    12     1     2   ar
    13     2     3   ar
    14     3     4   ar
    15     4     7    1
    16     7     8   ar
    17     8     9   ar
    18     9    10   ar
    19    10    11   ar
    20    11    13    1
    21    13    14   ar
    22    13    15   ar
    23    11    12   ar
    24     4     5   ar
    25     5     6   ar
    26     6    16    1
    27    16    17   am
    28    17    18    2
    29    17    19   am
    30    19    22    1
    31    22    23   ar
    32    23    24   ar
    33    24    25   ar
    34    25    28    1
    35    28    29    1
    36    29    30    1
    37    29    31    1
    38    29    32    1
    39    25    26   ar
    40    26    27   ar
    41    39    34   ar
    42     6     1   ar
    43    27    22   ar
    44    12     7   ar
    45    16    20    1
    46    19    21    1
@<TRIPOS>MOLECULE
*****
 43 46 0 0 0
SMALL
GASTEIGER

@<TRIPOS>ATOM
      1 C          -0.7750    3.2410   24.7032 C.ar    1  UNL1        0.1586
      2 C          -2.1207    3.3509   25.3568 C.ar    1  UNL1        0.0388
      3 C          -3.3420    3.5978   24.5218 C.ar    1  UNL1        0.0032
      4 C          -3.2178    3.7349   23.0333 C.ar    1  UNL1        0.0014
      5 C          -1.8722    3.6250   22.3797 C.ar    1  UNL1        0.0178
      6 C          -0.6507    3.3781   23.2147 C.ar    1  UNL1        0.0865
      7 C          -4.4392    3.9818   22.1983 C.ar    1  UNL1        0.0001
      8 C          -5.7556    4.2639   22.8599 C.ar    1  UNL1        0.0000
      9 C          -6.9770    4.5108   22.0250 C.ar    1  UNL1        0.0000
     10 C          -6.8821    4.4758   20.5284 C.ar    1  UNL1        0.0011
     11 C          -5.5658    4.1937   19.8668 C.ar    1  UNL1        0.0140
     12 C          -4.3443    3.9468   20.7017 C.ar    1  UNL1        0.0011
     13 C          -5.4709    4.1587   18.3702 C.2     1  UNL1        0.0729
     14 O          -6.6127    4.6564   17.5344 O.co2   1  UNL1       -0.5446
     15 O          -4.2341    3.6259   17.7094 O.co2   1  UNL1       -0.5446
     16 N           0.6949    3.2682   22.5611 N.am    1  UNL1       -0.2656
     17 C           1.1000    1.9900   21.8887 C.2     1  UNL1        0.3082
     18 O           0.1595    0.8217   21.8699 O.2     1  UNL1       -0.2521
     19 N           2.4457    1.8802   21.2351 N.am    1  UNL1       -0.2681
     20 H           1.3122    4.0350   22.5734 H       1  UNL1        0.1565
     21 H           3.0630    2.6470   21.2474 H       1  UNL1        0.1564
     22 C           2.8508    0.6020   20.5627 C.ar    1  UNL1        0.0518
     23 C           3.1380   -0.6195   21.3847 C.ar    1  UNL1        0.0178
     24 C           3.5431   -1.8977   20.7123 C.ar    1  UNL1        0.0385
     25 C           3.6610   -1.9544   19.2180 C.ar    1  UNL1        0.1469
     26 C           3.3739   -0.7330   18.3961 C.ar    1  UNL1        0.0385
     27 C           2.9688    0.5452   19.0685 C.ar    1  UNL1        0.0178
     28 O           4.0662   -3.2326   18.5456 O.3     1  UNL1       -0.4045
     29 C           3.8087   -4.5483   19.2185 C.3     1  UNL1        0.5753
     30 F           3.5513   -5.8639   19.8914 F       1  UNL1       -0.1328
     31 F           5.2180   -4.5614   19.7321 F       1  UNL1       -0.1328
     32 F           2.3995   -4.5353   18.7050 F       1  UNL1       -0.1328
     33 O           0.4464    2.9940   25.5382 O.3     1  UNL1       -0.4526
     34 C           0.6978    3.1477   28.1195 C.ar    1  UNL1        0.0117
     35 C           0.5646    2.5237   29.4770 C.ar    1  UNL1       -0.0013
     36 C           0.0470    1.1223   29.6109 C.ar    1  UNL1       -0.0001
     37 C          -0.3375    0.3447   28.3871 C.ar    1  UNL1        0.0031
     38 C          -0.2044    0.9686   27.0296 C.ar    1  UNL1        0.0372
     39 C           0.3133    2.3701   26.8958 C.ar    1  UNL1        0.1413
     40 C          -0.1826    5.0777   28.1134 C.3     1  UNL1        0.0045
     41 C           1.2154    4.5491   27.9857 C.3     1  UNL1        0.0218
     42 C           2.6134    4.0206   27.8580 C.3     1  UNL1        0.0045
     43 C           1.7331    5.9506   27.8519 C.3     1  UNL1        0.0045
@<TRIPOS>UNITY_ATOM_ATTR
14 1
charge -1
@<TRIPOS>BOND
     1    40    41    1
     2    41    42    1
     3    41    43    1
     4    41    34    1
     5    34    35   ar
     6    35    36   ar
     7    36    37   ar
     8    37    38   ar
     9    38    39   ar
    10    39    33    1
    11    33     1    1
    12     1     2   ar
    13     2     3   ar
    14     3     4   ar
    15     4     7    1
    16     7     8   ar
    17     8     9   ar
    18     9    10   ar
    19    10    11   ar
    20    11    13    1
    21    13    14   ar
    22    13    15   ar
    23    11    12   ar
    24     4     5   ar
    25     5     6   ar
    26     6    16    1
    27    16    17   am
    28    17    18    2
    29    17    19   am
    30    19    22    1
    31    22    23   ar
    32    23    24   ar
    33    24    25   ar
    34    25    28    1
    35    28    29    1
    36    29    30    1
    37    29    31    1
    38    29    32    1
    39    25    26   ar
    40    26    27   ar
    41    39    34   ar
    42     6     1   ar
    43    27    22   ar
    44    12     7   ar
    45    16    20    1
    46    19    21    1
@<TRIPOS>MOLECULE
*****
 43 46 0 0 0
SMALL
GASTEIGER

@<TRIPOS>ATOM
      1 C           5.8574   -1.6277   26.2967 C.ar    1  UNL1        0.1586
      2 C           6.7790   -1.6601   25.1136 C.ar    1  UNL1        0.0388
      3 C           6.2149   -1.6963   23.7242 C.ar    1  UNL1        0.0032
      4 C           4.7292   -1.7001   23.5178 C.ar    1  UNL1        0.0014
      5 C           3.8075   -1.6676   24.7008 C.ar    1  UNL1        0.0178
      6 C           4.3716   -1.6314   26.0903 C.ar    1  UNL1        0.0865
      7 C           4.1651   -1.7363   22.1284 C.ar    1  UNL1        0.0001
      8 C           2.9193   -0.9659   21.8044 C.ar    1  UNL1        0.0000
      9 C           2.3552   -1.0021   20.4150 C.ar    1  UNL1        0.0000
     10 C           3.0368   -1.8086   19.3496 C.ar    1  UNL1        0.0011
     11 C           4.2824   -2.5789   19.6736 C.ar    1  UNL1        0.0140
     12 C           4.8466   -2.5427   21.0630 C.ar    1  UNL1        0.0011
     13 C           4.9639   -3.3854   18.6082 C.2     1  UNL1        0.0729
     14 O           5.8661   -2.7100   17.6181 O.co2   1  UNL1       -0.5446
     15 O           4.7434   -4.8671   18.5328 O.co2   1  UNL1       -0.5446
     16 N           3.4500   -1.5989   27.2733 N.am    1  UNL1       -0.2656
     17 C           3.1437   -0.2957   27.9499 C.2     1  UNL1        0.3082
     18 O           3.7590    0.9751   27.4435 O.2     1  UNL1       -0.2521
     19 N           2.2220   -0.2633   29.1329 N.am    1  UNL1       -0.2681
     20 H           3.0461   -2.4330   27.6057 H       1  UNL1        0.1565
     21 H           1.8182   -1.0973   29.4653 H       1  UNL1        0.1564
     22 C           1.9157    1.0400   29.8095 C.ar    1  UNL1        0.0518
     23 C           0.9125    1.9794   29.2085 C.ar    1  UNL1        0.0178
     24 C           0.6062    3.2827   29.8851 C.ar    1  UNL1        0.0385
     25 C           1.3031    3.6464   31.1627 C.ar    1  UNL1        0.1469
     26 C           2.3062    2.7070   31.7636 C.ar    1  UNL1        0.0385
     27 C           2.6126    1.4037   31.0870 C.ar    1  UNL1        0.0178
     28 O           0.9968    4.9497   31.8393 O.3     1  UNL1       -0.4045
     29 C          -0.2946    5.1236   32.5823 C.3     1  UNL1        0.5753
     30 F          -1.5859    5.2975   33.3254 F       1  UNL1       -0.1328
     31 F           0.2916    4.4145   33.7670 F       1  UNL1       -0.1328
     32 F          -0.8808    5.8327   31.3977 F       1  UNL1       -0.1328
     33 O           6.4215   -1.5915   27.6860 O.3     1  UNL1       -0.4526
     34 C           6.7085   -2.7966   29.9698 C.ar    1  UNL1        0.0117
     35 C           6.8273   -4.0634   30.7642 C.ar    1  UNL1       -0.0013
     36 C           6.7780   -5.3918   30.0693 C.ar    1  UNL1       -0.0001
     37 C           6.6098   -5.4535   28.5801 C.ar    1  UNL1        0.0031
     38 C           6.4910   -4.1867   27.7857 C.ar    1  UNL1        0.0372
     39 C           6.5403   -2.8583   28.4805 C.ar    1  UNL1        0.1413
     40 C           8.2487   -1.4385   30.5020 C.3     1  UNL1        0.0045
     41 C           6.7579   -1.4681   30.6646 C.3     1  UNL1        0.0218
     42 C           5.2670   -1.4978   30.8272 C.3     1  UNL1        0.0045
     43 C           6.8072   -0.1397   31.3594 C.3     1  UNL1        0.0045
@<TRIPOS>UNITY_ATOM_ATTR
14 1
charge -1
@<TRIPOS>BOND
     1    40    41    1
     2    41    42    1
     3    41    43    1
     4    41    34    1
     5    34    35   ar
     6    35    36   ar
     7    36    37   ar
     8    37    38   ar
     9    38    39   ar
    10    39    33    1
    11    33     1    1
    12     1     2   ar
    13     2     3   ar
    14     3     4   ar
    15     4     7    1
    16     7     8   ar
    17     8     9   ar
    18     9    10   ar
    19    10    11   ar
    20    11    13    1
    21    13    14   ar
    22    13    15   ar
    23    11    12   ar
    24     4     5   ar
    25     5     6   ar
    26     6    16    1
    27    16    17   am
    28    17    18    2
    29    17    19   am
    30    19    22    1
    31    22    23   ar
    32    23    24   ar
    33    24    25   ar
    34    25    28    1
    35    28    29    1
    36    29    30    1
    37    29    31    1
    38    29    32    1
    39    25    26   ar
    40    26    27   ar
    41    39    34   ar
    42     6     1   ar
    43    27    22   ar
    44    12     7   ar
    45    16    20    1
    46    19    21    1
@<TRIPOS>MOLECULE
*****
 43 46 0 0 0
SMALL
GASTEIGER

@<TRIPOS>ATOM
      1 C           3.1138    0.7380   24.7624 C.ar    1  UNL1        0.1586
      2 C           3.8814   -0.5400   24.9290 C.ar    1  UNL1        0.0388
      3 C           4.1993   -1.3854   23.7315 C.ar    1  UNL1        0.0032
      4 C           3.7496   -0.9530   22.3673 C.ar    1  UNL1        0.0014
      5 C           2.9821    0.3249   22.2008 C.ar    1  UNL1        0.0178
      6 C           2.6642    1.1705   23.3983 C.ar    1  UNL1        0.0865
      7 C           4.0675   -1.7984   21.1698 C.ar    1  UNL1        0.0001
      8 C           4.0568   -3.2941   21.2835 C.ar    1  UNL1        0.0000
      9 C           4.3747   -4.1396   20.0860 C.ar    1  UNL1        0.0000
     10 C           4.7032   -3.4895   18.7747 C.ar    1  UNL1        0.0011
     11 C           4.7139   -1.9938   18.6610 C.ar    1  UNL1        0.0140
     12 C           4.3960   -1.1483   19.8586 C.ar    1  UNL1        0.0011
     13 C           5.0425   -1.3437   17.3498 C.2     1  UNL1        0.0729
     14 O           6.4596   -0.9666   17.0339 O.co2   1  UNL1       -0.5446
     15 O           3.9540   -1.0706   16.3545 O.co2   1  UNL1       -0.5446
     16 N           1.8967    2.4484   23.2317 N.am    1  UNL1       -0.2656
     17 C           0.4863    2.4152   22.7219 C.2     1  UNL1        0.3082
     18 O          -0.1565    1.1041   22.3787 O.2     1  UNL1       -0.2521
     19 N          -0.2812    3.6932   22.5554 N.am    1  UNL1       -0.2681
     20 H           2.3185    3.3089   23.4570 H       1  UNL1        0.1565
     21 H           0.1407    4.5537   22.7806 H       1  UNL1        0.1564
     22 C          -1.6915    3.6601   22.0456 C.ar    1  UNL1        0.0518
     23 C          -1.9544    3.5275   20.5747 C.ar    1  UNL1        0.0178
     24 C          -3.3647    3.4944   20.0649 C.ar    1  UNL1        0.0385
     25 C          -4.5122    3.5937   21.0260 C.ar    1  UNL1        0.1469
     26 C          -4.2492    3.7262   22.4967 C.ar    1  UNL1        0.0385
     27 C          -2.8389    3.7594   23.0065 C.ar    1  UNL1        0.0178
     28 O          -5.9225    3.5606   20.5162 O.3     1  UNL1       -0.4045
     29 C          -6.2305    4.0444   19.1301 C.3     1  UNL1        0.5753
     30 F          -6.5385    4.5282   17.7441 F       1  UNL1       -0.1328
     31 F          -5.9577    5.4547   19.5618 F       1  UNL1       -0.1328
     32 F          -6.5033    2.6340   18.6984 F       1  UNL1       -0.1328
     33 O           2.7960    1.5835   25.9600 O.3     1  UNL1       -0.4526
     34 C           2.0438    0.6239   28.2542 C.ar    1  UNL1        0.0117
     35 C           0.9500    0.2118   29.1943 C.ar    1  UNL1       -0.0013
     36 C          -0.4853    0.3470   28.7802 C.ar    1  UNL1       -0.0001
     37 C          -0.8269    0.8943   27.4261 C.ar    1  UNL1        0.0031
     38 C           0.2668    1.3065   26.4860 C.ar    1  UNL1        0.0372
     39 C           1.7022    1.1713   26.9001 C.ar    1  UNL1        0.1413
     40 C           3.5012    1.9354   29.0642 C.3     1  UNL1        0.0045
     41 C           3.4792    0.4887   28.6683 C.3     1  UNL1        0.0218
     42 C           3.4571   -0.9579   28.2723 C.3     1  UNL1        0.0045
     43 C           4.9145    0.3535   29.0823 C.3     1  UNL1        0.0045
@<TRIPOS>UNITY_ATOM_ATTR
14 1
charge -1
@<TRIPOS>BOND
     1    40    41    1
     2    41    42    1
     3    41    43    1
     4    41    34    1
     5    34    35   ar
     6    35    36   ar
     7    36    37   ar
     8    37    38   ar
     9    38    39   ar
    10    39    33    1
    11    33     1    1
    12     1     2   ar
    13     2     3   ar
    14     3     4   ar
    15     4     7    1
    16     7     8   ar
    17     8     9   ar
    18     9    10   ar
    19    10    11   ar
    20    11    13    1
    21    13    14   ar
    22    13    15   ar
    23    11    12   ar
    24     4     5   ar
    25     5     6   ar
    26     6    16    1
    27    16    17   am
    28    17    18    2
    29    17    19   am
    30    19    22    1
    31    22    23   ar
    32    23    24   ar
    33    24    25   ar
    34    25    28    1
    35    28    29    1
    36    29    30    1
    37    29    31    1
    38    29    32    1
    39    25    26   ar
    40    26    27   ar
    41    39    34   ar
    42     6     1   ar
    43    27    22   ar
    44    12     7   ar
    45    16    20    1
    46    19    21    1
@<TRIPOS>MOLECULE
*****
 43 46 0 0 0
SMALL
GASTEIGER

@<TRIPOS>ATOM
      1 C          -0.3154    3.5756   26.4864 C.ar    1  UNL1        0.1586
      2 C          -1.6691    3.8187   27.0851 C.ar    1  UNL1        0.0388
      3 C          -2.8767    3.9038   26.1994 C.ar    1  UNL1        0.0032
      4 C          -2.7306    3.7459   24.7149 C.ar    1  UNL1        0.0014
      5 C          -1.3770    3.5029   24.1161 C.ar    1  UNL1        0.0178
      6 C          -0.1693    3.4178   25.0019 C.ar    1  UNL1        0.0865
      7 C          -3.9381    3.8310   23.8292 C.ar    1  UNL1        0.0001
      8 C          -3.8333    3.4576   22.3802 C.ar    1  UNL1        0.0000
      9 C          -5.0408    3.5427   21.4944 C.ar    1  UNL1        0.0000
     10 C          -6.3533    4.0012   22.0577 C.ar    1  UNL1        0.0011
     11 C          -6.4582    4.3745   23.5066 C.ar    1  UNL1        0.0140
     12 C          -5.2506    4.2894   24.3925 C.ar    1  UNL1        0.0011
     13 C          -7.7707    4.8330   24.0699 C.2     1  UNL1        0.0729
     14 O          -7.8364    6.0829   24.8966 O.co2   1  UNL1       -0.5446
     15 O          -9.0173    4.0416   23.8065 O.co2   1  UNL1       -0.5446
     16 N           1.1843    3.1748   24.4031 N.am    1  UNL1       -0.2656
     17 C           1.5411    1.8137   23.8833 C.2     1  UNL1        0.3082
     18 O           0.5444    0.6956   23.9623 O.2     1  UNL1       -0.2521
     19 N           2.8949    1.5707   23.2845 N.am    1  UNL1       -0.2681
     20 H           1.8386    3.9086   24.3512 H       1  UNL1        0.1565
     21 H           3.5491    2.3046   23.2326 H       1  UNL1        0.1564
     22 C           3.2517    0.2097   22.7647 C.ar    1  UNL1        0.0518
     23 C           3.9626   -0.7692   23.6516 C.ar    1  UNL1        0.0178
     24 C           4.3195   -2.1303   23.1318 C.ar    1  UNL1        0.0385
     25 C           3.9654   -2.5125   21.7251 C.ar    1  UNL1        0.1469
     26 C           3.2545   -1.5336   20.8383 C.ar    1  UNL1        0.0385
     27 C           2.8977   -0.1725   21.3581 C.ar    1  UNL1        0.0178
     28 O           4.3222   -3.8735   21.2054 O.3     1  UNL1       -0.4045
     29 C           4.6358   -4.0623   19.7506 C.3     1  UNL1        0.5753
     30 F           4.9494   -4.2511   18.2960 F       1  UNL1       -0.1328
     31 F           5.9510   -3.3675   19.9440 F       1  UNL1       -0.1328
     32 F           3.3206   -4.7571   19.5573 F       1  UNL1       -0.1328
     33 O           0.8921    3.4905   27.3721 O.3     1  UNL1       -0.4526
     34 C           0.7718    2.4327   29.7420 C.ar    1  UNL1        0.0117
     35 C           0.6251    2.5857   31.2269 C.ar    1  UNL1       -0.0013
     36 C           0.4518    3.9495   31.8269 C.ar    1  UNL1       -0.0001
     37 C           0.4253    5.1604   30.9419 C.ar    1  UNL1        0.0031
     38 C           0.5721    5.0073   29.4570 C.ar    1  UNL1        0.0372
     39 C           0.7454    3.6435   28.8571 C.ar    1  UNL1        0.1413
     40 C          -0.5441    0.8911   29.1162 C.3     1  UNL1        0.0045
     41 C           0.9451    1.0689   29.1421 C.3     1  UNL1        0.0218
     42 C           2.4343    1.2467   29.1679 C.3     1  UNL1        0.0045
     43 C           1.1183   -0.2950   28.5421 C.3     1  UNL1        0.0045
@<TRIPOS>UNITY_ATOM_ATTR
14 1
charge -1
@<TRIPOS>BOND
     1    40    41    1
     2    41    42    1
     3    41    43    1
     4    41    34    1
     5    34    35   ar
     6    35    36   ar
     7    36    37   ar
     8    37    38   ar
     9    38    39   ar
    10    39    33    1
    11    33     1    1
    12     1     2   ar
    13     2     3   ar
    14     3     4   ar
    15     4     7    1
    16     7     8   ar
    17     8     9   ar
    18     9    10   ar
    19    10    11   ar
    20    11    13    1
    21    13    14   ar
    22    13    15   ar
    23    11    12   ar
    24     4     5   ar
    25     5     6   ar
    26     6    16    1
    27    16    17   am
    28    17    18    2
    29    17    19   am
    30    19    22    1
    31    22    23   ar
    32    23    24   ar
    33    24    25   ar
    34    25    28    1
    35    28    29    1
    36    29    30    1
    37    29    31    1
    38    29    32    1
    39    25    26   ar
    40    26    27   ar
    41    39    34   ar
    42     6     1   ar
    43    27    22   ar
    44    12     7   ar
    45    16    20    1
    46    19    21    1
@<TRIPOS>MOLECULE
*****
 43 46 0 0 0
SMALL
GASTEIGER

@<TRIPOS>ATOM
      1 C           0.3987    2.7522   21.6026 C.ar    1  UNL1        0.1586
      2 C          -0.0401    2.1836   20.2857 C.ar    1  UNL1        0.0388
      3 C           0.7703    1.1077   19.6259 C.ar    1  UNL1        0.0032
      4 C           2.0196    0.6002   20.2830 C.ar    1  UNL1        0.0014
      5 C           2.4584    1.1687   21.5998 C.ar    1  UNL1        0.0178
      6 C           1.6479    2.2447   22.2597 C.ar    1  UNL1        0.0865
      7 C           2.8301   -0.4758   19.6232 C.ar    1  UNL1        0.0001
      8 C           3.3492   -0.2761   18.2301 C.ar    1  UNL1        0.0000
      9 C           4.1597   -1.3521   17.5703 C.ar    1  UNL1        0.0000
     10 C           4.4510   -2.6278   18.3036 C.ar    1  UNL1        0.0011
     11 C           3.9319   -2.8276   19.6966 C.ar    1  UNL1        0.0140
     12 C           3.1214   -1.7515   20.3564 C.ar    1  UNL1        0.0011
     13 C           4.2232   -4.1033   20.4298 C.2     1  UNL1        0.0729
     14 O           5.1979   -4.1072   21.5701 O.co2   1  UNL1       -0.5446
     15 O           3.5400   -5.3751   20.0228 O.co2   1  UNL1       -0.5446
     16 N           2.0867    2.8132   23.5766 N.am    1  UNL1       -0.2656
     17 C           2.0791    1.9525   24.8050 C.2     1  UNL1        0.3082
     18 O           1.6326    0.5232   24.7166 O.2     1  UNL1       -0.2521
     19 N           2.5180    2.5211   26.1219 N.am    1  UNL1       -0.2681
     20 H           2.3798    3.7513   23.6346 H       1  UNL1        0.1565
     21 H           2.8110    3.4591   26.1800 H       1  UNL1        0.1564
     22 C           2.5103    1.6603   27.3504 C.ar    1  UNL1        0.0518
     23 C           3.7775    1.0061   27.8157 C.ar    1  UNL1        0.0178
     24 C           3.7698    0.1454   29.0441 C.ar    1  UNL1        0.0385
     25 C           2.4950   -0.0612   29.8072 C.ar    1  UNL1        0.1469
     26 C           1.2280    0.5930   29.3419 C.ar    1  UNL1        0.0385
     27 C           1.2356    1.4537   28.1135 C.ar    1  UNL1        0.0178
     28 O           2.4874   -0.9219   31.0357 O.3     1  UNL1       -0.4045
     29 C           3.4474   -0.6418   32.1537 C.3     1  UNL1        0.5753
     30 F           4.4073   -0.3616   33.2717 F       1  UNL1       -0.1328
     31 F           2.6670    0.5870   32.5158 F       1  UNL1       -0.1328
     32 F           4.2277   -1.8705   31.7916 F       1  UNL1       -0.1328
     33 O          -0.4118    3.8282   22.2624 O.3     1  UNL1       -0.4526
     34 C          -2.4257    3.6871   23.8978 C.ar    1  UNL1        0.0117
     35 C          -3.8918    3.4808   24.1382 C.ar    1  UNL1       -0.0013
     36 C          -4.8103    3.2094   22.9838 C.ar    1  UNL1       -0.0001
     37 C          -4.2626    3.1441   21.5889 C.ar    1  UNL1        0.0031
     38 C          -2.7965    3.3504   21.3485 C.ar    1  UNL1        0.0372
     39 C          -1.8780    3.6219   22.5029 C.ar    1  UNL1        0.1413
     40 C          -1.6820    5.4338   24.8443 C.3     1  UNL1        0.0045
     41 C          -1.5072    3.9586   25.0522 C.3     1  UNL1        0.0218
     42 C          -1.3325    2.4834   25.2601 C.3     1  UNL1        0.0045
     43 C          -0.5888    4.2301   26.2067 C.3     1  UNL1        0.0045
@<TRIPOS>UNITY_ATOM_ATTR
14 1
charge -1
@<TRIPOS>BOND
     1    40    41    1
     2    41    42    1
     3    41    43    1
     4    41    34    1
     5    34    35   ar
     6    35    36   ar
     7    36    37   ar
     8    37    38   ar
     9    38    39   ar
    10    39    33    1
    11    33     1    1
    12     1     2   ar
    13     2     3   ar
    14     3     4   ar
    15     4     7    1
    16     7     8   ar
    17     8     9   ar
    18     9    10   ar
    19    10    11   ar
    20    11    13    1
    21    13    14   ar
    22    13    15   ar
    23    11    12   ar
    24     4     5   ar
    25     5     6   ar
    26     6    16    1
    27    16    17   am
    28    17    18    2
    29    17    19   am
    30    19    22    1
    31    22    23   ar
    32    23    24   ar
    33    24    25   ar
    34    25    28    1
    35    28    29    1
    36    29    30    1
    37    29    31    1
    38    29    32    1
    39    25    26   ar
    40    26    27   ar
    41    39    34   ar
    42     6     1   ar
    43    27    22   ar
    44    12     7   ar
    45    16    20    1
    46    19    21    1
