@<TRIPOS>MOLECULE
*****
 35 38 0 0 0
SMALL
GASTEIGER

@<TRIPOS>ATOM
      1 C         -10.8786  -18.6115   20.2777 C.3     1  UNL1        0.1697
      2 O         -11.9106  -19.2719   21.1430 O.3     1  UNL1       -0.3793
      3 H         -12.7144  -18.7293   21.1590 H       1  UNL1        0.2106
      4 C         -11.1884  -17.3082   19.6028 C.3     1  UNL1        0.2359
      5 O         -10.9028  -16.0137   20.3047 O.3     1  UNL1       -0.4697
      6 C          -7.7351  -15.9992   25.4003 C.ar    1  UNL1        0.0622
      7 N          -6.2781  -15.6435   25.3766 N.ar    1  UNL1       -0.2283
      8 C          -5.6130  -15.2914   24.0791 C.ar    1  UNL1        0.1985
      9 N          -6.4049  -15.2950   22.8052 N.ar    1  UNL1       -0.2239
     10 C          -7.8619  -15.6507   22.8289 C.ar    1  UNL1        0.0874
     11 C          -8.6538  -15.6544   21.5549 C.ar    1  UNL1        0.0592
     12 C         -10.1108  -16.0101   21.5786 C.ar    1  UNL1        0.1738
     13 C         -10.7759  -16.3622   22.8762 C.ar    1  UNL1        0.1725
     14 C          -9.9840  -16.3586   24.1501 C.ar    1  UNL1        0.0427
     15 C          -8.5269  -16.0028   24.1264 C.ar    1  UNL1        0.0345
     16 C          -8.5413  -15.3156   27.7736 C.3     1  UNL1        0.0067
     17 C          -8.4001  -16.3513   26.6979 C.3     1  UNL1        0.0459
     18 O         -12.2330  -16.7179   22.8998 O.3     1  UNL1       -0.4684
     19 C         -12.7134  -17.8563   23.7503 C.3     1  UNL1        0.2526
     20 C          -9.5368  -19.2543   20.0872 C.3     1  UNL1        0.1020
     21 N          -8.5624  -19.3081   21.2264 N.3     1  UNL1       -0.2971
     22 H          -9.0101  -19.8412   21.9719 H       1  UNL1        0.1233
     23 C          -7.2024  -19.9070   21.0224 C.3     1  UNL1        0.0476
     24 C          -7.1793  -20.3432   22.4574 C.3     1  UNL1        0.0162
     25 C          -7.2254  -19.4707   19.5874 C.3     1  UNL1        0.0162
     26 C          -5.8423  -20.5059   20.8184 C.3     1  UNL1        0.0602
     27 C          -4.6336  -19.6196   20.7600 C.2     1  UNL1        0.0599
     28 C          -3.4921  -19.7476   19.7953 C.2     1  UNL1        0.0159
     29 C          -2.5072  -18.6568   20.0951 C.2     1  UNL1        0.0150
     30 C          -1.1941  -18.2904   19.4696 C.2     1  UNL1        0.0009
     31 C          -0.4136  -17.1216   19.9940 C.2     1  UNL1       -0.0041
     32 C          -0.9464  -16.3194   21.1440 C.2     1  UNL1       -0.0198
     33 C          -2.2596  -16.6858   21.7696 C.3     1  UNL1        0.0717
     34 C          -3.0400  -17.8545   21.2452 C.2     1  UNL1        0.0630
     35 N          -4.3542  -18.4495   21.6561 N.2     1  UNL1       -0.2536
@<TRIPOS>BOND
     1    16    17    1
     2    17     6    1
     3     6     7   ar
     4     7     8   ar
     5     8     9   ar
     6     9    10   ar
     7    10    11   ar
     8    11    12   ar
     9    12     5    1
    10     5     4    1
    11     4     1    1
    12     1     2    1
    13     1    20    1
    14    20    21    1
    15    21    23    1
    16    23    24    1
    17    23    25    1
    18    23    26    1
    19    26    27    1
    20    27    28    2
    21    28    29    1
    22    29    30    2
    23    30    31    1
    24    31    32    2
    25    32    33    1
    26    33    34    1
    27    34    35    2
    28    12    13   ar
    29    13    18    1
    30    18    19    1
    31    13    14   ar
    32    14    15   ar
    33    15     6   ar
    34    15    10   ar
    35    35    27    1
    36    34    29    1
    37     2     3    1
    38    21    22    1
@<TRIPOS>MOLECULE
*****
 35 38 0 0 0
SMALL
GASTEIGER

@<TRIPOS>ATOM
      1 C          -5.2620  -19.5544   20.3076 C.3     1  UNL1        0.1697
      2 O          -5.7665  -18.4330   19.4486 O.3     1  UNL1       -0.3793
      3 H          -6.7285  -18.3577   19.5474 H       1  UNL1        0.2106
      4 C          -6.2217  -20.3513   21.1405 C.3     1  UNL1        0.2359
      5 O          -6.8818  -19.7230   22.3319 O.3     1  UNL1       -0.4697
      6 C         -12.5276  -17.7318   21.9308 C.ar    1  UNL1        0.0622
      7 N         -12.8754  -16.6569   20.9441 N.ar    1  UNL1       -0.2283
      8 C         -11.8119  -16.0798   20.0576 C.ar    1  UNL1        0.1985
      9 N         -10.4005  -16.5776   20.1579 N.ar    1  UNL1       -0.2239
     10 C         -10.0526  -17.6525   21.1446 C.ar    1  UNL1        0.0874
     11 C          -8.6411  -18.1503   21.2449 C.ar    1  UNL1        0.0592
     12 C          -8.2933  -19.2252   22.2316 C.ar    1  UNL1        0.1738
     13 C          -9.3569  -19.8023   23.1180 C.ar    1  UNL1        0.1725
     14 C         -10.7683  -19.3045   23.0178 C.ar    1  UNL1        0.0427
     15 C         -11.1162  -18.2296   22.0310 C.ar    1  UNL1        0.0345
     16 C         -13.7662  -17.7905   24.2138 C.3     1  UNL1        0.0067
     17 C         -13.5912  -18.3089   22.8172 C.3     1  UNL1        0.0459
     18 O          -9.0090  -20.8772   24.1047 O.3     1  UNL1       -0.4684
     19 C          -9.9974  -21.2742   25.1609 C.3     1  UNL1        0.2526
     20 C          -3.7977  -19.8788   20.3338 C.3     1  UNL1        0.1020
     21 N          -2.9699  -19.5136   21.5302 N.3     1  UNL1       -0.2971
     22 H          -1.9930  -19.5984   21.2493 H       1  UNL1        0.1233
     23 C          -3.1226  -18.1626   22.1638 C.3     1  UNL1        0.0476
     24 C          -2.5212  -17.5240   20.9471 C.3     1  UNL1        0.0162
     25 C          -3.7240  -18.8013   23.3806 C.3     1  UNL1        0.0162
     26 C          -3.2753  -16.8116   22.7975 C.3     1  UNL1        0.0602
     27 C          -4.5103  -16.4877   23.5848 C.2     1  UNL1        0.0599
     28 C          -4.5562  -16.0997   25.0330 C.2     1  UNL1        0.0159
     29 C          -5.9905  -15.8671   25.4053 C.2     1  UNL1        0.0150
     30 C          -6.6397  -15.4644   26.6962 C.2     1  UNL1        0.0009
     31 C          -8.1296  -15.3061   26.7689 C.2     1  UNL1       -0.0041
     32 C          -8.9701  -15.5504   25.5509 C.2     1  UNL1       -0.0198
     33 C          -8.3209  -15.9531   24.2600 C.3     1  UNL1        0.0717
     34 C          -6.8310  -16.1114   24.1872 C.2     1  UNL1        0.0630
     35 N          -5.9162  -16.4950   23.0621 N.2     1  UNL1       -0.2536
@<TRIPOS>BOND
     1    16    17    1
     2    17     6    1
     3     6     7   ar
     4     7     8   ar
     5     8     9   ar
     6     9    10   ar
     7    10    11   ar
     8    11    12   ar
     9    12     5    1
    10     5     4    1
    11     4     1    1
    12     1     2    1
    13     1    20    1
    14    20    21    1
    15    21    23    1
    16    23    24    1
    17    23    25    1
    18    23    26    1
    19    26    27    1
    20    27    28    2
    21    28    29    1
    22    29    30    2
    23    30    31    1
    24    31    32    2
    25    32    33    1
    26    33    34    1
    27    34    35    2
    28    12    13   ar
    29    13    18    1
    30    18    19    1
    31    13    14   ar
    32    14    15   ar
    33    15     6   ar
    34    15    10   ar
    35    35    27    1
    36    34    29    1
    37     2     3    1
    38    21    22    1
@<TRIPOS>MOLECULE
*****
 35 38 0 0 0
SMALL
GASTEIGER

@<TRIPOS>ATOM
      1 C         -10.4023  -19.8344   23.6172 C.3     1  UNL1        0.1697
      2 O         -11.0160  -19.6683   24.9757 O.3     1  UNL1       -0.3793
      3 H         -10.3142  -19.5608   25.6366 H       1  UNL1        0.2106
      4 C          -8.9106  -19.8155   23.4607 C.3     1  UNL1        0.2359
      5 O          -8.2794  -20.3744   22.2200 O.3     1  UNL1       -0.4697
      6 C          -2.8580  -18.4700   20.4932 C.ar    1  UNL1        0.0622
      7 N          -1.9683  -17.7565   21.4675 N.ar    1  UNL1       -0.2283
      8 C          -2.4339  -17.5191   22.8735 C.ar    1  UNL1        0.1985
      9 N          -3.7892  -17.9952   23.3052 N.ar    1  UNL1       -0.2239
     10 C          -4.6789  -18.7087   22.3309 C.ar    1  UNL1        0.0874
     11 C          -6.0343  -19.1848   22.7626 C.ar    1  UNL1        0.0592
     12 C          -6.9241  -19.8983   21.7883 C.ar    1  UNL1        0.1738
     13 C          -6.4585  -20.1357   20.3823 C.ar    1  UNL1        0.1725
     14 C          -5.1032  -19.6596   19.9506 C.ar    1  UNL1        0.0427
     15 C          -4.2133  -18.9461   20.9249 C.ar    1  UNL1        0.0345
     16 C          -1.6967  -17.6135   18.3327 C.3     1  UNL1        0.0067
     17 C          -2.3925  -18.7074   19.0872 C.3     1  UNL1        0.0459
     18 O          -7.3483  -20.8492   19.4080 O.3     1  UNL1       -0.4684
     19 C          -8.4674  -20.1112   18.7350 C.3     1  UNL1        0.2526
     20 C         -11.2802  -20.0193   22.4150 C.3     1  UNL1        0.1020
     21 N         -11.8306  -18.8228   21.6971 N.3     1  UNL1       -0.2971
     22 H         -12.7763  -18.6768   22.0504 H       1  UNL1        0.1233
     23 C         -11.1250  -17.5024   21.7897 C.3     1  UNL1        0.0476
     24 C         -10.1308  -17.9618   20.7648 C.3     1  UNL1        0.0162
     25 C         -12.1192  -17.0430   22.8146 C.3     1  UNL1        0.0162
     26 C         -10.4194  -16.1820   21.8823 C.3     1  UNL1        0.0602
     27 C          -9.3139  -15.9905   22.8779 C.2     1  UNL1        0.0599
     28 C          -9.4543  -16.0347   24.3707 C.2     1  UNL1        0.0159
     29 C          -8.1011  -15.7928   24.9709 C.2     1  UNL1        0.0150
     30 C          -7.6320  -15.7238   26.3940 C.2     1  UNL1        0.0009
     31 C          -6.1863  -15.4612   26.6953 C.2     1  UNL1       -0.0041
     32 C          -5.2095  -15.2675   25.5735 C.2     1  UNL1       -0.0198
     33 C          -5.6786  -15.3365   24.1503 C.3     1  UNL1        0.0717
     34 C          -7.1243  -15.5991   23.8490 C.2     1  UNL1        0.0630
     35 N          -7.8739  -15.7213   22.5555 N.2     1  UNL1       -0.2536
@<TRIPOS>BOND
     1    16    17    1
     2    17     6    1
     3     6     7   ar
     4     7     8   ar
     5     8     9   ar
     6     9    10   ar
     7    10    11   ar
     8    11    12   ar
     9    12     5    1
    10     5     4    1
    11     4     1    1
    12     1     2    1
    13     1    20    1
    14    20    21    1
    15    21    23    1
    16    23    24    1
    17    23    25    1
    18    23    26    1
    19    26    27    1
    20    27    28    2
    21    28    29    1
    22    29    30    2
    23    30    31    1
    24    31    32    2
    25    32    33    1
    26    33    34    1
    27    34    35    2
    28    12    13   ar
    29    13    18    1
    30    18    19    1
    31    13    14   ar
    32    14    15   ar
    33    15     6   ar
    34    15    10   ar
    35    35    27    1
    36    34    29    1
    37     2     3    1
    38    21    22    1
@<TRIPOS>MOLECULE
*****
 35 38 0 0 0
SMALL
GASTEIGER

@<TRIPOS>ATOM
      1 C         -10.9864  -19.4848   22.7623 C.3     1  UNL1        0.1697
      2 O         -10.5539  -20.3402   23.9160 O.3     1  UNL1       -0.3793
      3 H         -11.0294  -20.0681   24.7164 H       1  UNL1        0.2106
      4 C         -12.0106  -18.4087   22.9691 C.3     1  UNL1        0.2359
      5 O         -11.5859  -16.9714   23.0332 O.3     1  UNL1       -0.4697
      6 C          -6.0329  -15.5606   24.8147 C.ar    1  UNL1        0.0622
      7 N          -5.6894  -15.5666   26.2749 N.ar    1  UNL1       -0.2283
      8 C          -6.7342  -15.9253   27.2896 C.ar    1  UNL1        0.1985
      9 N          -8.1225  -16.2780   26.8443 N.ar    1  UNL1       -0.2239
     10 C          -8.4659  -16.2720   25.3842 C.ar    1  UNL1        0.0874
     11 C          -9.8542  -16.6247   24.9388 C.ar    1  UNL1        0.0592
     12 C         -10.1976  -16.6187   23.4787 C.ar    1  UNL1        0.1738
     13 C          -9.1528  -16.2601   22.4639 C.ar    1  UNL1        0.1725
     14 C          -7.7646  -15.9074   22.9092 C.ar    1  UNL1        0.0427
     15 C          -7.4211  -15.9133   24.3694 C.ar    1  UNL1        0.0345
     16 C          -4.0703  -16.2596   23.2625 C.3     1  UNL1        0.0067
     17 C          -4.9881  -15.2020   23.8000 C.3     1  UNL1        0.0459
     18 O          -9.4963  -16.2541   21.0037 O.3     1  UNL1       -0.4684
     19 C         -10.7135  -15.5213   20.5226 C.3     1  UNL1        0.2526
     20 C         -10.3947  -19.7055   21.4017 C.3     1  UNL1        0.1020
     21 N          -9.1395  -18.9869   21.0041 N.3     1  UNL1       -0.2971
     22 H          -8.9299  -18.3251   21.7513 H       1  UNL1        0.1233
     23 C          -7.8813  -19.7618   20.7463 C.3     1  UNL1        0.0476
     24 C          -8.2344  -19.8511   19.2912 C.3     1  UNL1        0.0162
     25 C          -7.5282  -19.6724   22.2014 C.3     1  UNL1        0.0162
     26 C          -6.6231  -20.5366   20.4885 C.3     1  UNL1        0.0602
     27 C          -5.3031  -19.8263   20.4320 C.2     1  UNL1        0.0599
     28 C          -4.2067  -19.9207   21.4513 C.2     1  UNL1        0.0159
     29 C          -3.0738  -19.0497   20.9955 C.2     1  UNL1        0.0150
     30 C          -1.7326  -18.7509   21.5971 C.2     1  UNL1        0.0009
     31 C          -0.7876  -17.8194   20.8976 C.2     1  UNL1       -0.0041
     32 C          -1.1838  -17.1866   19.5966 C.2     1  UNL1       -0.0198
     33 C          -2.5251  -17.4854   18.9950 C.3     1  UNL1        0.0717
     34 C          -3.4701  -18.4169   19.6945 C.2     1  UNL1        0.0630
     35 N          -4.8478  -18.8969   19.3462 N.2     1  UNL1       -0.2536
@<TRIPOS>BOND
     1    16    17    1
     2    17     6    1
     3     6     7   ar
     4     7     8   ar
     5     8     9   ar
     6     9    10   ar
     7    10    11   ar
     8    11    12   ar
     9    12     5    1
    10     5     4    1
    11     4     1    1
    12     1     2    1
    13     1    20    1
    14    20    21    1
    15    21    23    1
    16    23    24    1
    17    23    25    1
    18    23    26    1
    19    26    27    1
    20    27    28    2
    21    28    29    1
    22    29    30    2
    23    30    31    1
    24    31    32    2
    25    32    33    1
    26    33    34    1
    27    34    35    2
    28    12    13   ar
    29    13    18    1
    30    18    19    1
    31    13    14   ar
    32    14    15   ar
    33    15     6   ar
    34    15    10   ar
    35    35    27    1
    36    34    29    1
    37     2     3    1
    38    21    22    1
@<TRIPOS>MOLECULE
*****
 35 38 0 0 0
SMALL
GASTEIGER

@<TRIPOS>ATOM
      1 C          -3.8114  -19.3758   20.1084 C.3     1  UNL1        0.1697
      2 O          -2.8777  -19.2536   18.9408 O.3     1  UNL1       -0.3793
      3 H          -3.3895  -19.0891   18.1334 H       1  UNL1        0.2106
      4 C          -5.2911  -19.2409   19.9027 C.3     1  UNL1        0.2359
      5 O          -6.2261  -20.2527   20.4959 O.3     1  UNL1       -0.4697
      6 C         -11.4715  -18.4918   22.8167 C.ar    1  UNL1        0.0622
      7 N         -11.6656  -18.4747   24.3040 N.ar    1  UNL1       -0.2283
      8 C         -10.5484  -18.8979   25.2111 C.ar    1  UNL1        0.1985
      9 N          -9.2371  -19.3381   24.6309 N.ar    1  UNL1       -0.2239
     10 C          -9.0430  -19.3551   23.1436 C.ar    1  UNL1        0.0874
     11 C          -7.7316  -19.7954   22.5634 C.ar    1  UNL1        0.0592
     12 C          -7.5375  -19.8124   21.0761 C.ar    1  UNL1        0.1738
     13 C          -8.6547  -19.3893   20.1690 C.ar    1  UNL1        0.1725
     14 C          -9.9660  -18.9491   20.7492 C.ar    1  UNL1        0.0427
     15 C         -10.1602  -18.9320   22.2365 C.ar    1  UNL1        0.0345
     16 C         -12.5956  -16.6887   21.3217 C.3     1  UNL1        0.0067
     17 C         -12.5887  -18.0686   21.9096 C.3     1  UNL1        0.0459
     18 O          -8.4605  -19.4064   18.6817 O.3     1  UNL1       -0.4684
     19 C          -8.8176  -20.6311   17.8928 C.3     1  UNL1        0.2526
     20 C          -3.2654  -19.6331   21.4816 C.3     1  UNL1        0.1020
     21 N          -2.4108  -18.6003   22.1546 N.3     1  UNL1       -0.2971
     22 H          -1.6151  -18.4303   21.5395 H       1  UNL1        0.1233
     23 C          -2.9867  -17.2586   22.4984 C.3     1  UNL1        0.0476
     24 C          -2.0231  -16.6030   21.5542 C.3     1  UNL1        0.0162
     25 C          -3.9503  -17.9142   23.4427 C.3     1  UNL1        0.0162
     26 C          -3.5625  -15.9169   22.8423 C.3     1  UNL1        0.0602
     27 C          -4.7497  -15.8216   23.7542 C.2     1  UNL1        0.0599
     28 C          -4.7059  -15.6382   25.2423 C.2     1  UNL1        0.0159
     29 C          -6.1182  -15.5963   25.7459 C.2     1  UNL1        0.0150
     30 C          -6.6880  -15.4350   27.1241 C.2     1  UNL1        0.0009
     31 C          -8.1744  -15.4313   27.3254 C.2     1  UNL1       -0.0041
     32 C          -9.0911  -15.5888   26.1485 C.2     1  UNL1       -0.0198
     33 C          -8.5213  -15.7501   24.7703 C.3     1  UNL1        0.0717
     34 C          -7.0348  -15.7538   24.5690 C.2     1  UNL1        0.0630
     35 N          -6.1890  -15.8931   23.3381 N.2     1  UNL1       -0.2536
@<TRIPOS>BOND
     1    16    17    1
     2    17     6    1
     3     6     7   ar
     4     7     8   ar
     5     8     9   ar
     6     9    10   ar
     7    10    11   ar
     8    11    12   ar
     9    12     5    1
    10     5     4    1
    11     4     1    1
    12     1     2    1
    13     1    20    1
    14    20    21    1
    15    21    23    1
    16    23    24    1
    17    23    25    1
    18    23    26    1
    19    26    27    1
    20    27    28    2
    21    28    29    1
    22    29    30    2
    23    30    31    1
    24    31    32    2
    25    32    33    1
    26    33    34    1
    27    34    35    2
    28    12    13   ar
    29    13    18    1
    30    18    19    1
    31    13    14   ar
    32    14    15   ar
    33    15     6   ar
    34    15    10   ar
    35    35    27    1
    36    34    29    1
    37     2     3    1
    38    21    22    1
@<TRIPOS>MOLECULE
*****
 35 38 0 0 0
SMALL
GASTEIGER

@<TRIPOS>ATOM
      1 C         -10.2185  -17.4304   24.4619 C.3     1  UNL1        0.1697
      2 O         -10.9781  -18.6240   24.9601 O.3     1  UNL1       -0.3793
      3 H         -11.8164  -18.6981   24.4779 H       1  UNL1        0.2106
      4 C         -10.7970  -16.5734   23.3752 C.3     1  UNL1        0.2359
      5 O         -10.0332  -16.3593   22.1022 O.3     1  UNL1       -0.4697
      6 C          -8.3799  -21.0656   18.7679 C.ar    1  UNL1        0.0622
      7 N          -7.0388  -21.7023   18.9821 N.ar    1  UNL1       -0.2283
      8 C          -6.1109  -21.1626   20.0298 C.ar    1  UNL1        0.1985
      9 N          -6.5242  -19.9860   20.8634 N.ar    1  UNL1       -0.2239
     10 C          -7.8653  -19.3492   20.6492 C.ar    1  UNL1        0.0874
     11 C          -8.2787  -18.1726   21.4828 C.ar    1  UNL1        0.0592
     12 C          -9.6198  -17.5359   21.2686 C.ar    1  UNL1        0.1738
     13 C         -10.5476  -18.0757   20.2208 C.ar    1  UNL1        0.1725
     14 C         -10.1343  -19.2522   19.3873 C.ar    1  UNL1        0.0427
     15 C          -8.7932  -19.8890   19.6014 C.ar    1  UNL1        0.0345
     16 C          -9.0949  -21.2546   16.2773 C.3     1  UNL1        0.0067
     17 C          -9.3077  -21.6054   17.7201 C.3     1  UNL1        0.0459
     18 O         -11.8888  -17.4388   20.0067 O.3     1  UNL1       -0.4684
     19 C         -11.9775  -16.0172   19.5364 C.3     1  UNL1        0.2526
     20 C          -8.8804  -17.0937   25.0503 C.3     1  UNL1        0.1020
     21 N          -8.3504  -15.6937   24.9561 N.3     1  UNL1       -0.2971
     22 H          -8.6263  -15.2161   25.8141 H       1  UNL1        0.1233
     23 C          -6.8790  -15.4588   24.7836 C.3     1  UNL1        0.0476
     24 C          -6.6681  -15.7049   26.2481 C.3     1  UNL1        0.0162
     25 C          -7.0900  -15.2126   23.3191 C.3     1  UNL1        0.0162
     26 C          -5.4076  -15.2238   24.6111 C.3     1  UNL1        0.0602
     27 C          -4.6029  -16.1266   23.7238 C.2     1  UNL1        0.0599
     28 C          -4.6604  -17.6254   23.7061 C.2     1  UNL1        0.0159
     29 C          -3.6924  -18.1142   22.6698 C.2     1  UNL1        0.0150
     30 C          -3.3234  -19.4944   22.2127 C.2     1  UNL1        0.0009
     31 C          -2.2986  -19.6779   21.1328 C.2     1  UNL1       -0.0041
     32 C          -1.6428  -18.4812   20.5100 C.2     1  UNL1       -0.0198
     33 C          -2.0119  -17.1010   20.9670 C.3     1  UNL1        0.0717
     34 C          -3.0367  -16.9175   22.0469 C.2     1  UNL1        0.0630
     35 N          -3.5994  -15.6891   22.6984 N.2     1  UNL1       -0.2536
@<TRIPOS>BOND
     1    16    17    1
     2    17     6    1
     3     6     7   ar
     4     7     8   ar
     5     8     9   ar
     6     9    10   ar
     7    10    11   ar
     8    11    12   ar
     9    12     5    1
    10     5     4    1
    11     4     1    1
    12     1     2    1
    13     1    20    1
    14    20    21    1
    15    21    23    1
    16    23    24    1
    17    23    25    1
    18    23    26    1
    19    26    27    1
    20    27    28    2
    21    28    29    1
    22    29    30    2
    23    30    31    1
    24    31    32    2
    25    32    33    1
    26    33    34    1
    27    34    35    2
    28    12    13   ar
    29    13    18    1
    30    18    19    1
    31    13    14   ar
    32    14    15   ar
    33    15     6   ar
    34    15    10   ar
    35    35    27    1
    36    34    29    1
    37     2     3    1
    38    21    22    1
@<TRIPOS>MOLECULE
*****
 35 38 0 0 0
SMALL
GASTEIGER

@<TRIPOS>ATOM
      1 C         -10.3957   -5.0174   18.8854 C.3     1  UNL1        0.1697
      2 O          -9.1730   -4.9635   19.7527 O.3     1  UNL1       -0.3793
      3 H          -9.1161   -5.7743   20.2820 H       1  UNL1        0.2106
      4 C         -11.3005   -6.2126   18.9382 C.3     1  UNL1        0.2359
      5 O         -12.3883   -6.3755   17.9183 O.3     1  UNL1       -0.4697
      6 C         -17.7264   -8.5753   19.5510 C.ar    1  UNL1        0.0622
      7 N         -18.0434  -10.0231   19.3200 N.ar    1  UNL1       -0.2283
      8 C         -17.0259  -10.9209   18.6808 C.ar    1  UNL1        0.1985
      9 N         -15.6914  -10.3710   18.2726 N.ar    1  UNL1       -0.2239
     10 C         -15.3744   -8.9232   18.5036 C.ar    1  UNL1        0.0874
     11 C         -14.0398   -8.3732   18.0955 C.ar    1  UNL1        0.0592
     12 C         -13.7228   -6.9255   18.3265 C.ar    1  UNL1        0.1738
     13 C         -14.7403   -6.0276   18.9657 C.ar    1  UNL1        0.1725
     14 C         -16.0748   -6.5776   19.3739 C.ar    1  UNL1        0.0427
     15 C         -16.3919   -8.0254   19.1429 C.ar    1  UNL1        0.0345
     16 C         -19.8917   -8.2688   20.9536 C.3     1  UNL1        0.0067
     17 C         -18.7439   -7.6775   20.1903 C.3     1  UNL1        0.0459
     18 O         -14.4232   -4.5798   19.1968 O.3     1  UNL1       -0.4684
     19 C         -14.1194   -4.0903   20.5817 C.3     1  UNL1        0.2526
     20 C         -10.7136   -3.8761   17.9654 C.3     1  UNL1        0.1020
     21 N         -12.1380   -3.4542   17.7582 N.3     1  UNL1       -0.2971
     22 H         -12.6619   -3.7765   18.5719 H       1  UNL1        0.1233
     23 C         -12.4714   -2.0032   17.5755 C.3     1  UNL1        0.0476
     24 C         -11.7095   -1.6709   18.8242 C.3     1  UNL1        0.0162
     25 C         -13.2333   -2.3354   16.3268 C.3     1  UNL1        0.0162
     26 C         -12.8048   -0.5521   17.3928 C.3     1  UNL1        0.0602
     27 C         -13.8644    0.0865   18.2409 C.2     1  UNL1        0.0599
     28 C         -14.9721   -0.6294   18.9555 C.2     1  UNL1        0.0159
     29 C         -15.7947    0.3948   19.6795 C.2     1  UNL1        0.0150
     30 C         -17.0119    0.2735   20.5476 C.2     1  UNL1        0.0009
     31 C         -17.6300    1.5010   21.1485 C.2     1  UNL1       -0.0041
     32 C         -17.0308    2.8499   20.8814 C.2     1  UNL1       -0.0198
     33 C         -15.8135    2.9713   20.0133 C.3     1  UNL1        0.0717
     34 C         -15.1954    1.7437   19.4124 C.2     1  UNL1        0.0630
     35 N         -14.0025    1.5532   18.5233 N.2     1  UNL1       -0.2536
@<TRIPOS>BOND
     1    16    17    1
     2    17     6    1
     3     6     7   ar
     4     7     8   ar
     5     8     9   ar
     6     9    10   ar
     7    10    11   ar
     8    11    12   ar
     9    12     5    1
    10     5     4    1
    11     4     1    1
    12     1     2    1
    13     1    20    1
    14    20    21    1
    15    21    23    1
    16    23    24    1
    17    23    25    1
    18    23    26    1
    19    26    27    1
    20    27    28    2
    21    28    29    1
    22    29    30    2
    23    30    31    1
    24    31    32    2
    25    32    33    1
    26    33    34    1
    27    34    35    2
    28    12    13   ar
    29    13    18    1
    30    18    19    1
    31    13    14   ar
    32    14    15   ar
    33    15     6   ar
    34    15    10   ar
    35    35    27    1
    36    34    29    1
    37     2     3    1
    38    21    22    1
@<TRIPOS>MOLECULE
*****
 35 38 0 0 0
SMALL
GASTEIGER

@<TRIPOS>ATOM
      1 C          -8.6628  -16.0583   25.5986 C.3     1  UNL1        0.1697
      2 O          -8.7345  -17.1740   26.5986 O.3     1  UNL1       -0.3793
      3 H          -9.4457  -17.7853   26.3505 H       1  UNL1        0.2106
      4 C          -9.6151  -16.0271   24.4402 C.3     1  UNL1        0.2359
      5 O         -10.2897  -17.2889   23.9896 O.3     1  UNL1       -0.4697
      6 C          -8.1385  -20.3245   19.2824 C.ar    1  UNL1        0.0622
      7 N          -6.8399  -21.0661   19.3982 N.ar    1  UNL1       -0.2283
      8 C          -6.0790  -21.0489   20.6907 C.ar    1  UNL1        0.1985
      9 N          -6.6168  -20.2900   21.8675 N.ar    1  UNL1       -0.2239
     10 C          -7.9154  -19.5484   21.7517 C.ar    1  UNL1        0.0874
     11 C          -8.4532  -18.7895   22.9286 C.ar    1  UNL1        0.0592
     12 C          -9.7519  -18.0478   22.8128 C.ar    1  UNL1        0.1738
     13 C         -10.5128  -18.0651   21.5202 C.ar    1  UNL1        0.1725
     14 C          -9.9750  -18.8239   20.3434 C.ar    1  UNL1        0.0427
     15 C          -8.6763  -19.5656   20.4592 C.ar    1  UNL1        0.0345
     16 C          -9.0921  -21.6323   17.2501 C.3     1  UNL1        0.0067
     17 C          -8.8994  -20.3417   17.9898 C.3     1  UNL1        0.0459
     18 O         -11.8115  -17.3234   21.4045 O.3     1  UNL1       -0.4684
     19 C         -12.0278  -16.3619   20.2736 C.3     1  UNL1        0.2526
     20 C          -7.6388  -14.9737   25.7571 C.3     1  UNL1        0.1020
     21 N          -6.5130  -14.8556   24.7731 N.3     1  UNL1       -0.2971
     22 H          -5.9844  -14.0216   25.0291 H       1  UNL1        0.1233
     23 C          -5.5201  -15.9711   24.6318 C.3     1  UNL1        0.0476
     24 C          -6.0196  -16.2398   23.2432 C.3     1  UNL1        0.0162
     25 C          -5.0207  -15.7023   26.0205 C.3     1  UNL1        0.0162
     26 C          -4.5273  -17.0866   24.4906 C.3     1  UNL1        0.0602
     27 C          -3.8307  -17.3093   23.1810 C.2     1  UNL1        0.0599
     28 C          -2.5401  -16.6777   22.7503 C.2     1  UNL1        0.0159
     29 C          -2.2141  -17.1807   21.3753 C.2     1  UNL1        0.0150
     30 C          -1.0662  -16.9023   20.4507 C.2     1  UNL1        0.0009
     31 C          -1.0075  -17.5664   19.1070 C.2     1  UNL1       -0.0041
     32 C          -2.0965  -18.5089   18.6879 C.2     1  UNL1       -0.0198
     33 C          -3.2444  -18.7873   19.6125 C.3     1  UNL1        0.0717
     34 C          -3.3032  -18.1232   20.9562 C.2     1  UNL1        0.0630
     35 N          -4.3023  -18.2026   22.0722 N.2     1  UNL1       -0.2536
@<TRIPOS>BOND
     1    16    17    1
     2    17     6    1
     3     6     7   ar
     4     7     8   ar
     5     8     9   ar
     6     9    10   ar
     7    10    11   ar
     8    11    12   ar
     9    12     5    1
    10     5     4    1
    11     4     1    1
    12     1     2    1
    13     1    20    1
    14    20    21    1
    15    21    23    1
    16    23    24    1
    17    23    25    1
    18    23    26    1
    19    26    27    1
    20    27    28    2
    21    28    29    1
    22    29    30    2
    23    30    31    1
    24    31    32    2
    25    32    33    1
    26    33    34    1
    27    34    35    2
    28    12    13   ar
    29    13    18    1
    30    18    19    1
    31    13    14   ar
    32    14    15   ar
    33    15     6   ar
    34    15    10   ar
    35    35    27    1
    36    34    29    1
    37     2     3    1
    38    21    22    1
@<TRIPOS>MOLECULE
*****
 35 38 0 0 0
SMALL
GASTEIGER

@<TRIPOS>ATOM
      1 C          -7.9270  -15.5683   26.8440 C.3     1  UNL1        0.1697
      2 O          -8.5107  -16.3601   27.9764 O.3     1  UNL1       -0.3793
      3 H          -9.4747  -16.4031   27.8777 H       1  UNL1        0.2106
      4 C          -8.8258  -14.9912   25.7908 C.3     1  UNL1        0.2359
      5 O          -8.4111  -15.0259   24.3497 O.3     1  UNL1       -0.4697
      6 C         -10.3565  -19.4336   20.7737 C.ar    1  UNL1        0.0622
      7 N         -11.0182  -20.6427   21.3655 N.ar    1  UNL1       -0.2283
      8 C         -11.1935  -20.7499   22.8514 C.ar    1  UNL1        0.1985
      9 N         -10.7072  -19.6480   23.7454 N.ar    1  UNL1       -0.2239
     10 C         -10.0455  -18.4389   23.1535 C.ar    1  UNL1        0.0874
     11 C          -9.5592  -17.3370   24.0475 C.ar    1  UNL1        0.0592
     12 C          -8.8975  -16.1279   23.4557 C.ar    1  UNL1        0.1738
     13 C          -8.7222  -16.0207   21.9698 C.ar    1  UNL1        0.1725
     14 C          -9.2085  -17.1226   21.0758 C.ar    1  UNL1        0.0427
     15 C          -9.8702  -18.3317   21.6677 C.ar    1  UNL1        0.0345
     16 C          -9.2474  -20.2580   18.5736 C.3     1  UNL1        0.0067
     17 C         -10.1812  -19.3264   19.2878 C.3     1  UNL1        0.0459
     18 O          -8.0605  -14.8116   21.3780 O.3     1  UNL1       -0.4684
     19 C          -8.7782  -13.9938   20.3455 C.3     1  UNL1        0.2526
     20 C          -6.4446  -15.3537   26.7647 C.3     1  UNL1        0.1020
     21 N          -5.8175  -14.9204   25.4728 N.3     1  UNL1       -0.2971
     22 H          -5.3863  -14.0122   25.6448 H       1  UNL1        0.1233
     23 C          -4.7743  -15.7785   24.8206 C.3     1  UNL1        0.0476
     24 C          -5.0529  -15.1164   23.5038 C.3     1  UNL1        0.0162
     25 C          -4.4956  -16.4406   26.1374 C.3     1  UNL1        0.0162
     26 C          -3.7310  -16.6366   24.1684 C.3     1  UNL1        0.0602
     27 C          -4.1351  -17.6784   23.1678 C.2     1  UNL1        0.0599
     28 C          -3.2106  -18.4362   22.2617 C.2     1  UNL1        0.0159
     29 C          -4.0387  -19.3715   21.4314 C.2     1  UNL1        0.0150
     30 C          -3.6705  -20.3636   20.3684 C.2     1  UNL1        0.0009
     31 C          -4.7387  -21.1759   19.6983 C.2     1  UNL1       -0.0041
     32 C          -6.1751  -20.9961   20.0911 C.2     1  UNL1       -0.0198
     33 C          -6.5434  -20.0039   21.1542 C.3     1  UNL1        0.0717
     34 C          -5.4752  -19.1916   21.8243 C.2     1  UNL1        0.0630
     35 N          -5.5347  -18.1452   22.8974 N.2     1  UNL1       -0.2536
@<TRIPOS>BOND
     1    16    17    1
     2    17     6    1
     3     6     7   ar
     4     7     8   ar
     5     8     9   ar
     6     9    10   ar
     7    10    11   ar
     8    11    12   ar
     9    12     5    1
    10     5     4    1
    11     4     1    1
    12     1     2    1
    13     1    20    1
    14    20    21    1
    15    21    23    1
    16    23    24    1
    17    23    25    1
    18    23    26    1
    19    26    27    1
    20    27    28    2
    21    28    29    1
    22    29    30    2
    23    30    31    1
    24    31    32    2
    25    32    33    1
    26    33    34    1
    27    34    35    2
    28    12    13   ar
    29    13    18    1
    30    18    19    1
    31    13    14   ar
    32    14    15   ar
    33    15     6   ar
    34    15    10   ar
    35    35    27    1
    36    34    29    1
    37     2     3    1
    38    21    22    1
