@<TRIPOS>MOLECULE
*****
 39 42 0 0 0
SMALL
GASTEIGER

@<TRIPOS>ATOM
      1 C           9.4217   -5.2183   27.9667 C.ar    1  UNL1        0.1484
      2 C           9.3999   -4.8831   26.5048 C.ar    1  UNL1        0.0376
      3 C           9.2996   -5.9790   25.4855 C.ar    1  UNL1        0.0044
      4 C           9.2212   -7.4100   25.9281 C.ar    1  UNL1        0.0149
      5 C           9.2430   -7.7452   27.3900 C.ar    1  UNL1        0.0546
      6 C           9.3433   -6.6493   28.4094 C.ar    1  UNL1        0.0522
      7 N           9.1646   -9.1763   27.8326 N.am    1  UNL1       -0.2679
      8 C           7.9085   -9.9639   27.6051 C.2     1  UNL1        0.3093
      9 O           6.7308   -9.3205   26.9350 O.2     1  UNL1       -0.2521
     10 N           7.8301  -11.3950   28.0478 N.am    1  UNL1       -0.2508
     11 H           9.9376   -9.5986   28.2724 H       1  UNL1        0.1564
     12 H           8.6031  -11.8173   28.4876 H       1  UNL1        0.1579
     13 C           6.5739  -12.1827   27.8203 C.ar    1  UNL1        0.1771
     14 C           5.2899  -12.0335   28.5812 C.ar    1  UNL1        0.0737
     15 C           4.3036  -13.0164   28.0231 C.ar    1  UNL1        0.1629
     16 O           4.9782  -13.7729   26.9174 O.2     1  UNL1       -0.3563
     17 N           6.3813  -13.2577   26.7920 N.ar    1  UNL1       -0.0621
     18 C           2.8908  -13.2089   28.4890 C.3     1  UNL1        0.1409
     19 C           3.0661  -12.0967   29.4801 C.3     1  UNL1        0.0162
     20 C           2.7155  -14.3211   27.4979 C.3     1  UNL1        0.0162
     21 C           1.4781  -13.4014   28.9549 C.3     1  UNL1        0.4035
     22 F           0.0654  -13.5939   29.4208 F       1  UNL1       -0.1696
     23 F           1.0749  -13.8019   27.5667 F       1  UNL1       -0.1696
     24 F           1.8813  -13.0009   30.3431 F       1  UNL1       -0.1696
     25 O           9.5220   -4.1224   28.9860 O.3     1  UNL1       -0.4360
     26 C           5.4966   -0.5569   28.4084 C.ar    1  UNL1        0.1739
     27 C           5.2452   -1.2611   29.7087 C.ar    1  UNL1        0.0593
     28 C           6.1887   -2.3286   30.1782 C.ar    1  UNL1        0.0908
     29 N           5.9373   -3.0328   31.4785 N.ar    1  UNL1       -0.2237
     30 C           6.8808   -4.1002   31.9480 C.ar    1  UNL1        0.2015
     31 N           8.0757   -4.4634   31.1171 N.ar    1  UNL1       -0.1890
     32 C           8.3271   -3.7592   29.8168 C.ar    1  UNL1        0.2325
     33 C           7.3836   -2.6918   29.3474 C.ar    1  UNL1        0.0745
     34 C           7.6350   -1.9875   28.0470 C.ar    1  UNL1        0.0462
     35 C           6.6915   -0.9201   27.5776 C.ar    1  UNL1        0.1726
     36 C           3.2460    0.1317   27.3082 C.3     1  UNL1        0.2526
     37 O           4.5531    0.5105   27.9389 O.3     1  UNL1       -0.4683
     38 O           6.9429   -0.2158   26.2772 O.3     1  UNL1       -0.4684
     39 C           6.4410   -0.8086   24.9940 C.3     1  UNL1        0.2526
@<TRIPOS>BOND
     1    36    37    1
     2    37    26    1
     3    26    27   ar
     4    27    28   ar
     5    28    29   ar
     6    29    30   ar
     7    30    31   ar
     8    31    32   ar
     9    32    25    1
    10    25     1    1
    11     1     2   ar
    12     2     3   ar
    13     3     4   ar
    14     4     5   ar
    15     5     7    1
    16     7     8   am
    17     8     9    2
    18     8    10   am
    19    10    13    1
    20    13    14   ar
    21    14    15   ar
    22    15    18    1
    23    18    19    1
    24    18    20    1
    25    18    21    1
    26    21    22    1
    27    21    23    1
    28    21    24    1
    29    15    16   ar
    30    16    17   ar
    31     5     6   ar
    32    32    33   ar
    33    33    34   ar
    34    34    35   ar
    35    35    38    1
    36    38    39    1
    37    35    26   ar
    38    33    28   ar
    39     6     1   ar
    40    17    13   ar
    41     7    11    1
    42    10    12    1
@<TRIPOS>MOLECULE
*****
 39 42 0 0 0
SMALL
GASTEIGER

@<TRIPOS>ATOM
      1 C          -3.5113    3.1692   20.4154 C.ar    1  UNL1        0.1484
      2 C          -3.9899    3.7290   19.1086 C.ar    1  UNL1        0.0376
      3 C          -2.9981    4.1780   18.0768 C.ar    1  UNL1        0.0044
      4 C          -1.5277    4.0672   18.3517 C.ar    1  UNL1        0.0149
      5 C          -1.0491    3.5074   19.6584 C.ar    1  UNL1        0.0546
      6 C          -2.0409    3.0584   20.6903 C.ar    1  UNL1        0.0522
      7 N           0.4214    3.3967   19.9333 N.am    1  UNL1       -0.2679
      8 C           1.1986    2.2306   19.3984 C.2     1  UNL1        0.3093
      9 O           0.5054    1.1753   18.5885 O.2     1  UNL1       -0.2521
     10 N           2.6690    2.1198   19.6733 N.am    1  UNL1       -0.2508
     11 H           0.8763    4.0893   20.4648 H       1  UNL1        0.1564
     12 H           3.1240    2.8125   20.2049 H       1  UNL1        0.1579
     13 C           3.4463    0.9537   19.1384 C.ar    1  UNL1        0.1771
     14 C           3.2639   -0.4823   19.5316 C.ar    1  UNL1        0.0737
     15 C           4.2472   -1.3047   18.7526 C.ar    1  UNL1        0.1629
     16 O           5.0373   -0.3769   17.8779 O.2     1  UNL1       -0.3563
     17 N           4.5423    1.0189   18.1164 N.ar    1  UNL1       -0.0621
     18 C           4.4116   -2.7934   18.8339 C.3     1  UNL1        0.1409
     19 C           5.6803   -2.6967   18.0395 C.3     1  UNL1        0.0162
     20 C           3.1429   -2.8901   19.6283 C.3     1  UNL1        0.0162
     21 C           4.5760   -4.2822   18.9153 C.3     1  UNL1        0.4035
     22 F           4.7404   -5.7709   18.9966 F       1  UNL1       -0.1696
     23 F           6.0281   -4.1037   19.2460 F       1  UNL1       -0.1696
     24 F           3.1238   -4.4606   18.5846 F       1  UNL1       -0.1696
     25 O          -4.5032    2.7202   21.4471 O.3     1  UNL1       -0.4360
     26 C          -4.4624    4.9453   26.3763 C.ar    1  UNL1        0.1739
     27 C          -5.6341    5.5465   25.6582 C.ar    1  UNL1        0.0593
     28 C          -5.9372    5.1405   24.2463 C.ar    1  UNL1        0.0908
     29 N          -7.1089    5.7416   23.5282 N.ar    1  UNL1       -0.2237
     30 C          -7.4120    5.3356   22.1164 C.ar    1  UNL1        0.2015
     31 N          -6.5434    4.3285   21.4227 N.ar    1  UNL1       -0.1890
     32 C          -5.3717    3.7273   22.1408 C.ar    1  UNL1        0.2325
     33 C          -5.0686    4.1333   23.5526 C.ar    1  UNL1        0.0745
     34 C          -3.8969    3.5322   24.2708 C.ar    1  UNL1        0.0462
     35 C          -3.5938    3.9382   25.6826 C.ar    1  UNL1        0.1726
     36 C          -3.1810    6.4563   28.0572 C.3     1  UNL1        0.2526
     37 O          -4.1592    5.3514   27.7882 O.3     1  UNL1       -0.4683
     38 O          -2.4220    3.3370   26.4008 O.3     1  UNL1       -0.4684
     39 C          -1.3191    2.6844   25.6214 C.3     1  UNL1        0.2526
@<TRIPOS>BOND
     1    36    37    1
     2    37    26    1
     3    26    27   ar
     4    27    28   ar
     5    28    29   ar
     6    29    30   ar
     7    30    31   ar
     8    31    32   ar
     9    32    25    1
    10    25     1    1
    11     1     2   ar
    12     2     3   ar
    13     3     4   ar
    14     4     5   ar
    15     5     7    1
    16     7     8   am
    17     8     9    2
    18     8    10   am
    19    10    13    1
    20    13    14   ar
    21    14    15   ar
    22    15    18    1
    23    18    19    1
    24    18    20    1
    25    18    21    1
    26    21    22    1
    27    21    23    1
    28    21    24    1
    29    15    16   ar
    30    16    17   ar
    31     5     6   ar
    32    32    33   ar
    33    33    34   ar
    34    34    35   ar
    35    35    38    1
    36    38    39    1
    37    35    26   ar
    38    33    28   ar
    39     6     1   ar
    40    17    13   ar
    41     7    11    1
    42    10    12    1
@<TRIPOS>MOLECULE
*****
 39 42 0 0 0
SMALL
GASTEIGER

@<TRIPOS>ATOM
      1 C           7.7670   -5.5734   26.2785 C.ar    1  UNL1        0.1484
      2 C           8.5780   -4.5967   27.0776 C.ar    1  UNL1        0.0376
      3 C           9.4609   -5.0858   28.1872 C.ar    1  UNL1        0.0044
      4 C           9.5330   -6.5515   28.4977 C.ar    1  UNL1        0.0149
      5 C           8.7220   -7.5282   27.6987 C.ar    1  UNL1        0.0546
      6 C           7.8390   -7.0391   26.5891 C.ar    1  UNL1        0.0522
      7 N           8.7941   -8.9939   28.0092 N.am    1  UNL1       -0.2679
      8 C           7.6257   -9.8836   27.7039 C.2     1  UNL1        0.3093
      9 O           6.3851   -9.3075   27.0879 O.2     1  UNL1       -0.2521
     10 N           7.6977  -11.3493   28.0144 N.am    1  UNL1       -0.2508
     11 H           9.6082   -9.3720   28.4135 H       1  UNL1        0.1564
     12 H           8.5118  -11.7274   28.4187 H       1  UNL1        0.1579
     13 C           6.5292  -12.2390   27.7090 C.ar    1  UNL1        0.1771
     14 C           5.1912  -12.2005   28.3860 C.ar    1  UNL1        0.0737
     15 C           4.3286  -13.2610   27.7684 C.ar    1  UNL1        0.1629
     16 O           5.1336  -13.9548   26.7097 O.2     1  UNL1       -0.3563
     17 N           6.4936  -13.3232   26.6730 N.ar    1  UNL1       -0.0621
     18 C           2.9102  -13.5729   28.1436 C.3     1  UNL1        0.1409
     19 C           3.0231  -14.9049   27.4633 C.3     1  UNL1        0.0162
     20 C           2.7972  -12.2408   28.8239 C.3     1  UNL1        0.0162
     21 C           1.4917  -13.8848   28.5187 C.3     1  UNL1        0.4035
     22 F           0.0733  -14.1966   28.8939 F       1  UNL1       -0.1696
     23 F           1.6462  -15.2659   27.9544 F       1  UNL1       -0.1696
     24 F           1.3373  -12.5036   29.0831 F       1  UNL1       -0.1696
     25 O           6.8841   -5.0843   25.1690 O.3     1  UNL1       -0.4360
     26 C           5.2562   -2.4442   20.7384 C.ar    1  UNL1        0.1739
     27 C           6.5290   -3.1429   20.3622 C.ar    1  UNL1        0.0593
     28 C           7.2542   -3.9777   21.3758 C.ar    1  UNL1        0.0908
     29 N           8.5271   -4.6764   20.9996 N.ar    1  UNL1       -0.2237
     30 C           9.2522   -5.5111   22.0131 C.ar    1  UNL1        0.2015
     31 N           8.7046   -5.6471   23.4029 N.ar    1  UNL1       -0.1890
     32 C           7.4317   -4.9484   23.7792 C.ar    1  UNL1        0.2325
     33 C           6.7066   -4.1137   22.7656 C.ar    1  UNL1        0.0745
     34 C           5.4337   -3.4149   23.1418 C.ar    1  UNL1        0.0462
     35 C           4.7085   -2.5802   22.1283 C.ar    1  UNL1        0.1726
     36 C           4.1446   -2.2030   18.4026 C.3     1  UNL1        0.2526
     37 O           4.5309   -1.6094   19.7249 O.3     1  UNL1       -0.4683
     38 O           3.4356   -1.8814   22.5045 O.3     1  UNL1       -0.4684
     39 C           3.4523   -0.8013   23.5452 C.3     1  UNL1        0.2526
@<TRIPOS>BOND
     1    36    37    1
     2    37    26    1
     3    26    27   ar
     4    27    28   ar
     5    28    29   ar
     6    29    30   ar
     7    30    31   ar
     8    31    32   ar
     9    32    25    1
    10    25     1    1
    11     1     2   ar
    12     2     3   ar
    13     3     4   ar
    14     4     5   ar
    15     5     7    1
    16     7     8   am
    17     8     9    2
    18     8    10   am
    19    10    13    1
    20    13    14   ar
    21    14    15   ar
    22    15    18    1
    23    18    19    1
    24    18    20    1
    25    18    21    1
    26    21    22    1
    27    21    23    1
    28    21    24    1
    29    15    16   ar
    30    16    17   ar
    31     5     6   ar
    32    32    33   ar
    33    33    34   ar
    34    34    35   ar
    35    35    38    1
    36    38    39    1
    37    35    26   ar
    38    33    28   ar
    39     6     1   ar
    40    17    13   ar
    41     7    11    1
    42    10    12    1
@<TRIPOS>MOLECULE
*****
 39 42 0 0 0
SMALL
GASTEIGER

@<TRIPOS>ATOM
      1 C           8.0865   -5.5076   26.1345 C.ar    1  UNL1        0.1484
      2 C           8.7558   -4.5492   27.0746 C.ar    1  UNL1        0.0376
      3 C           9.4801   -5.0658   28.2822 C.ar    1  UNL1        0.0044
      4 C           9.5353   -6.5407   28.5498 C.ar    1  UNL1        0.0149
      5 C           8.8661   -7.4990   27.6098 C.ar    1  UNL1        0.0546
      6 C           8.1417   -6.9825   26.4021 C.ar    1  UNL1        0.0522
      7 N           8.9212   -8.9740   27.8774 N.am    1  UNL1       -0.2679
      8 C           7.7014   -9.8208   27.6656 C.2     1  UNL1        0.3093
      9 O           6.4263   -9.1927   27.1862 O.2     1  UNL1       -0.2521
     10 N           7.7566  -11.2957   27.9332 N.am    1  UNL1       -0.2508
     11 H           9.7581   -9.3862   28.1920 H       1  UNL1        0.1564
     12 H           8.5934  -11.7079   28.2478 H       1  UNL1        0.1579
     13 C           6.5366  -12.1425   27.7213 C.ar    1  UNL1        0.1771
     14 C           5.2319  -12.0064   28.4488 C.ar    1  UNL1        0.0737
     15 C           4.2961  -13.0539   27.9219 C.ar    1  UNL1        0.1629
     16 O           5.0227  -13.8371   26.8689 O.2     1  UNL1       -0.3563
     17 N           6.4074  -13.2738   26.7450 N.ar    1  UNL1       -0.0621
     18 C           2.8822  -13.2785   28.3695 C.3     1  UNL1        0.1409
     19 C           3.0239  -12.1723   29.3725 C.3     1  UNL1        0.0162
     20 C           2.7405  -14.3848   27.3664 C.3     1  UNL1        0.0162
     21 C           1.4683  -13.5032   28.8170 C.3     1  UNL1        0.4035
     22 F           0.0544  -13.7278   29.2646 F       1  UNL1       -0.1696
     23 F           1.9106  -13.4347   30.2487 F       1  UNL1       -0.1696
     24 F           1.0260  -13.5717   27.3853 F       1  UNL1       -0.1696
     25 O           7.3621   -4.9910   24.9269 O.3     1  UNL1       -0.4360
     26 C           4.1821   -2.3355   21.4505 C.ar    1  UNL1        0.1739
     27 C           3.9911   -1.6697   22.7809 C.ar    1  UNL1        0.0593
     28 C           4.7384   -2.1671   23.9827 C.ar    1  UNL1        0.0908
     29 N           4.5474   -1.5013   25.3132 N.ar    1  UNL1       -0.2237
     30 C           5.2946   -1.9988   26.5149 C.ar    1  UNL1        0.2015
     31 N           6.2329   -3.1620   26.3861 N.ar    1  UNL1       -0.1890
     32 C           6.4239   -3.8278   25.0556 C.ar    1  UNL1        0.2325
     33 C           5.6766   -3.3303   23.8540 C.ar    1  UNL1        0.0745
     34 C           5.8676   -3.9961   22.5234 C.ar    1  UNL1        0.0462
     35 C           5.1204   -3.4987   21.3217 C.ar    1  UNL1        0.1726
     36 C           3.8737   -0.5795   19.5606 C.3     1  UNL1        0.2526
     37 O           3.4348   -1.8380   20.2487 O.3     1  UNL1       -0.4683
     38 O           5.3113   -4.1645   19.9911 O.3     1  UNL1       -0.4684
     39 C           4.2264   -5.0309   19.4234 C.3     1  UNL1        0.2526
@<TRIPOS>BOND
     1    36    37    1
     2    37    26    1
     3    26    27   ar
     4    27    28   ar
     5    28    29   ar
     6    29    30   ar
     7    30    31   ar
     8    31    32   ar
     9    32    25    1
    10    25     1    1
    11     1     2   ar
    12     2     3   ar
    13     3     4   ar
    14     4     5   ar
    15     5     7    1
    16     7     8   am
    17     8     9    2
    18     8    10   am
    19    10    13    1
    20    13    14   ar
    21    14    15   ar
    22    15    18    1
    23    18    19    1
    24    18    20    1
    25    18    21    1
    26    21    22    1
    27    21    23    1
    28    21    24    1
    29    15    16   ar
    30    16    17   ar
    31     5     6   ar
    32    32    33   ar
    33    33    34   ar
    34    34    35   ar
    35    35    38    1
    36    38    39    1
    37    35    26   ar
    38    33    28   ar
    39     6     1   ar
    40    17    13   ar
    41     7    11    1
    42    10    12    1
@<TRIPOS>MOLECULE
*****
 39 42 0 0 0
SMALL
GASTEIGER

@<TRIPOS>ATOM
      1 C           6.9092   -6.0248   26.3725 C.ar    1  UNL1        0.1484
      2 C           7.5074   -7.3840   26.1604 C.ar    1  UNL1        0.0376
      3 C           8.2881   -7.6734   24.9127 C.ar    1  UNL1        0.0044
      4 C           8.4707   -6.6038   23.8771 C.ar    1  UNL1        0.0149
      5 C           7.8725   -5.2447   24.0891 C.ar    1  UNL1        0.0546
      6 C           7.0918   -4.9552   25.3368 C.ar    1  UNL1        0.0522
      7 N           8.0550   -4.1750   23.0535 N.am    1  UNL1       -0.2679
      8 C           6.9312   -3.8353   22.1200 C.2     1  UNL1        0.3093
      9 O           5.6247   -4.5653   22.2221 O.2     1  UNL1       -0.2521
     10 N           7.1137   -2.7657   21.0844 N.am    1  UNL1       -0.2508
     11 H           8.9125   -3.6960   22.9865 H       1  UNL1        0.1564
     12 H           7.9712   -2.2866   21.0173 H       1  UNL1        0.1579
     13 C           5.9898   -2.4260   20.1508 C.ar    1  UNL1        0.1771
     14 C           4.9282   -1.3931   20.3882 C.ar    1  UNL1        0.0737
     15 C           4.0124   -1.3882   19.2001 C.ar    1  UNL1        0.1629
     16 O           4.5080   -2.4181   18.2286 O.2     1  UNL1       -0.3563
     17 N           5.7301   -3.0594   18.8162 N.ar    1  UNL1       -0.0621
     18 C           2.8118   -0.5081   19.0160 C.3     1  UNL1        0.1409
     19 C           2.2484   -1.0049   20.3143 C.3     1  UNL1        0.0162
     20 C           3.3752   -0.0113   17.7176 C.3     1  UNL1        0.0162
     21 C           1.6113    0.3721   18.8318 C.3     1  UNL1        0.4035
     22 F           0.4107    1.2522   18.6476 F       1  UNL1       -0.1696
     23 F           2.4210    1.2966   17.9719 F       1  UNL1       -0.1696
     24 F           0.8015   -0.5525   19.6917 F       1  UNL1       -0.1696
     25 O           6.1285   -5.7354   27.6201 O.3     1  UNL1       -0.4360
     26 C           6.5174   -0.9759   30.1591 C.ar    1  UNL1        0.1739
     27 C           7.3332   -1.9443   30.9632 C.ar    1  UNL1        0.0593
     28 C           7.4400   -3.3763   30.5295 C.ar    1  UNL1        0.0908
     29 N           8.2558   -4.3447   31.3337 N.ar    1  UNL1       -0.2237
     30 C           8.3625   -5.7766   30.9000 C.ar    1  UNL1        0.2015
     31 N           7.6534   -6.2402   29.6621 N.ar    1  UNL1       -0.1890
     32 C           6.8376   -5.2718   28.8580 C.ar    1  UNL1        0.2325
     33 C           6.7309   -3.8399   29.2917 C.ar    1  UNL1        0.0745
     34 C           5.9150   -2.8714   28.4875 C.ar    1  UNL1        0.0462
     35 C           5.8083   -1.4395   28.9212 C.ar    1  UNL1        0.1726
     36 C           5.2487    0.9014   31.4303 C.3     1  UNL1        0.2526
     37 O           6.4107    0.4561   30.5928 O.3     1  UNL1       -0.4683
     38 O           4.9925   -0.4711   28.1171 O.3     1  UNL1       -0.4684
     39 C           3.5461   -0.7570   27.8412 C.3     1  UNL1        0.2526
@<TRIPOS>BOND
     1    36    37    1
     2    37    26    1
     3    26    27   ar
     4    27    28   ar
     5    28    29   ar
     6    29    30   ar
     7    30    31   ar
     8    31    32   ar
     9    32    25    1
    10    25     1    1
    11     1     2   ar
    12     2     3   ar
    13     3     4   ar
    14     4     5   ar
    15     5     7    1
    16     7     8   am
    17     8     9    2
    18     8    10   am
    19    10    13    1
    20    13    14   ar
    21    14    15   ar
    22    15    18    1
    23    18    19    1
    24    18    20    1
    25    18    21    1
    26    21    22    1
    27    21    23    1
    28    21    24    1
    29    15    16   ar
    30    16    17   ar
    31     5     6   ar
    32    32    33   ar
    33    33    34   ar
    34    34    35   ar
    35    35    38    1
    36    38    39    1
    37    35    26   ar
    38    33    28   ar
    39     6     1   ar
    40    17    13   ar
    41     7    11    1
    42    10    12    1
@<TRIPOS>MOLECULE
*****
 39 42 0 0 0
SMALL
GASTEIGER

@<TRIPOS>ATOM
      1 C           6.6266   -2.8319   27.9237 C.ar    1  UNL1        0.1484
      2 C           6.4841   -4.1737   28.5791 C.ar    1  UNL1        0.0376
      3 C           6.5828   -5.4243   27.7569 C.ar    1  UNL1        0.0044
      4 C           6.8239   -5.3333   26.2792 C.ar    1  UNL1        0.0149
      5 C           6.9664   -3.9917   25.6237 C.ar    1  UNL1        0.0546
      6 C           6.8677   -2.7409   26.4460 C.ar    1  UNL1        0.0522
      7 N           7.2076   -3.9006   24.1460 N.am    1  UNL1       -0.2679
      8 C           6.0786   -3.5523   23.2219 C.2     1  UNL1        0.3093
      9 O           4.7084   -3.2949   23.7755 O.2     1  UNL1       -0.2521
     10 N           6.3197   -3.4613   21.7442 N.am    1  UNL1       -0.2508
     11 H           8.1068   -4.0696   23.7827 H       1  UNL1        0.1564
     12 H           7.2190   -3.6302   21.3809 H       1  UNL1        0.1579
     13 C           5.1907   -3.1129   20.8201 C.ar    1  UNL1        0.1771
     14 C           4.6123   -1.7447   20.6116 C.ar    1  UNL1        0.0737
     15 C           3.5059   -1.8577   19.6049 C.ar    1  UNL1        0.1629
     16 O           3.4007   -3.2957   19.1913 O.2     1  UNL1       -0.3563
     17 N           4.4419   -4.0714   19.9424 N.ar    1  UNL1       -0.0621
     18 C           2.6544   -0.7306   19.1004 C.3     1  UNL1        0.1409
     19 C           3.5653   -0.5710   17.9194 C.3     1  UNL1        0.0162
     20 C           1.7435   -0.8901   20.2814 C.3     1  UNL1        0.0162
     21 C           1.8029    0.3965   18.5959 C.3     1  UNL1        0.4035
     22 F           0.9513    1.5236   18.0914 F       1  UNL1       -0.1696
     23 F           0.6607   -0.0893   19.4382 F       1  UNL1       -0.1696
     24 F           2.9450    0.8824   17.7536 F       1  UNL1       -0.1696
     25 O           6.5279   -1.5813   28.7459 O.3     1  UNL1       -0.4360
     26 C           1.4773    0.2890   28.2529 C.ar    1  UNL1        0.1739
     27 C           1.6401   -0.0944   29.6939 C.ar    1  UNL1        0.0593
     28 C           2.9435   -0.6578   30.1774 C.ar    1  UNL1        0.0908
     29 N           3.1063   -1.0412   31.6184 N.ar    1  UNL1       -0.2237
     30 C           4.4097   -1.6046   32.1019 C.ar    1  UNL1        0.2015
     31 N           5.5502   -1.7847   31.1444 N.ar    1  UNL1       -0.1890
     32 C           5.3874   -1.4013   29.7034 C.ar    1  UNL1        0.2325
     33 C           4.0840   -0.8379   29.2199 C.ar    1  UNL1        0.0745
     34 C           3.9212   -0.4545   27.7789 C.ar    1  UNL1        0.0462
     35 C           2.6178    0.1090   27.2954 C.ar    1  UNL1        0.1726
     36 C          -1.1009    0.5125   28.4829 C.3     1  UNL1        0.2526
     37 O           0.1739    0.8525   27.7693 O.3     1  UNL1       -0.4683
     38 O           2.4550    0.4924   25.8543 O.3     1  UNL1       -0.4684
     39 C           3.2077   -0.2509   24.7908 C.3     1  UNL1        0.2526
@<TRIPOS>BOND
     1    36    37    1
     2    37    26    1
     3    26    27   ar
     4    27    28   ar
     5    28    29   ar
     6    29    30   ar
     7    30    31   ar
     8    31    32   ar
     9    32    25    1
    10    25     1    1
    11     1     2   ar
    12     2     3   ar
    13     3     4   ar
    14     4     5   ar
    15     5     7    1
    16     7     8   am
    17     8     9    2
    18     8    10   am
    19    10    13    1
    20    13    14   ar
    21    14    15   ar
    22    15    18    1
    23    18    19    1
    24    18    20    1
    25    18    21    1
    26    21    22    1
    27    21    23    1
    28    21    24    1
    29    15    16   ar
    30    16    17   ar
    31     5     6   ar
    32    32    33   ar
    33    33    34   ar
    34    34    35   ar
    35    35    38    1
    36    38    39    1
    37    35    26   ar
    38    33    28   ar
    39     6     1   ar
    40    17    13   ar
    41     7    11    1
    42    10    12    1
@<TRIPOS>MOLECULE
*****
 39 42 0 0 0
SMALL
GASTEIGER

@<TRIPOS>ATOM
      1 C           7.6031   -5.8688   24.3445 C.ar    1  UNL1        0.1484
      2 C           8.6617   -6.8650   23.9744 C.ar    1  UNL1        0.0376
      3 C           9.1874   -7.8189   25.0057 C.ar    1  UNL1        0.0044
      4 C           8.6545   -7.7766   26.4072 C.ar    1  UNL1        0.0149
      5 C           7.5960   -6.7804   26.7774 C.ar    1  UNL1        0.0546
      6 C           7.0702   -5.8265   25.7460 C.ar    1  UNL1        0.0522
      7 N           7.0631   -6.7381   28.1789 N.am    1  UNL1       -0.2679
      8 C           7.3262   -5.5425   29.0456 C.2     1  UNL1        0.3093
      9 O           8.1222   -4.3890   28.5107 O.2     1  UNL1       -0.2521
     10 N           6.7933   -5.5002   30.4471 N.am    1  UNL1       -0.2508
     11 H           6.5407   -7.4952   28.5300 H       1  UNL1        0.1564
     12 H           6.2709   -6.2572   30.7982 H       1  UNL1        0.1579
     13 C           7.0565   -4.3045   31.3138 C.ar    1  UNL1        0.1771
     14 C           6.0185   -3.3867   31.8886 C.ar    1  UNL1        0.0737
     15 C           6.7242   -2.3316   32.6878 C.ar    1  UNL1        0.1629
     16 O           8.1983   -2.5973   32.6069 O.2     1  UNL1       -0.3563
     17 N           8.4036   -3.8166   31.7577 N.ar    1  UNL1       -0.0621
     18 C           6.0707   -1.2080   33.4365 C.3     1  UNL1        0.1409
     19 C           7.3934   -0.5086   33.5415 C.3     1  UNL1        0.0162
     20 C           4.7479   -1.9075   33.3314 C.3     1  UNL1        0.0162
     21 C           5.4171   -0.0845   34.1851 C.3     1  UNL1        0.4035
     22 F           4.7635    1.0390   34.9338 F       1  UNL1       -0.1696
     23 F           4.7949   -1.0733   35.1259 F       1  UNL1       -0.1696
     24 F           6.0393    0.9043   33.2444 F       1  UNL1       -0.1696
     25 O           7.0774   -4.9149   23.3132 O.3     1  UNL1       -0.4360
     26 C           3.3017   -1.9488   20.8240 C.ar    1  UNL1        0.1739
     27 C           3.4225   -1.3898   22.2107 C.ar    1  UNL1        0.0593
     28 C           4.3967   -1.9915   23.1797 C.ar    1  UNL1        0.0908
     29 N           4.5176   -1.4325   24.5663 N.ar    1  UNL1       -0.2237
     30 C           5.4918   -2.0342   25.5352 C.ar    1  UNL1        0.2015
     31 N           6.3450   -3.1950   25.1175 N.ar    1  UNL1       -0.1890
     32 C           6.2242   -3.7541   23.7309 C.ar    1  UNL1        0.2325
     33 C           5.2500   -3.1523   22.7620 C.ar    1  UNL1        0.0745
     34 C           5.1291   -3.7114   21.3752 C.ar    1  UNL1        0.0462
     35 C           4.1549   -3.1096   20.4063 C.ar    1  UNL1        0.1726
     36 C           1.1532   -0.5630   20.3614 C.3     1  UNL1        0.2526
     37 O           2.3275   -1.3470   19.8550 O.3     1  UNL1       -0.4683
     38 O           4.0340   -3.6686   19.0196 O.3     1  UNL1       -0.4684
     39 C           4.5438   -5.0471   18.7196 C.3     1  UNL1        0.2526
@<TRIPOS>BOND
     1    36    37    1
     2    37    26    1
     3    26    27   ar
     4    27    28   ar
     5    28    29   ar
     6    29    30   ar
     7    30    31   ar
     8    31    32   ar
     9    32    25    1
    10    25     1    1
    11     1     2   ar
    12     2     3   ar
    13     3     4   ar
    14     4     5   ar
    15     5     7    1
    16     7     8   am
    17     8     9    2
    18     8    10   am
    19    10    13    1
    20    13    14   ar
    21    14    15   ar
    22    15    18    1
    23    18    19    1
    24    18    20    1
    25    18    21    1
    26    21    22    1
    27    21    23    1
    28    21    24    1
    29    15    16   ar
    30    16    17   ar
    31     5     6   ar
    32    32    33   ar
    33    33    34   ar
    34    34    35   ar
    35    35    38    1
    36    38    39    1
    37    35    26   ar
    38    33    28   ar
    39     6     1   ar
    40    17    13   ar
    41     7    11    1
    42    10    12    1
@<TRIPOS>MOLECULE
*****
 39 42 0 0 0
SMALL
GASTEIGER

@<TRIPOS>ATOM
      1 C           2.7452    0.0461   18.7175 C.ar    1  UNL1        0.1484
      2 C           4.0452    0.7866   18.6089 C.ar    1  UNL1        0.0376
      3 C           4.0510    2.2848   18.5357 C.ar    1  UNL1        0.0044
      4 C           2.7570    3.0425   18.5710 C.ar    1  UNL1        0.0149
      5 C           1.4570    2.3020   18.6796 C.ar    1  UNL1        0.0546
      6 C           1.4511    0.8038   18.7528 C.ar    1  UNL1        0.0522
      7 N           0.1629    3.0597   18.7149 N.am    1  UNL1       -0.2679
      8 C          -0.7886    2.8661   19.8581 C.2     1  UNL1        0.3093
      9 O          -0.4460    1.9148   20.9662 O.2     1  UNL1       -0.2521
     10 N          -2.0826    3.6238   19.8935 N.am    1  UNL1       -0.2508
     11 H          -0.0619    3.6841   17.9877 H       1  UNL1        0.1564
     12 H          -2.3075    4.2482   19.1663 H       1  UNL1        0.1579
     13 C          -3.0342    3.4302   21.0368 C.ar    1  UNL1        0.1771
     14 C          -2.8244    3.8965   22.4470 C.ar    1  UNL1        0.0737
     15 C          -4.0231    3.4907   23.2524 C.ar    1  UNL1        0.1629
     16 O          -4.9736    2.7736   22.3400 O.2     1  UNL1       -0.3563
     17 N          -4.3623    2.7362   20.9707 N.ar    1  UNL1       -0.0621
     18 C          -4.2342    3.7555   24.7137 C.3     1  UNL1        0.1409
     19 C          -2.7707    3.5421   24.9638 C.3     1  UNL1        0.0162
     20 C          -5.6977    3.9690   24.4636 C.3     1  UNL1        0.0162
     21 C          -4.4453    4.0203   26.1750 C.3     1  UNL1        0.4035
     22 F          -4.6564    4.2851   27.6362 F       1  UNL1       -0.1696
     23 F          -3.0994    3.4306   26.4763 F       1  UNL1       -0.1696
     24 F          -5.7912    4.6101   25.8736 F       1  UNL1       -0.1696
     25 O           2.7394   -1.4521   18.7908 O.3     1  UNL1       -0.4360
     26 C           3.8435   -1.3623   24.0844 C.ar    1  UNL1        0.1739
     27 C           4.8026   -2.3421   23.4760 C.ar    1  UNL1        0.0593
     28 C           4.7663   -2.6095   22.0004 C.ar    1  UNL1        0.0908
     29 N           5.7253   -3.5893   21.3919 N.ar    1  UNL1       -0.2237
     30 C           5.6890   -3.8567   19.9164 C.ar    1  UNL1        0.2015
     31 N           4.6937   -3.1443   19.0494 N.ar    1  UNL1       -0.1890
     32 C           3.7347   -2.1645   19.6578 C.ar    1  UNL1        0.2325
     33 C           3.7710   -1.8971   21.1333 C.ar    1  UNL1        0.0745
     34 C           2.8119   -0.9173   21.7418 C.ar    1  UNL1        0.0462
     35 C           2.8482   -0.6499   23.2173 C.ar    1  UNL1        0.1726
     36 C           5.0341   -1.5854   26.3829 C.3     1  UNL1        0.2526
     37 O           3.8798   -1.0949   25.5600 O.3     1  UNL1       -0.4683
     38 O           1.8891    0.3299   23.8259 O.3     1  UNL1       -0.4684
     39 C           2.3317    1.7346   24.1103 C.3     1  UNL1        0.2526
@<TRIPOS>BOND
     1    36    37    1
     2    37    26    1
     3    26    27   ar
     4    27    28   ar
     5    28    29   ar
     6    29    30   ar
     7    30    31   ar
     8    31    32   ar
     9    32    25    1
    10    25     1    1
    11     1     2   ar
    12     2     3   ar
    13     3     4   ar
    14     4     5   ar
    15     5     7    1
    16     7     8   am
    17     8     9    2
    18     8    10   am
    19    10    13    1
    20    13    14   ar
    21    14    15   ar
    22    15    18    1
    23    18    19    1
    24    18    20    1
    25    18    21    1
    26    21    22    1
    27    21    23    1
    28    21    24    1
    29    15    16   ar
    30    16    17   ar
    31     5     6   ar
    32    32    33   ar
    33    33    34   ar
    34    34    35   ar
    35    35    38    1
    36    38    39    1
    37    35    26   ar
    38    33    28   ar
    39     6     1   ar
    40    17    13   ar
    41     7    11    1
    42    10    12    1
@<TRIPOS>MOLECULE
*****
 39 42 0 0 0
SMALL
GASTEIGER

@<TRIPOS>ATOM
      1 C           4.8285   -2.7715   18.7712 C.ar    1  UNL1        0.1484
      2 C           4.1753   -4.1218   18.7614 C.ar    1  UNL1        0.0376
      3 C           3.9299   -4.8456   20.0521 C.ar    1  UNL1        0.0044
      4 C           4.3376   -4.2191   21.3526 C.ar    1  UNL1        0.0149
      5 C           4.9907   -2.8688   21.3624 C.ar    1  UNL1        0.0546
      6 C           5.2362   -2.1450   20.0717 C.ar    1  UNL1        0.0522
      7 N           5.3984   -2.2424   22.6629 N.am    1  UNL1       -0.2679
      8 C           4.4207   -1.4022   23.4298 C.2     1  UNL1        0.3093
      9 O           3.0351   -1.1885   22.8962 O.2     1  UNL1       -0.2521
     10 N           4.8284   -0.7757   24.7303 N.am    1  UNL1       -0.2508
     11 H           6.3078   -2.3826   23.0131 H       1  UNL1        0.1564
     12 H           5.7377   -0.9159   25.0805 H       1  UNL1        0.1579
     13 C           3.8506    0.0645   25.4971 C.ar    1  UNL1        0.1771
     14 C           2.7858   -0.4454   26.4225 C.ar    1  UNL1        0.0737
     15 C           2.0430    0.7370   26.9706 C.ar    1  UNL1        0.1629
     16 O           2.6487    1.9775   26.3838 O.2     1  UNL1       -0.3563
     17 N           3.7658    1.5618   25.4732 N.ar    1  UNL1       -0.0621
     18 C           0.8959    0.6875   27.9359 C.3     1  UNL1        0.1409
     19 C           1.6977   -0.1979   28.8432 C.3     1  UNL1        0.0162
     20 C           0.0942    1.5729   27.0285 C.3     1  UNL1        0.0162
     21 C          -0.2511    0.6380   28.9011 C.3     1  UNL1        0.4035
     22 F          -1.3982    0.5885   29.8664 F       1  UNL1       -0.1696
     23 F           0.2766    1.8610   29.5909 F       1  UNL1       -0.1696
     24 F          -0.7788   -0.5850   28.2114 F       1  UNL1       -0.1696
     25 O           5.0739   -2.0477   17.4805 O.3     1  UNL1       -0.4360
     26 C           2.3587    2.4981   18.5820 C.ar    1  UNL1        0.1739
     27 C           3.7547    2.9215   18.2332 C.ar    1  UNL1        0.0593
     28 C           4.7826    1.8909   17.8706 C.ar    1  UNL1        0.0908
     29 N           6.1787    2.3143   17.5218 N.ar    1  UNL1       -0.2237
     30 C           7.2065    1.2838   17.1593 C.ar    1  UNL1        0.2015
     31 N           6.8382   -0.1703   17.1455 N.ar    1  UNL1       -0.1890
     32 C           5.4421   -0.5937   17.4943 C.ar    1  UNL1        0.2325
     33 C           4.4144    0.4369   17.8569 C.ar    1  UNL1        0.0745
     34 C           3.0182    0.0135   18.2057 C.ar    1  UNL1        0.0462
     35 C           1.9904    1.0441   18.5682 C.ar    1  UNL1        0.1726
     36 C           0.3407    3.9938   17.9183 C.3     1  UNL1        0.2526
     37 O           1.3308    3.5287   18.9446 O.3     1  UNL1       -0.4683
     38 O           0.5943    0.6206   18.9171 O.3     1  UNL1       -0.4684
     39 C           0.1719    0.5405   20.3541 C.3     1  UNL1        0.2526
@<TRIPOS>BOND
     1    36    37    1
     2    37    26    1
     3    26    27   ar
     4    27    28   ar
     5    28    29   ar
     6    29    30   ar
     7    30    31   ar
     8    31    32   ar
     9    32    25    1
    10    25     1    1
    11     1     2   ar
    12     2     3   ar
    13     3     4   ar
    14     4     5   ar
    15     5     7    1
    16     7     8   am
    17     8     9    2
    18     8    10   am
    19    10    13    1
    20    13    14   ar
    21    14    15   ar
    22    15    18    1
    23    18    19    1
    24    18    20    1
    25    18    21    1
    26    21    22    1
    27    21    23    1
    28    21    24    1
    29    15    16   ar
    30    16    17   ar
    31     5     6   ar
    32    32    33   ar
    33    33    34   ar
    34    34    35   ar
    35    35    38    1
    36    38    39    1
    37    35    26   ar
    38    33    28   ar
    39     6     1   ar
    40    17    13   ar
    41     7    11    1
    42    10    12    1
