@<TRIPOS>MOLECULE
*****
 35 37 0 0 0
SMALL
GASTEIGER

@<TRIPOS>ATOM
      1 C          -7.9560  -18.7358   22.1706 C.2     1  UNL1        0.2270
      2 O          -7.7831  -17.3665   21.5831 O.2     1  UNL1       -0.2748
      3 N          -9.0312  -18.9859   23.1861 N.am    1  UNL1       -0.2794
      4 C          -9.3225  -20.2953   23.8576 C.3     1  UNL1        0.0935
      5 C         -10.4753  -20.0892   24.7949 C.3     1  UNL1        0.0233
      6 C         -10.8965  -18.6526   24.7028 C.3     1  UNL1        0.0233
      7 C         -10.0041  -17.9707   23.7086 C.3     1  UNL1        0.0949
      8 C          -7.0536  -19.8549   21.7427 C.3     1  UNL1        0.1010
      9 N          -6.9352  -19.0345   19.2803 N.3     1  UNL1       -0.3215
     10 C          -6.3237  -19.7714   20.4349 C.3     1  UNL1        0.0644
     11 H          -7.8405  -18.6565   19.5594 H       1  UNL1        0.1188
     12 H          -7.0611  -19.6750   18.4965 H       1  UNL1        0.1188
     13 C          -4.9822  -20.4248   20.2816 C.3     1  UNL1        0.0447
     14 C          -3.7365  -19.5892   20.2814 C.ar    1  UNL1        0.0090
     15 C          -3.1944  -19.0515   18.9904 C.ar    1  UNL1        0.0300
     16 C          -1.9487  -18.2159   18.9902 C.ar    1  UNL1        0.1672
     17 F          -1.4064  -17.6781   17.6991 F       1  UNL1       -0.2018
     18 C          -1.2452  -17.9180   20.2810 C.ar    1  UNL1        0.1696
     19 F           0.0005  -17.0824   20.2808 F       1  UNL1       -0.2017
     20 C          -1.7873  -18.4557   21.5721 C.ar    1  UNL1        0.0612
     21 C          -3.0330  -19.2913   21.5723 C.ar    1  UNL1        0.1386
     22 F          -3.5753  -19.8291   22.8633 F       1  UNL1       -0.2044
     23 C         -10.0724  -16.5270   23.3071 C.3     1  UNL1        0.1093
     24 N          -9.6235  -15.4609   24.2621 N.pl3   1  UNL1       -0.3013
     25 H         -10.2320  -14.7240   24.4987 H       1  UNL1        0.1497
     26 C          -8.2475  -15.5177   24.8567 C.ar    1  UNL1        0.2169
     27 N          -8.0675  -15.4136   26.3422 N.ar    1  UNL1       -0.2123
     28 C          -6.6915  -15.4703   26.9367 C.ar    1  UNL1        0.1033
     29 C          -5.4956  -15.6311   26.0457 C.ar    1  UNL1        0.0439
     30 C          -5.6756  -15.7352   24.5603 C.ar    1  UNL1        0.1570
     31 N          -7.0515  -15.6785   23.9657 N.ar    1  UNL1       -0.2098
     32 C          -4.4796  -15.8960   23.6693 C.3     1  UNL1        0.4350
     33 F          -3.2837  -16.0568   22.7783 F       1  UNL1       -0.1644
     34 F          -4.7423  -14.5450   23.0729 F       1  UNL1       -0.1644
     35 F          -4.2170  -17.2471   24.2657 F       1  UNL1       -0.1644
@<TRIPOS>BOND
     1    10     9    1
     2    10     8    1
     3     8     1    1
     4     1     2    2
     5     1     3   am
     6     3     4    1
     7     4     5    1
     8     5     6    1
     9     6     7    1
    10     7    23    1
    11    23    24    1
    12    24    26    1
    13    26    27   ar
    14    27    28   ar
    15    28    29   ar
    16    29    30   ar
    17    30    32    1
    18    32    33    1
    19    32    34    1
    20    32    35    1
    21    30    31   ar
    22    10    13    1
    23    13    14    1
    24    14    15   ar
    25    15    16   ar
    26    16    17    1
    27    16    18   ar
    28    18    19    1
    29    18    20   ar
    30    20    21   ar
    31    21    22    1
    32     7     3    1
    33    31    26   ar
    34    21    14   ar
    35     9    11    1
    36     9    12    1
    37    24    25    1
@<TRIPOS>MOLECULE
*****
 35 37 0 0 0
SMALL
GASTEIGER

@<TRIPOS>ATOM
      1 C          -7.6885  -18.9156   21.7403 C.2     1  UNL1        0.2270
      2 O          -7.3640  -17.7954   20.7969 O.2     1  UNL1       -0.2748
      3 N          -8.8986  -18.8266   22.6222 N.am    1  UNL1       -0.2794
      4 C          -9.3478  -19.8624   23.6100 C.3     1  UNL1        0.0935
      5 C         -10.5988  -19.3622   24.2694 C.3     1  UNL1        0.0233
      6 C         -10.9228  -18.0174   23.6893 C.3     1  UNL1        0.0233
      7 C          -9.8720  -17.6864   22.6713 C.3     1  UNL1        0.0949
      8 C          -6.8029  -20.1247   21.8018 C.3     1  UNL1        0.1010
      9 N          -6.9747  -20.9092   19.3310 N.3     1  UNL1       -0.3215
     10 C          -6.1490  -20.6396   20.5539 C.3     1  UNL1        0.0644
     11 H          -7.9516  -20.6889   19.5249 H       1  UNL1        0.1188
     12 H          -6.8924  -21.8932   19.0753 H       1  UNL1        0.1188
     13 C          -4.6695  -20.8850   20.5289 C.3     1  UNL1        0.0447
     14 C          -3.7172  -19.7263   20.5085 C.ar    1  UNL1        0.0090
     15 C          -3.1225  -19.2670   19.2103 C.ar    1  UNL1        0.0300
     16 C          -2.1703  -18.1082   19.1899 C.ar    1  UNL1        0.1672
     17 F          -1.5755  -17.6489   17.8917 F       1  UNL1       -0.2018
     18 C          -1.8127  -17.4087   20.4677 C.ar    1  UNL1        0.1696
     19 F          -0.8605  -16.2500   20.4474 F       1  UNL1       -0.2017
     20 C          -2.4074  -17.8680   21.7660 C.ar    1  UNL1        0.0612
     21 C          -3.3597  -19.0268   21.7863 C.ar    1  UNL1        0.1386
     22 F          -3.9544  -19.4861   23.0845 F       1  UNL1       -0.2044
     23 C          -9.8062  -16.4349   21.8470 C.3     1  UNL1        0.1093
     24 N          -8.6158  -15.5285   21.9534 N.pl3   1  UNL1       -0.3013
     25 H          -8.3830  -14.9317   21.2058 H       1  UNL1        0.1497
     26 C          -7.7799  -15.5313   23.1990 C.ar    1  UNL1        0.2169
     27 N          -6.2985  -15.3143   23.1086 N.ar    1  UNL1       -0.2123
     28 C          -5.4627  -15.3172   24.3541 C.ar    1  UNL1        0.1033
     29 C          -6.1083  -15.5370   25.6901 C.ar    1  UNL1        0.0439
     30 C          -7.5898  -15.7541   25.7805 C.ar    1  UNL1        0.1570
     31 N          -8.4256  -15.7512   24.5350 N.ar    1  UNL1       -0.2098
     32 C          -8.2354  -15.9739   27.1165 C.3     1  UNL1        0.4350
     33 F          -8.8811  -16.1938   28.4524 F       1  UNL1       -0.1644
     34 F          -8.8972  -17.2139   26.5926 F       1  UNL1       -0.1644
     35 F          -7.5737  -14.7339   27.6404 F       1  UNL1       -0.1644
@<TRIPOS>BOND
     1    10     9    1
     2    10     8    1
     3     8     1    1
     4     1     2    2
     5     1     3   am
     6     3     4    1
     7     4     5    1
     8     5     6    1
     9     6     7    1
    10     7    23    1
    11    23    24    1
    12    24    26    1
    13    26    27   ar
    14    27    28   ar
    15    28    29   ar
    16    29    30   ar
    17    30    32    1
    18    32    33    1
    19    32    34    1
    20    32    35    1
    21    30    31   ar
    22    10    13    1
    23    13    14    1
    24    14    15   ar
    25    15    16   ar
    26    16    17    1
    27    16    18   ar
    28    18    19    1
    29    18    20   ar
    30    20    21   ar
    31    21    22    1
    32     7     3    1
    33    31    26   ar
    34    21    14   ar
    35     9    11    1
    36     9    12    1
    37    24    25    1
@<TRIPOS>MOLECULE
*****
 35 37 0 0 0
SMALL
GASTEIGER

@<TRIPOS>ATOM
      1 C          -8.8243  -17.2922   24.6391 C.2     1  UNL1        0.2270
      2 O          -8.4632  -17.5592   23.2079 O.2     1  UNL1       -0.2748
      3 N          -7.9131  -16.4701   25.5016 N.am    1  UNL1       -0.2794
      4 C          -8.1404  -16.1214   26.9428 C.3     1  UNL1        0.0935
      5 C          -6.9824  -15.2881   27.4063 C.3     1  UNL1        0.0233
      6 C          -6.0395  -15.1218   26.2517 C.3     1  UNL1        0.0233
      7 C          -6.6146  -15.8523   25.0746 C.3     1  UNL1        0.0949
      8 C         -10.0964  -17.8472   25.2078 C.3     1  UNL1        0.1010
      9 N          -9.9286  -20.4352   25.3639 N.3     1  UNL1       -0.3215
     10 C         -10.5731  -19.2073   24.7920 C.3     1  UNL1        0.0644
     11 H          -9.1911  -20.1611   26.0130 H       1  UNL1        0.1188
     12 H          -9.5277  -20.9917   24.6090 H       1  UNL1        0.1188
     13 C         -11.6943  -19.3397   23.8044 C.3     1  UNL1        0.0447
     14 C         -11.6811  -18.5302   22.5417 C.ar    1  UNL1        0.0090
     15 C         -10.8236  -18.9558   21.3869 C.ar    1  UNL1        0.0300
     16 C         -10.8103  -18.1463   20.1242 C.ar    1  UNL1        0.1672
     17 F          -9.9529  -18.5718   18.9693 F       1  UNL1       -0.2018
     18 C         -11.6546  -16.9111   20.0163 C.ar    1  UNL1        0.1696
     19 F         -11.6413  -16.1016   18.7536 F       1  UNL1       -0.2017
     20 C         -12.5120  -16.4855   21.1711 C.ar    1  UNL1        0.0612
     21 C         -12.5253  -17.2950   22.4338 C.ar    1  UNL1        0.1386
     22 F         -13.3827  -16.8694   23.5886 F       1  UNL1       -0.2044
     23 C          -5.9994  -15.9482   23.7099 C.3     1  UNL1        0.1093
     24 N          -4.5189  -16.1415   23.5665 N.pl3   1  UNL1       -0.3013
     25 H          -3.8967  -15.4874   23.9592 H       1  UNL1        0.1497
     26 C          -3.9862  -17.3317   22.8249 C.ar    1  UNL1        0.2169
     27 N          -2.5078  -17.5776   22.7643 N.ar    1  UNL1       -0.2123
     28 C          -1.9752  -18.7676   22.0227 C.ar    1  UNL1        0.1033
     29 C          -2.9211  -19.7118   21.3416 C.ar    1  UNL1        0.0439
     30 C          -4.3995  -19.4658   21.4021 C.ar    1  UNL1        0.1570
     31 N          -4.9321  -18.2758   22.1437 N.ar    1  UNL1       -0.2098
     32 C          -5.3454  -20.4100   20.7209 C.3     1  UNL1        0.4350
     33 F          -6.2913  -21.3541   20.0398 F       1  UNL1       -0.1644
     34 F          -4.2788  -20.7611   19.7264 F       1  UNL1       -0.1644
     35 F          -6.4120  -20.0589   21.7155 F       1  UNL1       -0.1644
@<TRIPOS>BOND
     1    10     9    1
     2    10     8    1
     3     8     1    1
     4     1     2    2
     5     1     3   am
     6     3     4    1
     7     4     5    1
     8     5     6    1
     9     6     7    1
    10     7    23    1
    11    23    24    1
    12    24    26    1
    13    26    27   ar
    14    27    28   ar
    15    28    29   ar
    16    29    30   ar
    17    30    32    1
    18    32    33    1
    19    32    34    1
    20    32    35    1
    21    30    31   ar
    22    10    13    1
    23    13    14    1
    24    14    15   ar
    25    15    16   ar
    26    16    17    1
    27    16    18   ar
    28    18    19    1
    29    18    20   ar
    30    20    21   ar
    31    21    22    1
    32     7     3    1
    33    31    26   ar
    34    21    14   ar
    35     9    11    1
    36     9    12    1
    37    24    25    1
@<TRIPOS>MOLECULE
*****
 35 37 0 0 0
SMALL
GASTEIGER

@<TRIPOS>ATOM
      1 C          -8.6935  -17.2859   24.6379 C.2     1  UNL1        0.2270
      2 O          -8.2461  -17.6689   23.2584 O.2     1  UNL1       -0.2748
      3 N          -7.8094  -16.4396   25.5052 N.am    1  UNL1       -0.2794
      4 C          -8.1207  -15.9797   26.8987 C.3     1  UNL1        0.0935
      5 C          -6.9624  -15.1605   27.3859 C.3     1  UNL1        0.0233
      6 C          -5.9353  -15.1141   26.2937 C.3     1  UNL1        0.0233
      7 C          -6.4588  -15.9047   25.1314 C.3     1  UNL1        0.0949
      8 C         -10.0250  -17.7492   25.1502 C.3     1  UNL1        0.1010
      9 N          -9.9245  -20.3361   25.3696 N.3     1  UNL1       -0.3215
     10 C         -10.5426  -19.1059   24.7740 C.3     1  UNL1        0.0644
     11 H          -9.1724  -20.0659   26.0035 H       1  UNL1        0.1188
     12 H          -9.5472  -20.9218   24.6245 H       1  UNL1        0.1188
     13 C         -11.6782  -19.2325   23.8024 C.3     1  UNL1        0.0447
     14 C         -11.6542  -18.4615   22.5159 C.ar    1  UNL1        0.0090
     15 C         -10.7815  -18.9176   21.3844 C.ar    1  UNL1        0.0300
     16 C         -10.7575  -18.1466   20.0979 C.ar    1  UNL1        0.1672
     17 F          -9.8848  -18.6027   18.9663 F       1  UNL1       -0.2018
     18 C         -11.6060  -16.9194   19.9430 C.ar    1  UNL1        0.1696
     19 F         -11.5820  -16.1484   18.6566 F       1  UNL1       -0.2017
     20 C         -12.4787  -16.4633   21.0746 C.ar    1  UNL1        0.0612
     21 C         -12.5027  -17.2343   22.3610 C.ar    1  UNL1        0.1386
     22 F         -13.3753  -16.7782   23.4926 F       1  UNL1       -0.2044
     23 C          -5.7552  -16.1221   23.8245 C.3     1  UNL1        0.1093
     24 N          -4.6046  -17.0809   23.7427 N.pl3   1  UNL1       -0.3013
     25 H          -3.9582  -17.1386   24.4830 H       1  UNL1        0.1497
     26 C          -4.4388  -17.9521   22.5328 C.ar    1  UNL1        0.2169
     27 N          -5.3206  -19.1509   22.3452 N.ar    1  UNL1       -0.2123
     28 C          -5.1548  -20.0219   21.1354 C.ar    1  UNL1        0.1033
     29 C          -4.1072  -19.6941   20.1131 C.ar    1  UNL1        0.0439
     30 C          -3.2254  -18.4953   20.3007 C.ar    1  UNL1        0.1570
     31 N          -3.3912  -17.6243   21.5105 N.ar    1  UNL1       -0.2098
     32 C          -2.1778  -18.1675   19.2784 C.3     1  UNL1        0.4350
     33 F          -1.1302  -17.8397   18.2561 F       1  UNL1       -0.1644
     34 F          -3.1651  -17.3125   18.5407 F       1  UNL1       -0.1644
     35 F          -1.1904  -19.0225   20.0160 F       1  UNL1       -0.1644
@<TRIPOS>BOND
     1    10     9    1
     2    10     8    1
     3     8     1    1
     4     1     2    2
     5     1     3   am
     6     3     4    1
     7     4     5    1
     8     5     6    1
     9     6     7    1
    10     7    23    1
    11    23    24    1
    12    24    26    1
    13    26    27   ar
    14    27    28   ar
    15    28    29   ar
    16    29    30   ar
    17    30    32    1
    18    32    33    1
    19    32    34    1
    20    32    35    1
    21    30    31   ar
    22    10    13    1
    23    13    14    1
    24    14    15   ar
    25    15    16   ar
    26    16    17    1
    27    16    18   ar
    28    18    19    1
    29    18    20   ar
    30    20    21   ar
    31    21    22    1
    32     7     3    1
    33    31    26   ar
    34    21    14   ar
    35     9    11    1
    36     9    12    1
    37    24    25    1
@<TRIPOS>MOLECULE
*****
 35 37 0 0 0
SMALL
GASTEIGER

@<TRIPOS>ATOM
      1 C          -8.6128  -16.3566   23.9576 C.2     1  UNL1        0.2270
      2 O          -8.1394  -16.3122   22.5350 O.2     1  UNL1       -0.2748
      3 N          -7.6917  -15.9455   25.0678 N.am    1  UNL1       -0.2794
      4 C          -8.0229  -15.9373   26.5308 C.3     1  UNL1        0.0935
      5 C          -6.8135  -15.4572   27.2771 C.3     1  UNL1        0.0233
      6 C          -5.7349  -15.1686   26.2754 C.3     1  UNL1        0.0233
      7 C          -6.2777  -15.4704   24.9100 C.3     1  UNL1        0.0949
      8 C         -10.0074  -16.8120   24.2701 C.3     1  UNL1        0.1010
      9 N          -9.9237  -18.8726   25.8503 N.3     1  UNL1       -0.3215
     10 C         -10.2823  -18.2640   24.5270 C.3     1  UNL1        0.0644
     11 H          -9.5062  -18.1608   26.4498 H       1  UNL1        0.1188
     12 H          -9.2562  -19.6302   25.7063 H       1  UNL1        0.1188
     13 C         -10.9158  -19.1076   23.4606 C.3     1  UNL1        0.0447
     14 C         -10.2716  -19.2186   22.1106 C.ar    1  UNL1        0.0090
     15 C          -8.8281  -19.6106   21.9984 C.ar    1  UNL1        0.0300
     16 C          -8.1838  -19.7216   20.6484 C.ar    1  UNL1        0.1672
     17 F          -6.7403  -20.1137   20.5360 F       1  UNL1       -0.2018
     18 C          -8.9831  -19.4405   19.4105 C.ar    1  UNL1        0.1696
     19 F          -8.3388  -19.5515   18.0605 F       1  UNL1       -0.2017
     20 C         -10.4266  -19.0485   19.5227 C.ar    1  UNL1        0.0612
     21 C         -11.0708  -18.9375   20.8728 C.ar    1  UNL1        0.1386
     22 F         -12.5143  -18.5455   20.9851 F       1  UNL1       -0.2044
     23 C          -5.5366  -15.3230   23.6141 C.3     1  UNL1        0.1093
     24 N          -4.1036  -15.7552   23.5164 N.pl3   1  UNL1       -0.3013
     25 H          -3.4011  -15.2374   23.9720 H       1  UNL1        0.1497
     26 C          -3.7409  -16.9764   22.7244 C.ar    1  UNL1        0.2169
     27 N          -4.2967  -18.3144   23.1125 N.ar    1  UNL1       -0.2123
     28 C          -3.9340  -19.5355   22.3205 C.ar    1  UNL1        0.1033
     29 C          -3.0155  -19.4186   21.1404 C.ar    1  UNL1        0.0439
     30 C          -2.4596  -18.0806   20.7523 C.ar    1  UNL1        0.1570
     31 N          -2.8223  -16.8595   21.5443 N.ar    1  UNL1       -0.2098
     32 C          -1.5411  -17.9637   19.5722 C.3     1  UNL1        0.4350
     33 F          -0.6225  -17.8468   18.3922 F       1  UNL1       -0.1644
     34 F          -0.6928  -16.9854   20.3295 F       1  UNL1       -0.1644
     35 F          -2.3893  -18.9420   18.8150 F       1  UNL1       -0.1644
@<TRIPOS>BOND
     1    10     9    1
     2    10     8    1
     3     8     1    1
     4     1     2    2
     5     1     3   am
     6     3     4    1
     7     4     5    1
     8     5     6    1
     9     6     7    1
    10     7    23    1
    11    23    24    1
    12    24    26    1
    13    26    27   ar
    14    27    28   ar
    15    28    29   ar
    16    29    30   ar
    17    30    32    1
    18    32    33    1
    19    32    34    1
    20    32    35    1
    21    30    31   ar
    22    10    13    1
    23    13    14    1
    24    14    15   ar
    25    15    16   ar
    26    16    17    1
    27    16    18   ar
    28    18    19    1
    29    18    20   ar
    30    20    21   ar
    31    21    22    1
    32     7     3    1
    33    31    26   ar
    34    21    14   ar
    35     9    11    1
    36     9    12    1
    37    24    25    1
@<TRIPOS>MOLECULE
*****
 35 37 0 0 0
SMALL
GASTEIGER

@<TRIPOS>ATOM
      1 C          -8.5159  -17.4770   24.3566 C.2     1  UNL1        0.2270
      2 O          -7.9032  -17.8606   23.0422 O.2     1  UNL1       -0.2748
      3 N          -7.7760  -16.5673   25.2920 N.am    1  UNL1       -0.2794
      4 C          -8.2592  -16.0992   26.6327 C.3     1  UNL1        0.0935
      5 C          -7.2048  -15.2085   27.2203 C.3     1  UNL1        0.0233
      6 C          -6.0701  -15.1263   26.2427 C.3     1  UNL1        0.0233
      7 C          -6.4231  -15.9660   25.0510 C.3     1  UNL1        0.0949
      8 C          -9.8686  -18.0031   24.7355 C.3     1  UNL1        0.1010
      9 N         -10.0187  -20.4972   25.4474 N.3     1  UNL1       -0.3215
     10 C         -10.2355  -19.4235   24.4227 C.3     1  UNL1        0.0644
     11 H          -9.6176  -20.0865   26.2906 H       1  UNL1        0.1188
     12 H          -9.3798  -21.1993   25.0743 H       1  UNL1        0.1188
     13 C         -10.8192  -19.7702   23.0851 C.3     1  UNL1        0.0447
     14 C         -11.2040  -18.6801   22.1293 C.ar    1  UNL1        0.0090
     15 C         -11.9913  -17.4997   22.6157 C.ar    1  UNL1        0.0300
     16 C         -12.3762  -16.4096   21.6598 C.ar    1  UNL1        0.1672
     17 F         -13.1635  -15.2290   22.1461 F       1  UNL1       -0.2018
     18 C         -11.9736  -16.5000   20.2177 C.ar    1  UNL1        0.1696
     19 F         -12.3585  -15.4099   19.2618 F       1  UNL1       -0.2017
     20 C         -11.1863  -17.6805   19.7313 C.ar    1  UNL1        0.0612
     21 C         -10.8015  -18.7705   20.6872 C.ar    1  UNL1        0.1386
     22 F         -10.0141  -19.9510   20.2009 F       1  UNL1       -0.2044
     23 C          -5.5725  -16.1689   23.8322 C.3     1  UNL1        0.1093
     24 N          -4.6680  -17.3618   23.7390 N.pl3   1  UNL1       -0.3013
     25 H          -4.4367  -17.8688   24.5506 H       1  UNL1        0.1497
     26 C          -4.1158  -17.7823   22.4091 C.ar    1  UNL1        0.2169
     27 N          -4.9558  -18.5992   21.4727 N.ar    1  UNL1       -0.2123
     28 C          -4.4037  -19.0197   20.1429 C.ar    1  UNL1        0.1033
     29 C          -3.0115  -18.6232   19.7496 C.ar    1  UNL1        0.0439
     30 C          -2.1714  -17.8064   20.6861 C.ar    1  UNL1        0.1570
     31 N          -2.7236  -17.3859   22.0159 N.ar    1  UNL1       -0.2098
     32 C          -0.7792  -17.4100   20.2929 C.3     1  UNL1        0.4350
     33 F           0.6129  -17.0136   19.8996 F       1  UNL1       -0.1644
     34 F          -0.5648  -18.7649   19.6861 F       1  UNL1       -0.1644
     35 F          -0.9937  -16.0550   20.8996 F       1  UNL1       -0.1644
@<TRIPOS>BOND
     1    10     9    1
     2    10     8    1
     3     8     1    1
     4     1     2    2
     5     1     3   am
     6     3     4    1
     7     4     5    1
     8     5     6    1
     9     6     7    1
    10     7    23    1
    11    23    24    1
    12    24    26    1
    13    26    27   ar
    14    27    28   ar
    15    28    29   ar
    16    29    30   ar
    17    30    32    1
    18    32    33    1
    19    32    34    1
    20    32    35    1
    21    30    31   ar
    22    10    13    1
    23    13    14    1
    24    14    15   ar
    25    15    16   ar
    26    16    17    1
    27    16    18   ar
    28    18    19    1
    29    18    20   ar
    30    20    21   ar
    31    21    22    1
    32     7     3    1
    33    31    26   ar
    34    21    14   ar
    35     9    11    1
    36     9    12    1
    37    24    25    1
@<TRIPOS>MOLECULE
*****
 35 37 0 0 0
SMALL
GASTEIGER

@<TRIPOS>ATOM
      1 C          -8.6899  -17.4168   24.3664 C.2     1  UNL1        0.2270
      2 O          -8.2137  -17.6083   22.9569 O.2     1  UNL1       -0.2748
      3 N          -7.9019  -16.5627   25.3148 N.am    1  UNL1       -0.2794
      4 C          -8.2518  -16.2808   26.7460 C.3     1  UNL1        0.0935
      5 C          -7.1918  -15.3844   27.3143 C.3     1  UNL1        0.0233
      6 C          -6.1869  -15.1123   26.2345 C.3     1  UNL1        0.0233
      7 C          -6.6258  -15.8405   24.9987 C.3     1  UNL1        0.0949
      8 C          -9.9542  -18.0795   24.8274 C.3     1  UNL1        0.1010
      9 N         -10.1018  -20.5963   25.4549 N.3     1  UNL1       -0.3215
     10 C         -10.2405  -19.5001   24.4404 C.3     1  UNL1        0.0644
     11 H          -9.8072  -20.1989   26.3468 H       1  UNL1        0.1188
     12 H          -9.4048  -21.2690   25.1355 H       1  UNL1        0.1188
     13 C         -10.6654  -19.8247   23.0389 C.3     1  UNL1        0.0447
     14 C         -11.1163  -18.7290   22.1191 C.ar    1  UNL1        0.0090
     15 C         -11.9109  -17.5767   22.6583 C.ar    1  UNL1        0.0300
     16 C         -12.3619  -16.4810   21.7385 C.ar    1  UNL1        0.1672
     17 F         -13.1565  -15.3285   22.2776 F       1  UNL1       -0.2018
     18 C         -12.0182  -16.5376   20.2795 C.ar    1  UNL1        0.1696
     19 F         -12.4691  -15.4419   19.3597 F       1  UNL1       -0.2017
     20 C         -11.2235  -17.6899   19.7403 C.ar    1  UNL1        0.0612
     21 C         -10.7726  -18.7856   20.6601 C.ar    1  UNL1        0.1386
     22 F          -9.9780  -19.9379   20.1210 F       1  UNL1       -0.2044
     23 C          -5.9136  -15.8457   23.6786 C.3     1  UNL1        0.1093
     24 N          -4.4154  -15.7874   23.6344 N.pl3   1  UNL1       -0.3013
     25 H          -3.9222  -15.2778   24.3173 H       1  UNL1        0.1497
     26 C          -3.6685  -16.5056   22.5497 C.ar    1  UNL1        0.2169
     27 N          -2.4199  -15.9052   21.9748 N.ar    1  UNL1       -0.2123
     28 C          -1.6730  -16.6234   20.8902 C.ar    1  UNL1        0.1033
     29 C          -2.1748  -17.9419   20.3805 C.ar    1  UNL1        0.0439
     30 C          -3.4234  -18.5422   20.9554 C.ar    1  UNL1        0.1570
     31 N          -4.1702  -17.8241   22.0400 N.ar    1  UNL1       -0.2098
     32 C          -3.9251  -19.8607   20.4457 C.3     1  UNL1        0.4350
     33 F          -4.4268  -21.1792   19.9360 F       1  UNL1       -0.1644
     34 F          -5.1701  -19.1924   19.9424 F       1  UNL1       -0.1644
     35 F          -2.6801  -20.5291   20.9490 F       1  UNL1       -0.1644
@<TRIPOS>BOND
     1    10     9    1
     2    10     8    1
     3     8     1    1
     4     1     2    2
     5     1     3   am
     6     3     4    1
     7     4     5    1
     8     5     6    1
     9     6     7    1
    10     7    23    1
    11    23    24    1
    12    24    26    1
    13    26    27   ar
    14    27    28   ar
    15    28    29   ar
    16    29    30   ar
    17    30    32    1
    18    32    33    1
    19    32    34    1
    20    32    35    1
    21    30    31   ar
    22    10    13    1
    23    13    14    1
    24    14    15   ar
    25    15    16   ar
    26    16    17    1
    27    16    18   ar
    28    18    19    1
    29    18    20   ar
    30    20    21   ar
    31    21    22    1
    32     7     3    1
    33    31    26   ar
    34    21    14   ar
    35     9    11    1
    36     9    12    1
    37    24    25    1
@<TRIPOS>MOLECULE
*****
 35 37 0 0 0
SMALL
GASTEIGER

@<TRIPOS>ATOM
      1 C          -8.9293  -19.9219   22.7191 C.2     1  UNL1        0.2270
      2 O          -7.4815  -20.1773   23.0170 O.2     1  UNL1       -0.2748
      3 N          -9.3689  -19.6517   21.3107 N.am    1  UNL1       -0.2794
      4 C         -10.7746  -19.3805   20.8624 C.3     1  UNL1        0.0935
      5 C         -10.7545  -19.1665   19.3779 C.3     1  UNL1        0.0233
      6 C          -9.3366  -19.3055   18.9086 C.3     1  UNL1        0.0233
      7 C          -8.4803  -19.6054   20.1031 C.3     1  UNL1        0.0949
      8 C          -9.9375  -19.9365   23.8297 C.3     1  UNL1        0.1010
      9 N         -11.8599  -18.7383   25.1019 N.3     1  UNL1       -0.3215
     10 C         -10.6610  -18.6766   24.2025 C.3     1  UNL1        0.0644
     11 H         -12.0398  -19.7078   25.3626 H       1  UNL1        0.1188
     12 H         -12.6717  -18.3615   24.6126 H       1  UNL1        0.1188
     13 C         -10.1856  -17.3549   23.6761 C.3     1  UNL1        0.0447
     14 C          -8.9411  -16.7295   24.2328 C.ar    1  UNL1        0.0090
     15 C          -8.8595  -16.3922   25.6921 C.ar    1  UNL1        0.0300
     16 C          -7.6150  -15.7668   26.2489 C.ar    1  UNL1        0.1672
     17 F          -7.5333  -15.4294   27.7082 F       1  UNL1       -0.2018
     18 C          -6.4521  -15.4786   25.3463 C.ar    1  UNL1        0.1696
     19 F          -5.2075  -14.8532   25.9031 F       1  UNL1       -0.2017
     20 C          -6.5336  -15.8159   23.8870 C.ar    1  UNL1        0.0612
     21 C          -7.7782  -16.4413   23.3303 C.ar    1  UNL1        0.1386
     22 F          -7.8599  -16.7787   21.8710 F       1  UNL1       -0.2044
     23 C          -6.9959  -19.8211   20.0921 C.3     1  UNL1        0.1093
     24 N          -6.0729  -18.6706   19.8192 N.pl3   1  UNL1       -0.3013
     25 H          -6.2449  -18.0716   19.0571 H       1  UNL1        0.1497
     26 C          -4.8877  -18.4330   20.7074 C.ar    1  UNL1        0.2169
     27 N          -5.0345  -18.5331   22.1968 N.ar    1  UNL1       -0.2123
     28 C          -3.8493  -18.2954   23.0849 C.ar    1  UNL1        0.1033
     29 C          -2.5173  -17.9576   22.4836 C.ar    1  UNL1        0.0439
     30 C          -2.3704  -17.8575   20.9942 C.ar    1  UNL1        0.1570
     31 N          -3.5556  -18.0952   20.1061 N.ar    1  UNL1       -0.2098
     32 C          -1.0384  -17.5197   20.3929 C.3     1  UNL1        0.4350
     33 F           0.2937  -17.1819   19.7916 F       1  UNL1       -0.1644
     34 F          -0.9665  -18.8884   19.7833 F       1  UNL1       -0.1644
     35 F          -1.1103  -16.1510   21.0025 F       1  UNL1       -0.1644
@<TRIPOS>BOND
     1    10     9    1
     2    10     8    1
     3     8     1    1
     4     1     2    2
     5     1     3   am
     6     3     4    1
     7     4     5    1
     8     5     6    1
     9     6     7    1
    10     7    23    1
    11    23    24    1
    12    24    26    1
    13    26    27   ar
    14    27    28   ar
    15    28    29   ar
    16    29    30   ar
    17    30    32    1
    18    32    33    1
    19    32    34    1
    20    32    35    1
    21    30    31   ar
    22    10    13    1
    23    13    14    1
    24    14    15   ar
    25    15    16   ar
    26    16    17    1
    27    16    18   ar
    28    18    19    1
    29    18    20   ar
    30    20    21   ar
    31    21    22    1
    32     7     3    1
    33    31    26   ar
    34    21    14   ar
    35     9    11    1
    36     9    12    1
    37    24    25    1
@<TRIPOS>MOLECULE
*****
 35 37 0 0 0
SMALL
GASTEIGER

@<TRIPOS>ATOM
      1 C          -9.0132  -19.0707   22.3043 C.2     1  UNL1        0.2270
      2 O          -7.6327  -19.1250   22.8884 O.2     1  UNL1       -0.2748
      3 N          -9.2283  -19.3980   20.8563 N.am    1  UNL1       -0.2794
      4 C         -10.5440  -19.3868   20.1359 C.3     1  UNL1        0.0935
      5 C         -10.2944  -19.7759   18.7088 C.3     1  UNL1        0.0233
      6 C          -8.8245  -20.0274   18.5473 C.3     1  UNL1        0.0233
      7 C          -8.1657  -19.7939   19.8745 C.3     1  UNL1        0.0949
      8 C         -10.1786  -18.6892   23.1681 C.3     1  UNL1        0.1010
      9 N          -9.9288  -19.1432   25.7140 N.3     1  UNL1       -0.3215
     10 C          -9.9459  -18.1838   24.5611 C.3     1  UNL1        0.0644
     11 H         -10.0909  -20.0900   25.3708 H       1  UNL1        0.1188
     12 H         -10.6623  -18.8915   26.3767 H       1  UNL1        0.1188
     13 C          -9.7303  -16.7190   24.8012 C.3     1  UNL1        0.0447
     14 C          -8.3657  -16.2107   25.1610 C.ar    1  UNL1        0.0090
     15 C          -7.4091  -15.8010   24.0807 C.ar    1  UNL1        0.0300
     16 C          -6.0444  -15.2928   24.4405 C.ar    1  UNL1        0.1672
     17 F          -5.0877  -14.8831   23.3603 F       1  UNL1       -0.2018
     18 C          -5.6364  -15.1943   25.8806 C.ar    1  UNL1        0.1696
     19 F          -4.2717  -14.6861   26.2404 F       1  UNL1       -0.2017
     20 C          -6.5930  -15.6040   26.9609 C.ar    1  UNL1        0.0612
     21 C          -7.9576  -16.1122   26.6011 C.ar    1  UNL1        0.1386
     22 F          -8.9143  -16.5220   27.6813 F       1  UNL1       -0.2044
     23 C          -6.7012  -19.9321   20.1683 C.3     1  UNL1        0.1093
     24 N          -5.7487  -18.8477   19.7598 N.pl3   1  UNL1       -0.3013
     25 H          -5.8644  -18.3908   18.8954 H       1  UNL1        0.1497
     26 C          -4.6199  -18.4594   20.6682 C.ar    1  UNL1        0.2169
     27 N          -4.8340  -18.4112   22.1521 N.ar    1  UNL1       -0.2123
     28 C          -3.7053  -18.0230   23.0604 C.ar    1  UNL1        0.1033
     29 C          -2.3624  -17.6829   22.4849 C.ar    1  UNL1        0.0439
     30 C          -2.1484  -17.7311   21.0011 C.ar    1  UNL1        0.1570
     31 N          -3.2771  -18.1193   20.0928 N.ar    1  UNL1       -0.2098
     32 C          -0.8055  -17.3910   20.4256 C.3     1  UNL1        0.4350
     33 F           0.5373  -17.0509   19.8501 F       1  UNL1       -0.1644
     34 F          -0.8946  -16.0202   21.0280 F       1  UNL1       -0.1644
     35 F          -0.7165  -18.7618   19.8233 F       1  UNL1       -0.1644
@<TRIPOS>BOND
     1    10     9    1
     2    10     8    1
     3     8     1    1
     4     1     2    2
     5     1     3   am
     6     3     4    1
     7     4     5    1
     8     5     6    1
     9     6     7    1
    10     7    23    1
    11    23    24    1
    12    24    26    1
    13    26    27   ar
    14    27    28   ar
    15    28    29   ar
    16    29    30   ar
    17    30    32    1
    18    32    33    1
    19    32    34    1
    20    32    35    1
    21    30    31   ar
    22    10    13    1
    23    13    14    1
    24    14    15   ar
    25    15    16   ar
    26    16    17    1
    27    16    18   ar
    28    18    19    1
    29    18    20   ar
    30    20    21   ar
    31    21    22    1
    32     7     3    1
    33    31    26   ar
    34    21    14   ar
    35     9    11    1
    36     9    12    1
    37    24    25    1
