@<TRIPOS>MOLECULE
*****
 48 52 0 0 0
SMALL
GASTEIGER

@<TRIPOS>ATOM
      1 C           3.3526    1.6069   28.2667 C.2     1  UNL1        0.2438
      2 O           4.1448    0.5822   29.0233 O.2     1  UNL1       -0.2731
      3 N           3.0805    1.4145   26.8041 N.am    1  UNL1       -0.2778
      4 C           2.3076    2.3485   25.9208 C.3     1  UNL1        0.0956
      5 C           2.2830    1.7656   24.5389 C.3     1  UNL1        0.0496
      6 C           3.0406    0.4714   24.5682 C.3     1  UNL1        0.1514
      7 C           3.3454   -0.5376   23.5009 C.ar    1  UNL1       -0.0046
      8 C           2.8525   -0.3206   22.1009 C.ar    1  UNL1       -0.0032
      9 C           3.1573   -1.3295   21.0337 C.ar    1  UNL1       -0.0015
     10 C           3.9550   -2.5555   21.3664 C.ar    1  UNL1        0.0232
     11 C           4.4479   -2.7725   22.7664 C.ar    1  UNL1       -0.0057
     12 C           4.1431   -1.7636   23.8336 C.ar    1  UNL1       -0.0247
     13 C           4.6360   -1.9805   25.2337 C.3     1  UNL1        0.0278
     14 C           4.3312   -0.9716   26.3009 C.3     1  UNL1        0.0265
     15 C           3.5335    0.2544   25.9682 C.3     1  UNL1        0.1001
     16 N           1.5027    2.9460   29.6558 N.am    1  UNL1       -0.2683
     17 C           1.3991    4.3301   30.2246 C.2     1  UNL1        0.2588
     18 O           0.2342    4.8836   30.9906 O.2     1  UNL1       -0.2719
     19 C           2.6649    5.0635   29.8930 C.3     1  UNL1        0.2386
     20 F           2.9880    6.4791   30.2691 F       1  UNL1       -0.2273
     21 C           3.5507    4.1326   29.1192 C.3     1  UNL1        0.0740
     22 C           2.8325    2.8239   28.9725 C.3     1  UNL1        0.1553
     23 C           0.4596    1.8724   29.7531 C.3     1  UNL1        0.1206
     24 C           0.5377   -0.1420   29.0929 C.3     1  UNL1        0.0311
     25 C           0.0172    1.1426   28.5195 C.3     1  UNL1        0.1067
     26 C          -0.5033    2.4273   27.9461 C.3     1  UNL1        0.0311
     27 O          -0.4252    0.4128   27.2860 O.3     1  UNL1       -0.3851
     28 H           0.2880    0.4269   26.6286 H       1  UNL1        0.2103
     29 S           2.4839    0.8221   23.2203 S.O2    1  UNL1        0.0106
     30 O           1.7540    0.5017   23.2237 O.2     1  UNL1       -0.1684
     31 O           3.7606    1.5309   22.8773 O.2     1  UNL1       -0.1684
     32 C           1.9271    1.1729   21.8722 C.ar    1  UNL1        0.1061
     33 C           2.7473    1.9779   20.9084 C.ar    1  UNL1        0.0207
     34 C           2.1906    2.3286   19.5604 C.ar    1  UNL1        0.0310
     35 C           0.8136    1.8742   19.1764 C.ar    1  UNL1        0.1402
     36 F           0.2568    2.2250   17.8283 F       1  UNL1       -0.2042
     37 C          -0.0066    1.0691   20.1403 C.ar    1  UNL1        0.0310
     38 C           0.5502    0.7185   21.4882 C.ar    1  UNL1        0.0207
     39 C           4.2597   -3.5645   20.2991 C.3     1  UNL1        0.3242
     40 F           3.8096   -4.6662   21.2121 F       1  UNL1       -0.2176
     41 C           4.5645   -4.5735   19.2319 C.3     1  UNL1        0.4363
     42 F           4.8693   -5.5825   18.1645 F       1  UNL1       -0.1666
     43 F           3.1709   -5.1162   19.3470 F       1  UNL1       -0.1666
     44 F           5.9849   -4.1578   18.9874 F       1  UNL1       -0.1666
     45 C           4.7099   -2.4628   19.3861 C.3     1  UNL1        0.4363
     46 F           5.1601   -1.3611   18.4731 F       1  UNL1       -0.1666
     47 F           3.6576   -2.6552   18.3347 F       1  UNL1       -0.1666
     48 F           5.9013   -1.8769   20.0842 F       1  UNL1       -0.1666
@<TRIPOS>BOND
     1    24    25    1
     2    25    26    1
     3    25    27    1
     4    25    23    1
     5    23    16    1
     6    16    17   am
     7    17    18    2
     8    17    19    1
     9    19    20    1
    10    19    21    1
    11    21    22    1
    12    22     1    1
    13     1     2    2
    14     1     3   am
    15     3     4    1
    16     4     5    1
    17     5     6    1
    18     6    29    1
    19    29    30    2
    20    29    31    2
    21    29    32    1
    22    32    33   ar
    23    33    34   ar
    24    34    35   ar
    25    35    36    1
    26    35    37   ar
    27    37    38   ar
    28     6     7    1
    29     7     8   ar
    30     8     9   ar
    31     9    10   ar
    32    10    39    1
    33    39    40    1
    34    39    41    1
    35    41    42    1
    36    41    43    1
    37    41    44    1
    38    39    45    1
    39    45    46    1
    40    45    47    1
    41    45    48    1
    42    10    11   ar
    43    11    12   ar
    44    12    13    1
    45    13    14    1
    46    15    14    1
    47    22    16    1
    48    15     3    1
    49    15     6    1
    50    38    32   ar
    51    12     7   ar
    52    27    28    1
@<TRIPOS>MOLECULE
*****
 48 52 0 0 0
SMALL
GASTEIGER

@<TRIPOS>ATOM
      1 C           2.8925    0.7015   21.1646 C.2     1  UNL1        0.2438
      2 O           3.4443    0.2671   22.4900 O.2     1  UNL1       -0.2731
      3 N           1.6118    1.4803   21.1043 N.am    1  UNL1       -0.2778
      4 C           0.9417    1.9801   19.8588 C.3     1  UNL1        0.0956
      5 C          -0.3078    2.7046   20.2636 C.3     1  UNL1        0.0496
      6 C          -0.4099    2.6525   21.7592 C.3     1  UNL1        0.1514
      7 C          -1.4300    3.1964   22.7152 C.ar    1  UNL1       -0.0046
      8 C          -2.6163    3.9530   22.1956 C.ar    1  UNL1       -0.0032
      9 C          -3.6363    4.4968   23.1515 C.ar    1  UNL1       -0.0015
     10 C          -3.4700    4.2840   24.6270 C.ar    1  UNL1        0.0232
     11 C          -2.2836    3.5273   25.1466 C.ar    1  UNL1       -0.0057
     12 C          -1.2636    2.9835   24.1906 C.ar    1  UNL1       -0.0247
     13 C          -0.0772    2.2268   24.7102 C.3     1  UNL1        0.0278
     14 C           0.9428    1.6830   23.7542 C.3     1  UNL1        0.0265
     15 C           0.7764    1.8958   22.2788 C.3     1  UNL1        0.1001
     16 N           3.7699   -1.0153   19.3133 N.am    1  UNL1       -0.2683
     17 C           4.5697   -0.8957   18.0500 C.2     1  UNL1        0.2588
     18 O           4.9561   -2.0246   17.1409 O.2     1  UNL1       -0.2719
     19 C           4.9154    0.5509   17.8554 C.3     1  UNL1        0.2386
     20 F           5.7080    1.1227   16.7176 F       1  UNL1       -0.2273
     21 C           4.3292    1.3253   18.9985 C.3     1  UNL1        0.0740
     22 C           3.6211    0.3574   19.8996 C.3     1  UNL1        0.1553
     23 C           3.2159   -2.2848   19.8893 C.3     1  UNL1        0.1206
     24 C           3.3700   -4.2579   19.1257 C.3     1  UNL1        0.0311
     25 C           4.1233   -3.4521   20.1422 C.3     1  UNL1        0.1067
     26 C           4.8766   -2.6463   21.1587 C.3     1  UNL1        0.0311
     27 O           5.0306   -4.6195   20.3952 O.3     1  UNL1       -0.3851
     28 H           4.6691   -5.1600   21.1150 H       1  UNL1        0.2103
     29 S          -1.5382    3.3851   21.0958 S.O2    1  UNL1        0.0106
     30 O          -2.0845    2.8196   20.9644 O.2     1  UNL1       -0.1684
     31 O          -0.7603    4.6644   21.1851 O.2     1  UNL1       -0.1684
     32 C          -2.6667    4.1176   20.4323 C.ar    1  UNL1        0.1061
     33 C          -3.9097    3.3783   20.0345 C.ar    1  UNL1        0.0207
     34 C          -5.0381    4.1108   19.3711 C.ar    1  UNL1        0.0310
     35 C          -4.9234    5.5826   19.1054 C.ar    1  UNL1        0.1402
     36 F          -6.0518    6.3152   18.4419 F       1  UNL1       -0.2042
     37 C          -3.6803    6.3219   19.5031 C.ar    1  UNL1        0.0310
     38 C          -2.5520    5.5894   20.1666 C.ar    1  UNL1        0.0207
     39 C          -4.4901    4.8278   25.5829 C.3     1  UNL1        0.3242
     40 F          -4.9923    3.4376   25.8379 F       1  UNL1       -0.2176
     41 C          -5.5101    5.3716   26.5388 C.3     1  UNL1        0.4363
     42 F          -6.5302    5.9154   27.4948 F       1  UNL1       -0.1666
     43 F          -6.6096    4.8407   25.6676 F       1  UNL1       -0.1666
     44 F          -4.5431    5.9649   27.5202 F       1  UNL1       -0.1666
     45 C          -3.9879    6.2180   25.3280 C.3     1  UNL1        0.4363
     46 F          -3.4856    7.6083   25.0730 F       1  UNL1       -0.1666
     47 F          -5.2542    6.7647   24.7387 F       1  UNL1       -0.1666
     48 F          -2.5684    6.1857   25.8120 F       1  UNL1       -0.1666
@<TRIPOS>BOND
     1    24    25    1
     2    25    26    1
     3    25    27    1
     4    25    23    1
     5    23    16    1
     6    16    17   am
     7    17    18    2
     8    17    19    1
     9    19    20    1
    10    19    21    1
    11    21    22    1
    12    22     1    1
    13     1     2    2
    14     1     3   am
    15     3     4    1
    16     4     5    1
    17     5     6    1
    18     6    29    1
    19    29    30    2
    20    29    31    2
    21    29    32    1
    22    32    33   ar
    23    33    34   ar
    24    34    35   ar
    25    35    36    1
    26    35    37   ar
    27    37    38   ar
    28     6     7    1
    29     7     8   ar
    30     8     9   ar
    31     9    10   ar
    32    10    39    1
    33    39    40    1
    34    39    41    1
    35    41    42    1
    36    41    43    1
    37    41    44    1
    38    39    45    1
    39    45    46    1
    40    45    47    1
    41    45    48    1
    42    10    11   ar
    43    11    12   ar
    44    12    13    1
    45    13    14    1
    46    15    14    1
    47    22    16    1
    48    15     3    1
    49    15     6    1
    50    38    32   ar
    51    12     7   ar
    52    27    28    1
@<TRIPOS>MOLECULE
*****
 48 52 0 0 0
SMALL
GASTEIGER

@<TRIPOS>ATOM
      1 C           3.2248    1.0709   19.5183 C.2     1  UNL1        0.2438
      2 O           2.5691    1.4785   18.2323 O.2     1  UNL1       -0.2731
      3 N           2.5462    1.3484   20.8271 N.am    1  UNL1       -0.2778
      4 C           3.0769    1.0012   22.1864 C.3     1  UNL1        0.0956
      5 C           2.0765    1.4600   23.2056 C.3     1  UNL1        0.0496
      6 C           0.9276    2.0908   22.4761 C.3     1  UNL1        0.1514
      7 C          -0.3454    2.7191   22.9606 C.ar    1  UNL1       -0.0046
      8 C          -0.6357    2.7880   24.4305 C.ar    1  UNL1       -0.0032
      9 C          -1.9088    3.4163   24.9149 C.ar    1  UNL1       -0.0015
     10 C          -2.8915    3.9756   23.9293 C.ar    1  UNL1        0.0232
     11 C          -2.6012    3.9067   22.4593 C.ar    1  UNL1       -0.0057
     12 C          -1.3282    3.2784   21.9749 C.ar    1  UNL1       -0.0247
     13 C          -1.0378    3.2094   20.5049 C.3     1  UNL1        0.0278
     14 C           0.2352    2.5811   20.0205 C.3     1  UNL1        0.0265
     15 C           1.2179    2.0218   21.0061 C.3     1  UNL1        0.1001
     16 N           4.7919   -1.0937   19.5760 N.am    1  UNL1       -0.2683
     17 C           6.2715   -1.3339   19.5189 C.2     1  UNL1        0.2588
     18 O           6.9502   -2.6707   19.5685 O.2     1  UNL1       -0.2719
     19 C           6.9530   -0.0027   19.4034 C.3     1  UNL1        0.2386
     20 F           8.4330    0.2255   19.3173 F       1  UNL1       -0.2273
     21 C           5.8947    1.0602   19.3892 C.3     1  UNL1        0.0740
     22 C           4.5590    0.3859   19.4958 C.3     1  UNL1        0.1553
     23 C           3.7314   -2.1481   19.6928 C.3     1  UNL1        0.1206
     24 C           3.8912   -4.2046   19.1978 C.3     1  UNL1        0.0311
     25 C           4.0059   -3.4060   20.4623 C.3     1  UNL1        0.1067
     26 C           4.1207   -2.6074   21.7268 C.3     1  UNL1        0.0311
     27 O           4.2805   -4.6639   21.2319 O.3     1  UNL1       -0.3851
     28 H           3.4447   -5.0319   21.5589 H       1  UNL1        0.2103
     29 S           0.7751    2.0877   23.9683 S.O2    1  UNL1        0.0106
     30 O           0.4028    1.3999   24.1227 O.2     1  UNL1       -0.1684
     31 O           1.4588    3.4207   24.0411 O.2     1  UNL1       -0.1684
     32 C           0.6225    2.0845   25.4606 C.ar    1  UNL1        0.1061
     33 C           1.2037    3.2011   26.2762 C.ar    1  UNL1        0.0207
     34 C           1.0511    3.1980   27.7684 C.ar    1  UNL1        0.0310
     35 C           0.3173    2.0783   28.4450 C.ar    1  UNL1        0.1402
     36 F           0.1647    2.0751   29.9372 F       1  UNL1       -0.2042
     37 C          -0.2639    0.9616   27.6293 C.ar    1  UNL1        0.0310
     38 C          -0.1113    0.9648   26.1371 C.ar    1  UNL1        0.0207
     39 C          -4.1645    4.6039   24.4138 C.3     1  UNL1        0.3242
     40 F          -3.4020    5.3197   25.4890 F       1  UNL1       -0.2176
     41 C          -5.4375    5.2322   24.8982 C.3     1  UNL1        0.4363
     42 F          -6.7106    5.8605   25.3827 F       1  UNL1       -0.1666
     43 F          -4.8115    6.5903   24.7819 F       1  UNL1       -0.1666
     44 F          -6.2141    3.9608   25.0727 F       1  UNL1       -0.1666
     45 C          -4.9270    3.8881   23.3385 C.3     1  UNL1        0.4363
     46 F          -5.6896    3.1722   22.2633 F       1  UNL1       -0.1666
     47 F          -5.3896    5.1084   22.5991 F       1  UNL1       -0.1666
     48 F          -4.7502    2.4366   23.6731 F       1  UNL1       -0.1666
@<TRIPOS>BOND
     1    24    25    1
     2    25    26    1
     3    25    27    1
     4    25    23    1
     5    23    16    1
     6    16    17   am
     7    17    18    2
     8    17    19    1
     9    19    20    1
    10    19    21    1
    11    21    22    1
    12    22     1    1
    13     1     2    2
    14     1     3   am
    15     3     4    1
    16     4     5    1
    17     5     6    1
    18     6    29    1
    19    29    30    2
    20    29    31    2
    21    29    32    1
    22    32    33   ar
    23    33    34   ar
    24    34    35   ar
    25    35    36    1
    26    35    37   ar
    27    37    38   ar
    28     6     7    1
    29     7     8   ar
    30     8     9   ar
    31     9    10   ar
    32    10    39    1
    33    39    40    1
    34    39    41    1
    35    41    42    1
    36    41    43    1
    37    41    44    1
    38    39    45    1
    39    45    46    1
    40    45    47    1
    41    45    48    1
    42    10    11   ar
    43    11    12   ar
    44    12    13    1
    45    13    14    1
    46    15    14    1
    47    22    16    1
    48    15     3    1
    49    15     6    1
    50    38    32   ar
    51    12     7   ar
    52    27    28    1
@<TRIPOS>MOLECULE
*****
 48 52 0 0 0
SMALL
GASTEIGER

@<TRIPOS>ATOM
      1 C           1.7754    0.6265   20.3928 C.2     1  UNL1        0.2438
      2 O           1.0700    1.2361   19.2176 O.2     1  UNL1       -0.2731
      3 N           1.3471    0.9744   21.7877 N.am    1  UNL1       -0.2778
      4 C           1.9543    0.4470   23.0538 C.3     1  UNL1        0.0956
      5 C           1.2190    1.0575   24.2099 C.3     1  UNL1        0.0496
      6 C           0.1573    1.9622   23.6583 C.3     1  UNL1        0.1514
      7 C          -0.8713    2.8261   24.3258 C.ar    1  UNL1       -0.0046
      8 C          -0.9505    2.8774   25.8228 C.ar    1  UNL1       -0.0032
      9 C          -1.9791    3.7413   26.4903 C.ar    1  UNL1       -0.0015
     10 C          -2.9286    4.5539   25.6607 C.ar    1  UNL1        0.0232
     11 C          -2.8494    4.5026   24.1637 C.ar    1  UNL1       -0.0057
     12 C          -1.8208    3.6387   23.4963 C.ar    1  UNL1       -0.0247
     13 C          -1.7416    3.5874   21.9992 C.3     1  UNL1        0.0278
     14 C          -0.7130    2.7235   21.3317 C.3     1  UNL1        0.0265
     15 C           0.2365    1.9109   22.1613 C.3     1  UNL1        0.1001
     16 N           4.3500    0.0381   19.9808 N.am    1  UNL1       -0.2683
     17 C           5.1322   -1.2284   19.7960 C.2     1  UNL1        0.2588
     18 O           6.6123   -1.3258   19.5724 O.2     1  UNL1       -0.2719
     19 C           4.1745   -2.3802   19.8741 C.3     1  UNL1        0.2386
     20 F           4.5287   -3.8317   19.7423 F       1  UNL1       -0.2273
     21 C           2.8005   -1.8256   20.1071 C.3     1  UNL1        0.0740
     22 C           2.9089   -0.3309   20.1731 C.3     1  UNL1        0.1553
     23 C           4.9105    1.4295   19.9744 C.3     1  UNL1        0.1206
     24 C           5.0329    1.4957   17.8577 C.3     1  UNL1        0.0311
     25 C           4.4846    2.4048   18.9174 C.3     1  UNL1        0.1067
     26 C           3.9362    3.3139   19.9770 C.3     1  UNL1        0.0311
     27 O           4.0587    3.3801   17.8603 O.3     1  UNL1       -0.3851
     28 H           4.7716    4.0189   17.7036 H       1  UNL1        0.2103
     29 S           0.1980    1.9120   25.1569 S.O2    1  UNL1        0.0106
     30 O          -0.2969    1.3154   25.3434 O.2     1  UNL1       -0.1684
     31 O           1.1677    3.0562   25.1690 O.2     1  UNL1       -0.1684
     32 C           0.2386    1.8617   26.6556 C.ar    1  UNL1        0.1061
     33 C          -0.5892    0.8528   27.3948 C.ar    1  UNL1        0.0207
     34 C          -0.5487    0.8025   28.8934 C.ar    1  UNL1        0.0310
     35 C           0.3198    1.7612   29.6527 C.ar    1  UNL1        0.1402
     36 F           0.3604    1.7110   31.1514 F       1  UNL1       -0.2042
     37 C           1.1477    2.7702   28.9134 C.ar    1  UNL1        0.0310
     38 C           1.1071    2.8204   27.4149 C.ar    1  UNL1        0.0207
     39 C          -3.9573    5.4178   26.3282 C.3     1  UNL1        0.3242
     40 F          -2.8853    6.0431   27.1708 F       1  UNL1       -0.2176
     41 C          -4.9859    6.2818   26.9958 C.3     1  UNL1        0.4363
     42 F          -6.0145    7.1457   27.6633 F       1  UNL1       -0.1666
     43 F          -4.2065    7.5050   26.6135 F       1  UNL1       -0.1666
     44 F          -5.8848    5.1729   27.4566 F       1  UNL1       -0.1666
     45 C          -5.0292    4.7926   25.4857 C.3     1  UNL1        0.4363
     46 F          -6.1012    4.1672   24.6432 F       1  UNL1       -0.1666
     47 F          -5.5062    6.0546   24.8304 F       1  UNL1       -0.1666
     48 F          -4.9500    3.3328   25.8221 F       1  UNL1       -0.1666
@<TRIPOS>BOND
     1    24    25    1
     2    25    26    1
     3    25    27    1
     4    25    23    1
     5    23    16    1
     6    16    17   am
     7    17    18    2
     8    17    19    1
     9    19    20    1
    10    19    21    1
    11    21    22    1
    12    22     1    1
    13     1     2    2
    14     1     3   am
    15     3     4    1
    16     4     5    1
    17     5     6    1
    18     6    29    1
    19    29    30    2
    20    29    31    2
    21    29    32    1
    22    32    33   ar
    23    33    34   ar
    24    34    35   ar
    25    35    36    1
    26    35    37   ar
    27    37    38   ar
    28     6     7    1
    29     7     8   ar
    30     8     9   ar
    31     9    10   ar
    32    10    39    1
    33    39    40    1
    34    39    41    1
    35    41    42    1
    36    41    43    1
    37    41    44    1
    38    39    45    1
    39    45    46    1
    40    45    47    1
    41    45    48    1
    42    10    11   ar
    43    11    12   ar
    44    12    13    1
    45    13    14    1
    46    15    14    1
    47    22    16    1
    48    15     3    1
    49    15     6    1
    50    38    32   ar
    51    12     7   ar
    52    27    28    1
@<TRIPOS>MOLECULE
*****
 48 52 0 0 0
SMALL
GASTEIGER

@<TRIPOS>ATOM
      1 C           6.0824   -3.6030   23.0062 C.2     1  UNL1        0.2438
      2 O           7.3082   -4.4442   23.2060 O.2     1  UNL1       -0.2731
      3 N           5.5090   -2.8282   24.1556 N.am    1  UNL1       -0.2778
      4 C           4.2947   -1.9489   24.1077 C.3     1  UNL1        0.0956
      5 C           4.0844   -1.3739   25.4771 C.3     1  UNL1        0.0496
      6 C           5.1688   -1.8980   26.3713 C.3     1  UNL1        0.1514
      7 C           5.4682   -1.6728   27.8238 C.ar    1  UNL1       -0.0046
      8 C           4.5878   -0.7740   28.6405 C.ar    1  UNL1       -0.0032
      9 C           4.8872   -0.5489   30.0929 C.ar    1  UNL1       -0.0015
     10 C           6.0671   -1.2226   30.7287 C.ar    1  UNL1        0.0232
     11 C           6.9475   -2.1214   29.9120 C.ar    1  UNL1       -0.0057
     12 C           6.6480   -2.3465   28.4595 C.ar    1  UNL1       -0.0247
     13 C           7.5285   -3.2453   27.6427 C.3     1  UNL1        0.0278
     14 C           7.2290   -3.4704   26.1903 C.3     1  UNL1        0.0265
     15 C           6.0492   -2.7968   25.5546 C.3     1  UNL1        0.1001
     16 N           5.8710   -2.6824   20.5057 N.am    1  UNL1       -0.2683
     17 C           4.9357   -2.9305   19.3596 C.2     1  UNL1        0.2588
     18 O           5.0069   -2.2844   18.0077 O.2     1  UNL1       -0.2719
     19 C           3.9166   -3.9381   19.8027 C.3     1  UNL1        0.2386
     20 F           2.7899   -4.4765   18.9717 F       1  UNL1       -0.2273
     21 C           4.2221   -4.3126   21.2226 C.3     1  UNL1        0.0740
     22 C           5.4301   -3.5366   21.6572 C.3     1  UNL1        0.1553
     23 C           7.0418   -1.7446   20.5013 C.3     1  UNL1        0.1206
     24 C           5.9492   -0.0991   21.2748 C.3     1  UNL1        0.0311
     25 C           6.8538   -0.3123   20.0975 C.3     1  UNL1        0.1067
     26 C           7.7585   -0.5255   18.9201 C.3     1  UNL1        0.0311
     27 O           6.6659    1.1201   19.6937 O.3     1  UNL1       -0.3851
     28 H           5.9147    1.1882   19.0839 H       1  UNL1        0.2103
     29 S           4.2039   -0.9771   27.0575 S.O2    1  UNL1        0.0106
     30 O           3.6350   -1.4634   27.3319 O.2     1  UNL1       -0.1684
     31 O           5.0664    0.1958   26.6964 O.2     1  UNL1       -0.1684
     32 C           3.2389   -0.0561   27.7437 C.ar    1  UNL1        0.1061
     33 C           3.4730    1.4253   27.7241 C.ar    1  UNL1        0.0207
     34 C           2.5081    2.3462   28.4103 C.ar    1  UNL1        0.0310
     35 C           1.3092    1.7857   29.1161 C.ar    1  UNL1        0.1402
     36 F           0.3442    2.7066   29.8024 F       1  UNL1       -0.2042
     37 C           1.0751    0.3041   29.1357 C.ar    1  UNL1        0.0310
     38 C           2.0400   -0.6167   28.4495 C.ar    1  UNL1        0.0207
     39 C           6.3665   -0.9974   32.1812 C.3     1  UNL1        0.3242
     40 F           6.4517    0.4797   31.9346 F       1  UNL1       -0.2176
     41 C           6.6659   -0.7722   33.6336 C.3     1  UNL1        0.4363
     42 F           6.9653   -0.5470   35.0861 F       1  UNL1       -0.1666
     43 F           7.9206   -0.0394   33.2613 F       1  UNL1       -0.1666
     44 F           5.4570   -1.4721   34.1802 F       1  UNL1       -0.1666
     45 C           6.2813   -2.4745   32.4278 C.3     1  UNL1        0.4363
     46 F           6.1961   -3.9517   32.6744 F       1  UNL1       -0.1666
     47 F           7.7184   -2.6801   32.8050 F       1  UNL1       -0.1666
     48 F           4.8455   -2.8070   32.1481 F       1  UNL1       -0.1666
@<TRIPOS>BOND
     1    24    25    1
     2    25    26    1
     3    25    27    1
     4    25    23    1
     5    23    16    1
     6    16    17   am
     7    17    18    2
     8    17    19    1
     9    19    20    1
    10    19    21    1
    11    21    22    1
    12    22     1    1
    13     1     2    2
    14     1     3   am
    15     3     4    1
    16     4     5    1
    17     5     6    1
    18     6    29    1
    19    29    30    2
    20    29    31    2
    21    29    32    1
    22    32    33   ar
    23    33    34   ar
    24    34    35   ar
    25    35    36    1
    26    35    37   ar
    27    37    38   ar
    28     6     7    1
    29     7     8   ar
    30     8     9   ar
    31     9    10   ar
    32    10    39    1
    33    39    40    1
    34    39    41    1
    35    41    42    1
    36    41    43    1
    37    41    44    1
    38    39    45    1
    39    45    46    1
    40    45    47    1
    41    45    48    1
    42    10    11   ar
    43    11    12   ar
    44    12    13    1
    45    13    14    1
    46    15    14    1
    47    22    16    1
    48    15     3    1
    49    15     6    1
    50    38    32   ar
    51    12     7   ar
    52    27    28    1
