@<TRIPOS>MOLECULE
*****
 33 36 0 0 0
SMALL
GASTEIGER

@<TRIPOS>ATOM
      1 C          -7.3489  -16.1207   22.9047 C.3     1  UNL1        0.1168
      2 C          -7.2261  -15.8272   24.3706 C.ar    1  UNL1        0.0034
      3 C          -5.8807  -15.5378   24.9673 C.ar    1  UNL1       -0.0021
      4 C          -5.7578  -15.2443   26.4332 C.ar    1  UNL1       -0.0002
      5 C          -6.9804  -15.2402   27.3023 C.ar    1  UNL1        0.0005
      6 C          -8.3257  -15.5295   26.7055 C.ar    1  UNL1        0.0062
      7 C          -8.4486  -15.8231   25.2396 C.ar    1  UNL1        0.0271
      8 S          -9.7940  -16.1124   24.6429 S.3     1  UNL1       -0.0874
      9 C         -10.1244  -17.4987   24.1748 C.ar    1  UNL1        0.0278
     10 C          -9.5072  -18.6861   24.8524 C.ar    1  UNL1        0.0062
     11 C          -9.8377  -20.0724   24.3843 C.ar    1  UNL1        0.0005
     12 C         -10.7853  -20.2712   23.2386 C.ar    1  UNL1       -0.0002
     13 C         -11.4025  -19.0838   22.5611 C.ar    1  UNL1       -0.0014
     14 C         -11.0720  -17.6976   23.0291 C.ar    1  UNL1        0.0130
     15 C         -11.6892  -16.5102   22.3516 C.3     1  UNL1        0.1641
     16 O         -10.8584  -15.6447   21.4512 O.3     1  UNL1       -0.3772
     17 H         -10.1752  -15.1964   21.9738 H       1  UNL1        0.2109
     18 C          -7.3783  -18.1494   21.2818 C.2     1  UNL1        0.2252
     19 O          -8.7529  -17.7625   20.8230 O.2     1  UNL1       -0.2750
     20 N          -6.6762  -17.3285   22.3227 N.am    1  UNL1       -0.3003
     21 H          -5.7740  -17.5825   22.6239 H       1  UNL1        0.1497
     22 C          -6.7055  -19.3572   20.6998 C.3     1  UNL1        0.1154
     23 C          -6.3626  -20.6692   22.1800 C.3     1  UNL1        0.0335
     24 C          -5.4359  -19.8746   21.3083 C.3     1  UNL1        0.1377
     25 C          -4.7746  -18.9719   20.3094 C.3     1  UNL1        0.0613
     26 C          -3.2899  -19.0975   20.4827 C.3     1  UNL1        0.1290
     27 C          -1.8357  -19.3259   20.7707 C.3     1  UNL1        0.0305
     28 C          -0.7908  -18.5988   19.9773 C.3     1  UNL1        0.0025
     29 C          -1.2002  -17.6433   18.8959 C.3     1  UNL1        0.0002
     30 C          -2.6544  -17.4149   18.6078 C.3     1  UNL1        0.0025
     31 C          -3.6993  -18.1420   19.4012 C.3     1  UNL1        0.0305
     32 O          -3.0336  -20.0778   21.5887 O.3     1  UNL1       -0.2256
     33 O          -4.3600  -20.5581   22.0990 O.3     1  UNL1       -0.2251
@<TRIPOS>BOND
     1    23    24    1
     2    24    22    1
     3    22    18    1
     4    18    19    2
     5    18    20   am
     6    20     1    1
     7     1     2    1
     8     2     3   ar
     9     3     4   ar
    10     4     5   ar
    11     5     6   ar
    12     6     7   ar
    13     7     8    1
    14     8     9    1
    15     9    10   ar
    16    10    11   ar
    17    11    12   ar
    18    12    13   ar
    19    13    14   ar
    20    14    15    1
    21    15    16    1
    22    24    25    1
    23    25    26    1
    24    26    27    1
    25    27    28    1
    26    28    29    1
    27    29    30    1
    28    30    31    1
    29    26    32    1
    30    32    33    1
    31    33    24    1
    32     7     2   ar
    33    14     9   ar
    34    31    26    1
    35    20    21    1
    36    16    17    1
@<TRIPOS>MOLECULE
*****
 33 36 0 0 0
SMALL
GASTEIGER

@<TRIPOS>ATOM
      1 C         -12.7695   -7.6635   17.9107 C.3     1  UNL1        0.1168
      2 C         -11.7736   -6.6079   18.2900 C.ar    1  UNL1        0.0034
      3 C         -10.3735   -6.9967   18.6619 C.ar    1  UNL1       -0.0021
      4 C          -9.3776   -5.9410   19.0412 C.ar    1  UNL1       -0.0002
      5 C          -9.7820   -4.4966   19.0486 C.ar    1  UNL1        0.0005
      6 C         -11.1821   -4.1078   18.6766 C.ar    1  UNL1        0.0062
      7 C         -12.1780   -5.1634   18.2973 C.ar    1  UNL1        0.0271
      8 S         -13.5781   -4.7746   17.9254 S.3     1  UNL1       -0.0874
      9 C         -14.0273   -3.3517   18.0792 C.ar    1  UNL1        0.0278
     10 C         -14.0861   -2.4503   16.8818 C.ar    1  UNL1        0.0062
     11 C         -14.5354   -1.0273   17.0356 C.ar    1  UNL1        0.0005
     12 C         -14.9258   -0.5060   18.3868 C.ar    1  UNL1       -0.0002
     13 C         -14.8670   -1.4075   19.5842 C.ar    1  UNL1       -0.0014
     14 C         -14.4178   -2.8304   19.4304 C.ar    1  UNL1        0.0130
     15 C         -14.3590   -3.7319   20.6278 C.3     1  UNL1        0.1641
     16 O         -14.0667   -3.1602   21.9834 O.3     1  UNL1       -0.3772
     17 H         -13.1620   -2.8108   21.9988 H       1  UNL1        0.2109
     18 C         -15.0900   -8.6872   18.4741 C.2     1  UNL1        0.2252
     19 O         -15.4299   -8.7206   17.0136 O.2     1  UNL1       -0.2750
     20 N         -13.7597   -8.1587   18.9227 N.am    1  UNL1       -0.3003
     21 H         -13.5366   -8.1368   19.8813 H       1  UNL1        0.1497
     22 C         -16.0803   -9.1824   19.4862 C.3     1  UNL1        0.1154
     23 C         -17.4731  -10.5655   19.0658 C.3     1  UNL1        0.0335
     24 C         -17.5509   -9.0747   19.2114 C.3     1  UNL1        0.1377
     25 C         -17.3212   -7.6063   19.4145 C.3     1  UNL1        0.0613
     26 C         -18.6337   -6.9026   19.2348 C.3     1  UNL1        0.1290
     27 C         -20.0088   -6.3403   19.0277 C.3     1  UNL1        0.0305
     28 C         -20.2399   -4.8627   19.1420 C.3     1  UNL1        0.0025
     29 C         -19.0958   -3.9473   19.4635 C.3     1  UNL1        0.0002
     30 C         -17.7208   -4.5096   19.6706 C.3     1  UNL1        0.0025
     31 C         -17.4897   -5.9872   19.5563 C.3     1  UNL1        0.0305
     32 O         -19.6746   -7.9361   18.9207 O.3     1  UNL1       -0.2256
     33 O         -19.0053   -9.2785   18.9062 O.3     1  UNL1       -0.2251
@<TRIPOS>BOND
     1    23    24    1
     2    24    22    1
     3    22    18    1
     4    18    19    2
     5    18    20   am
     6    20     1    1
     7     1     2    1
     8     2     3   ar
     9     3     4   ar
    10     4     5   ar
    11     5     6   ar
    12     6     7   ar
    13     7     8    1
    14     8     9    1
    15     9    10   ar
    16    10    11   ar
    17    11    12   ar
    18    12    13   ar
    19    13    14   ar
    20    14    15    1
    21    15    16    1
    22    24    25    1
    23    25    26    1
    24    26    27    1
    25    27    28    1
    26    28    29    1
    27    29    30    1
    28    30    31    1
    29    26    32    1
    30    32    33    1
    31    33    24    1
    32     7     2   ar
    33    14     9   ar
    34    31    26    1
    35    20    21    1
    36    16    17    1
@<TRIPOS>MOLECULE
*****
 33 36 0 0 0
SMALL
GASTEIGER

@<TRIPOS>ATOM
      1 C          -0.1029    2.8827   22.9013 C.3     1  UNL1        0.1168
      2 C          -0.4837    2.6100   24.3263 C.ar    1  UNL1        0.0034
      3 C           0.2140    1.5273   25.0950 C.ar    1  UNL1       -0.0021
      4 C          -0.1667    1.2546   26.5200 C.ar    1  UNL1       -0.0002
      5 C          -1.2452    2.0646   27.1763 C.ar    1  UNL1        0.0005
      6 C          -1.9429    3.1473   26.4076 C.ar    1  UNL1        0.0062
      7 C          -1.5622    3.4201   24.9826 C.ar    1  UNL1        0.0271
      8 S          -2.2598    4.5027   24.2139 S.3     1  UNL1       -0.0874
      9 C          -3.7236    4.3820   23.9088 C.ar    1  UNL1        0.0278
     10 C          -4.7355    4.5793   24.9982 C.ar    1  UNL1        0.0062
     11 C          -6.1992    4.4586   24.6931 C.ar    1  UNL1        0.0005
     12 C          -6.6509    4.1404   23.2985 C.ar    1  UNL1       -0.0002
     13 C          -5.6389    3.9431   22.2091 C.ar    1  UNL1       -0.0014
     14 C          -4.1752    4.0638   22.5142 C.ar    1  UNL1        0.0130
     15 C          -3.1632    3.8665   21.4248 C.3     1  UNL1        0.1641
     16 O          -3.0924    2.5579   20.6950 O.3     1  UNL1       -0.3772
     17 H          -2.8095    1.8610   21.3075 H       1  UNL1        0.2109
     18 C           0.9948    1.1103   21.3510 C.2     1  UNL1        0.2252
     19 O           2.3494    1.5018   21.8623 O.2     1  UNL1       -0.2750
     20 N          -0.2315    1.8007   21.8704 N.am    1  UNL1       -0.3003
     21 H          -1.1206    1.5437   21.5348 H       1  UNL1        0.1497
     22 C           0.8662    0.0282   20.3200 C.3     1  UNL1        0.1154
     23 C           0.9041    1.1690   18.6687 C.3     1  UNL1        0.0335
     24 C           1.7648    0.0261   19.1191 C.3     1  UNL1        0.1377
     25 C           2.4377   -1.1164   19.8204 C.3     1  UNL1        0.0613
     26 C           3.5724   -1.5858   18.9587 C.3     1  UNL1        0.1290
     27 C           4.6653   -1.9429   17.9955 C.3     1  UNL1        0.0305
     28 C           5.6063   -3.0672   18.3121 C.3     1  UNL1        0.0025
     29 C           5.4544   -3.8345   19.5921 C.3     1  UNL1        0.0002
     30 C           4.3615   -3.4774   20.5554 C.3     1  UNL1        0.0025
     31 C           3.4205   -2.3530   20.2387 C.3     1  UNL1        0.0305
     32 O           3.6007   -0.7334   17.7248 O.3     1  UNL1       -0.2256
     33 O           2.4835    0.2629   17.8239 O.3     1  UNL1       -0.2251
@<TRIPOS>BOND
     1    23    24    1
     2    24    22    1
     3    22    18    1
     4    18    19    2
     5    18    20   am
     6    20     1    1
     7     1     2    1
     8     2     3   ar
     9     3     4   ar
    10     4     5   ar
    11     5     6   ar
    12     6     7   ar
    13     7     8    1
    14     8     9    1
    15     9    10   ar
    16    10    11   ar
    17    11    12   ar
    18    12    13   ar
    19    13    14   ar
    20    14    15    1
    21    15    16    1
    22    24    25    1
    23    25    26    1
    24    26    27    1
    25    27    28    1
    26    28    29    1
    27    29    30    1
    28    30    31    1
    29    26    32    1
    30    32    33    1
    31    33    24    1
    32     7     2   ar
    33    14     9   ar
    34    31    26    1
    35    20    21    1
    36    16    17    1
@<TRIPOS>MOLECULE
*****
 33 36 0 0 0
SMALL
GASTEIGER

@<TRIPOS>ATOM
      1 C         -15.0175   -5.3686   19.6700 C.3     1  UNL1        0.1168
      2 C         -15.1189   -6.7545   19.1050 C.ar    1  UNL1        0.0034
      3 C         -16.1586   -7.7023   19.6253 C.ar    1  UNL1       -0.0021
      4 C         -16.2600   -9.0881   19.0604 C.ar    1  UNL1       -0.0002
      5 C         -15.3217   -9.5261   17.9752 C.ar    1  UNL1        0.0005
      6 C         -14.2821   -8.5784   17.4549 C.ar    1  UNL1        0.0062
      7 C         -14.1806   -7.1925   18.0199 C.ar    1  UNL1        0.0271
      8 S         -13.1410   -6.2448   17.4996 S.3     1  UNL1       -0.0874
      9 C         -11.7665   -6.2356   18.1005 C.ar    1  UNL1        0.0278
     10 C         -10.9949   -7.5156   18.2272 C.ar    1  UNL1        0.0062
     11 C          -9.6205   -7.5064   18.8281 C.ar    1  UNL1        0.0005
     12 C          -9.0178   -6.2172   19.3022 C.ar    1  UNL1       -0.0002
     13 C          -9.7895   -4.9372   19.1754 C.ar    1  UNL1       -0.0014
     14 C         -11.1638   -4.9464   18.5745 C.ar    1  UNL1        0.0130
     15 C         -11.9355   -3.6664   18.4478 C.3     1  UNL1        0.1641
     16 O         -11.9272   -2.6713   19.5702 O.3     1  UNL1       -0.3772
     17 H         -12.3714   -3.0527   20.3436 H       1  UNL1        0.2109
     18 C         -15.5696   -2.8357   19.4980 C.2     1  UNL1        0.2252
     19 O         -14.5386   -2.5398   20.5464 O.2     1  UNL1       -0.2750
     20 N         -15.8092   -4.2502   19.0597 N.am    1  UNL1       -0.3003
     21 H         -16.4859   -4.4444   18.3716 H       1  UNL1        0.1497
     22 C         -16.3613   -1.7172   18.8877 C.3     1  UNL1        0.1154
     23 C         -15.1142   -1.2070   17.3997 C.3     1  UNL1        0.0335
     24 C         -15.6871   -0.4225   18.5427 C.3     1  UNL1        0.1377
     25 C         -16.4009    0.0913   19.7578 C.3     1  UNL1        0.0613
     26 C         -16.0481    1.5397   19.9249 C.3     1  UNL1        0.1290
     27 C         -15.6067    2.9727   19.9631 C.3     1  UNL1        0.0305
     28 C         -16.0993    3.8803   21.0510 C.3     1  UNL1        0.0025
     29 C         -17.0332    3.3549   22.1007 C.3     1  UNL1        0.0002
     30 C         -17.4745    1.9218   22.0624 C.3     1  UNL1        0.0025
     31 C         -16.9820    1.0142   20.9745 C.3     1  UNL1        0.0305
     32 O         -15.1162    1.9210   18.8130 O.3     1  UNL1       -0.2256
     33 O         -14.8931    0.7083   17.9587 O.3     1  UNL1       -0.2251
@<TRIPOS>BOND
     1    23    24    1
     2    24    22    1
     3    22    18    1
     4    18    19    2
     5    18    20   am
     6    20     1    1
     7     1     2    1
     8     2     3   ar
     9     3     4   ar
    10     4     5   ar
    11     5     6   ar
    12     6     7   ar
    13     7     8    1
    14     8     9    1
    15     9    10   ar
    16    10    11   ar
    17    11    12   ar
    18    12    13   ar
    19    13    14   ar
    20    14    15    1
    21    15    16    1
    22    24    25    1
    23    25    26    1
    24    26    27    1
    25    27    28    1
    26    28    29    1
    27    29    30    1
    28    30    31    1
    29    26    32    1
    30    32    33    1
    31    33    24    1
    32     7     2   ar
    33    14     9   ar
    34    31    26    1
    35    20    21    1
    36    16    17    1
@<TRIPOS>MOLECULE
*****
 33 36 0 0 0
SMALL
GASTEIGER

@<TRIPOS>ATOM
      1 C         -12.5395   -4.2266   19.2884 C.3     1  UNL1        0.1168
      2 C         -11.7854   -5.4292   18.8035 C.ar    1  UNL1        0.0034
      3 C         -10.3447   -5.6126   19.1788 C.ar    1  UNL1       -0.0021
      4 C          -9.5906   -6.8152   18.6939 C.ar    1  UNL1       -0.0002
      5 C         -10.2772   -7.8343   17.8337 C.ar    1  UNL1        0.0005
      6 C         -11.7178   -7.6509   17.4584 C.ar    1  UNL1        0.0062
      7 C         -12.4720   -6.4483   17.9433 C.ar    1  UNL1        0.0271
      8 S         -13.9125   -6.2649   17.5680 S.3     1  UNL1       -0.0874
      9 C         -14.9861   -6.9612   18.3508 C.ar    1  UNL1        0.0278
     10 C         -14.9026   -8.4401   18.5868 C.ar    1  UNL1        0.0062
     11 C         -15.9761   -9.1365   19.3697 C.ar    1  UNL1        0.0005
     12 C         -17.1330   -8.3538   19.9165 C.ar    1  UNL1       -0.0002
     13 C         -17.2165   -6.8748   19.6805 C.ar    1  UNL1       -0.0014
     14 C         -16.1430   -6.1785   18.8976 C.ar    1  UNL1        0.0130
     15 C         -16.2264   -4.6996   18.6616 C.3     1  UNL1        0.1641
     16 O         -15.8989   -3.7435   19.7701 O.3     1  UNL1       -0.3772
     17 H         -16.5559   -3.8322   20.4782 H       1  UNL1        0.2109
     18 C         -12.3574   -1.9077   18.1309 C.2     1  UNL1        0.2252
     19 O         -11.1331   -1.5996   18.9407 O.2     1  UNL1       -0.2750
     20 N         -13.0607   -3.2213   18.3047 N.am    1  UNL1       -0.3003
     21 H         -13.8643   -3.4236   17.7731 H       1  UNL1        0.1497
     22 C         -12.8786   -0.9024   17.1471 C.3     1  UNL1        0.1154
     23 C         -11.8678    0.7781   16.7182 C.3     1  UNL1        0.0335
     24 C         -13.0782    0.5237   17.5668 C.3     1  UNL1        0.1377
     25 C         -14.2469   -0.0287   18.3277 C.3     1  UNL1        0.0613
     26 C         -14.9159    1.1092   19.0403 C.3     1  UNL1        0.1290
     27 C         -15.4754    2.3402   19.6896 C.3     1  UNL1        0.0305
     28 C         -16.6868    2.2399   20.5683 C.3     1  UNL1        0.0025
     29 C         -17.3388    0.9086   20.7978 C.3     1  UNL1        0.0002
     30 C         -16.7793   -0.3224   20.1486 C.3     1  UNL1        0.0025
     31 C         -15.5679   -0.2221   19.2698 C.3     1  UNL1        0.0305
     32 O         -14.1606    2.3649   18.7198 O.3     1  UNL1       -0.2256
     33 O         -13.0248    2.0031   17.8091 O.3     1  UNL1       -0.2251
@<TRIPOS>BOND
     1    23    24    1
     2    24    22    1
     3    22    18    1
     4    18    19    2
     5    18    20   am
     6    20     1    1
     7     1     2    1
     8     2     3   ar
     9     3     4   ar
    10     4     5   ar
    11     5     6   ar
    12     6     7   ar
    13     7     8    1
    14     8     9    1
    15     9    10   ar
    16    10    11   ar
    17    11    12   ar
    18    12    13   ar
    19    13    14   ar
    20    14    15    1
    21    15    16    1
    22    24    25    1
    23    25    26    1
    24    26    27    1
    25    27    28    1
    26    28    29    1
    27    29    30    1
    28    30    31    1
    29    26    32    1
    30    32    33    1
    31    33    24    1
    32     7     2   ar
    33    14     9   ar
    34    31    26    1
    35    20    21    1
    36    16    17    1
@<TRIPOS>MOLECULE
*****
 33 36 0 0 0
SMALL
GASTEIGER

@<TRIPOS>ATOM
      1 C          -0.0322    2.7637   23.1019 C.3     1  UNL1        0.1168
      2 C          -0.3520    2.4698   24.5376 C.ar    1  UNL1        0.0034
      3 C           0.3457    1.3472   25.2468 C.ar    1  UNL1       -0.0021
      4 C           0.0259    1.0532   26.6825 C.ar    1  UNL1       -0.0002
      5 C          -0.9917    1.8818   27.4090 C.ar    1  UNL1        0.0005
      6 C          -1.6895    3.0043   26.6999 C.ar    1  UNL1        0.0062
      7 C          -1.3697    3.2984   25.2641 C.ar    1  UNL1        0.0271
      8 S          -2.0674    4.4209   24.5550 S.3     1  UNL1       -0.0874
      9 C          -3.4635    4.2302   24.0404 C.ar    1  UNL1        0.0278
     10 C          -3.6914    3.5378   22.7294 C.ar    1  UNL1        0.0062
     11 C          -5.0875    3.3471   22.2148 C.ar    1  UNL1        0.0005
     12 C          -6.2555    3.8488   23.0111 C.ar    1  UNL1       -0.0002
     13 C          -6.0275    4.5412   24.3221 C.ar    1  UNL1       -0.0014
     14 C          -4.6315    4.7319   24.8367 C.ar    1  UNL1        0.0130
     15 C          -4.4035    5.4242   26.1477 C.3     1  UNL1        0.1641
     16 O          -4.7121    4.7161   27.4335 O.3     1  UNL1       -0.3772
     17 H          -5.6676    4.5610   27.4959 H       1  UNL1        0.2109
     18 C           1.0227    1.1428   21.3671 C.2     1  UNL1        0.2252
     19 O           2.3865    1.6663   21.7073 O.2     1  UNL1       -0.2750
     20 N          -0.1868    1.6915   22.0644 N.am    1  UNL1       -0.3003
     21 H          -1.0819    1.3480   21.8411 H       1  UNL1        0.1497
     22 C           0.8682    0.0705   20.3295 C.3     1  UNL1        0.1154
     23 C           0.9017    1.2039   18.6729 C.3     1  UNL1        0.0335
     24 C           1.7603    0.0596   19.1238 C.3     1  UNL1        0.1377
     25 C           2.4325   -1.0824   19.8266 C.3     1  UNL1        0.0613
     26 C           3.5607   -1.5601   18.9611 C.3     1  UNL1        0.1290
     27 C           4.6470   -1.9257   17.9936 C.3     1  UNL1        0.0305
     28 C           5.5853   -3.0523   18.3102 C.3     1  UNL1        0.0025
     29 C           5.4372   -3.8133   19.5944 C.3     1  UNL1        0.0002
     30 C           4.3509   -3.4476   20.5619 C.3     1  UNL1        0.0025
     31 C           3.4126   -2.3210   20.2452 C.3     1  UNL1        0.0305
     32 O           3.5857   -0.7132   17.7232 O.3     1  UNL1       -0.2256
     33 O           2.4731    0.2878   17.8237 O.3     1  UNL1       -0.2251
@<TRIPOS>BOND
     1    23    24    1
     2    24    22    1
     3    22    18    1
     4    18    19    2
     5    18    20   am
     6    20     1    1
     7     1     2    1
     8     2     3   ar
     9     3     4   ar
    10     4     5   ar
    11     5     6   ar
    12     6     7   ar
    13     7     8    1
    14     8     9    1
    15     9    10   ar
    16    10    11   ar
    17    11    12   ar
    18    12    13   ar
    19    13    14   ar
    20    14    15    1
    21    15    16    1
    22    24    25    1
    23    25    26    1
    24    26    27    1
    25    27    28    1
    26    28    29    1
    27    29    30    1
    28    30    31    1
    29    26    32    1
    30    32    33    1
    31    33    24    1
    32     7     2   ar
    33    14     9   ar
    34    31    26    1
    35    20    21    1
    36    16    17    1
@<TRIPOS>MOLECULE
*****
 33 36 0 0 0
SMALL
GASTEIGER

@<TRIPOS>ATOM
      1 C         -15.3735   -5.3552   19.6055 C.3     1  UNL1        0.1168
      2 C         -15.3683   -6.7630   19.0878 C.ar    1  UNL1        0.0034
      3 C         -16.3607   -7.7584   19.6117 C.ar    1  UNL1       -0.0021
      4 C         -16.3555   -9.1662   19.0941 C.ar    1  UNL1       -0.0002
      5 C         -15.3579   -9.5787   18.0526 C.ar    1  UNL1        0.0005
      6 C         -14.3656   -8.5834   17.5287 C.ar    1  UNL1        0.0062
      7 C         -14.3707   -7.1755   18.0463 C.ar    1  UNL1        0.0271
      8 S         -13.3784   -6.1802   17.5225 S.3     1  UNL1       -0.0874
      9 C         -11.9785   -6.1620   18.0612 C.ar    1  UNL1        0.0278
     10 C         -11.1459   -7.4092   18.0277 C.ar    1  UNL1        0.0062
     11 C          -9.7460   -7.3910   18.5664 C.ar    1  UNL1        0.0005
     12 C          -9.1789   -6.1257   19.1385 C.ar    1  UNL1       -0.0002
     13 C         -10.0116   -4.8785   19.1720 C.ar    1  UNL1       -0.0014
     14 C         -11.4114   -4.8967   18.6333 C.ar    1  UNL1        0.0130
     15 C         -12.2441   -3.6495   18.6668 C.3     1  UNL1        0.1641
     16 O         -12.1771   -2.7346   19.8536 O.3     1  UNL1       -0.3772
     17 H         -12.5340   -3.1890   20.6327 H       1  UNL1        0.2109
     18 C         -16.3196   -2.9402   19.4549 C.2     1  UNL1        0.2252
     19 O         -15.0799   -2.4134   20.1148 O.2     1  UNL1       -0.2750
     20 N         -16.4664   -4.4111   19.2002 N.am    1  UNL1       -0.3003
     21 H         -17.2801   -4.7569   18.7671 H       1  UNL1        0.1497
     22 C         -17.4126   -1.9961   19.0497 C.3     1  UNL1        0.1154
     23 C         -18.9927   -2.3824   20.2259 C.3     1  UNL1        0.0335
     24 C         -18.1159   -1.1732   20.0879 C.3     1  UNL1        0.1377
     25 C         -17.0921   -0.1360   19.7329 C.3     1  UNL1        0.0613
     26 C         -17.3460    1.0752   20.5807 C.3     1  UNL1        0.1290
     27 C         -17.7197    2.2069   21.4915 C.3     1  UNL1        0.0305
     28 C         -16.9313    3.4826   21.4650 C.3     1  UNL1        0.0025
     29 C         -15.7692    3.6268   20.5275 C.3     1  UNL1        0.0002
     30 C         -15.3955    2.4952   19.6167 C.3     1  UNL1        0.0025
     31 C         -16.1839    1.2194   19.6432 C.3     1  UNL1        0.0305
     32 O         -18.5268    0.7866   21.4596 O.3     1  UNL1       -0.2256
     33 O         -19.0027   -0.6031   21.1551 O.3     1  UNL1       -0.2251
@<TRIPOS>BOND
     1    23    24    1
     2    24    22    1
     3    22    18    1
     4    18    19    2
     5    18    20   am
     6    20     1    1
     7     1     2    1
     8     2     3   ar
     9     3     4   ar
    10     4     5   ar
    11     5     6   ar
    12     6     7   ar
    13     7     8    1
    14     8     9    1
    15     9    10   ar
    16    10    11   ar
    17    11    12   ar
    18    12    13   ar
    19    13    14   ar
    20    14    15    1
    21    15    16    1
    22    24    25    1
    23    25    26    1
    24    26    27    1
    25    27    28    1
    26    28    29    1
    27    29    30    1
    28    30    31    1
    29    26    32    1
    30    32    33    1
    31    33    24    1
    32     7     2   ar
    33    14     9   ar
    34    31    26    1
    35    20    21    1
    36    16    17    1
@<TRIPOS>MOLECULE
*****
 33 36 0 0 0
SMALL
GASTEIGER

@<TRIPOS>ATOM
      1 C           5.6511   -3.8099   22.5001 C.3     1  UNL1        0.1168
      2 C           5.4006   -2.9129   23.6760 C.ar    1  UNL1        0.0034
      3 C           4.1406   -2.1021   23.7459 C.ar    1  UNL1       -0.0021
      4 C           3.8902   -1.2051   24.9218 C.ar    1  UNL1       -0.0002
      5 C           4.8998   -1.1191   26.0279 C.ar    1  UNL1        0.0005
      6 C           6.1597   -1.9299   25.9580 C.ar    1  UNL1        0.0062
      7 C           6.4102   -2.8269   24.7821 C.ar    1  UNL1        0.0271
      8 S           7.6701   -3.6377   24.7122 S.3     1  UNL1       -0.0874
      9 C           7.6642   -5.0723   25.1507 C.ar    1  UNL1        0.0278
     10 C           7.1129   -5.4431   26.4955 C.ar    1  UNL1        0.0062
     11 C           7.1070   -6.8777   26.9340 C.ar    1  UNL1        0.0005
     12 C           7.6523   -7.9412   26.0276 C.ar    1  UNL1       -0.0002
     13 C           8.2035   -7.5703   24.6828 C.ar    1  UNL1       -0.0014
     14 C           8.2095   -6.1358   24.2443 C.ar    1  UNL1        0.0130
     15 C           8.7607   -5.7649   22.8995 C.3     1  UNL1        0.1641
     16 O           8.6968   -6.7456   21.7663 O.3     1  UNL1       -0.3772
     17 H           9.2599   -7.5093   21.9675 H       1  UNL1        0.2109
     18 C           4.7189   -3.9104   20.0771 C.2     1  UNL1        0.2252
     19 O           3.9085   -5.1195   20.4390 O.2     1  UNL1       -0.2750
     20 N           5.5903   -3.2555   21.1077 N.am    1  UNL1       -0.3003
     21 H           6.1222   -2.4619   20.8701 H       1  UNL1        0.1497
     22 C           4.6581   -3.3560   18.6846 C.3     1  UNL1        0.1154
     23 C           6.1968   -2.3628   17.8626 C.3     1  UNL1        0.0335
     24 C           4.8978   -1.8943   18.4482 C.3     1  UNL1        0.1377
     25 C           3.5487   -1.7313   19.0832 C.3     1  UNL1        0.0613
     26 C           3.2260   -0.2668   19.1169 C.3     1  UNL1        0.1290
     27 C           3.0425    1.2215   19.0818 C.3     1  UNL1        0.0305
     28 C           1.7901    1.8360   19.6329 C.3     1  UNL1        0.0025
     29 C           0.7211    0.9621   20.2192 C.3     1  UNL1        0.0002
     30 C           0.9046   -0.5261   20.2543 C.3     1  UNL1        0.0025
     31 C           2.1571   -1.1406   19.7032 C.3     1  UNL1        0.0305
     32 O           4.3758    0.4754   18.5027 O.3     1  UNL1       -0.2256
     33 O           5.4091   -0.5305   18.0894 O.3     1  UNL1       -0.2251
@<TRIPOS>BOND
     1    23    24    1
     2    24    22    1
     3    22    18    1
     4    18    19    2
     5    18    20   am
     6    20     1    1
     7     1     2    1
     8     2     3   ar
     9     3     4   ar
    10     4     5   ar
    11     5     6   ar
    12     6     7   ar
    13     7     8    1
    14     8     9    1
    15     9    10   ar
    16    10    11   ar
    17    11    12   ar
    18    12    13   ar
    19    13    14   ar
    20    14    15    1
    21    15    16    1
    22    24    25    1
    23    25    26    1
    24    26    27    1
    25    27    28    1
    26    28    29    1
    27    29    30    1
    28    30    31    1
    29    26    32    1
    30    32    33    1
    31    33    24    1
    32     7     2   ar
    33    14     9   ar
    34    31    26    1
    35    20    21    1
    36    16    17    1
@<TRIPOS>MOLECULE
*****
 33 36 0 0 0
SMALL
GASTEIGER

@<TRIPOS>ATOM
      1 C           3.4545   -1.5425   22.7353 C.3     1  UNL1        0.1168
      2 C           2.7929   -0.2416   22.3891 C.ar    1  UNL1        0.0034
      3 C           2.5470    0.7825   23.4572 C.ar    1  UNL1       -0.0021
      4 C           1.8854    2.0834   23.1110 C.ar    1  UNL1       -0.0002
      5 C           1.4698    2.3603   21.6966 C.ar    1  UNL1        0.0005
      6 C           1.7157    1.3364   20.6285 C.ar    1  UNL1        0.0062
      7 C           2.3773    0.0353   20.9747 C.ar    1  UNL1        0.0271
      8 S           2.6231   -0.9886   19.9066 S.3     1  UNL1       -0.0874
      9 C           3.9630   -1.0667   19.2366 C.ar    1  UNL1        0.0278
     10 C           4.7442    0.1865   18.9737 C.ar    1  UNL1        0.0062
     11 C           6.0841    0.1084   18.3038 C.ar    1  UNL1        0.0005
     12 C           6.6426   -1.2229   17.8968 C.ar    1  UNL1       -0.0002
     13 C           5.8614   -2.4761   18.1597 C.ar    1  UNL1       -0.0014
     14 C           4.5216   -2.3980   18.8296 C.ar    1  UNL1        0.0130
     15 C           3.7403   -3.6512   19.0926 C.3     1  UNL1        0.1641
     16 O           4.1315   -4.9338   18.4203 O.3     1  UNL1       -0.3772
     17 H           3.9919   -4.8532   17.4638 H       1  UNL1        0.2109
     18 C           5.5789   -2.9913   22.3644 C.2     1  UNL1        0.2252
     19 O           4.7164   -4.1947   22.1243 O.2     1  UNL1       -0.2750
     20 N           4.9480   -1.6651   22.6699 N.am    1  UNL1       -0.3003
     21 H           5.5142   -0.8753   22.8274 H       1  UNL1        0.1497
     22 C           7.0725   -3.1140   22.2989 C.3     1  UNL1        0.1154
     23 C           7.9330   -4.0322   20.7348 C.3     1  UNL1        0.0335
     24 C           7.7084   -4.4647   22.1534 C.3     1  UNL1        0.1377
     25 C           7.3508   -4.6148   23.6024 C.3     1  UNL1        0.0613
     26 C           7.8127   -5.9680   24.0561 C.3     1  UNL1        0.1290
     27 C           8.3270   -7.3432   24.3633 C.3     1  UNL1        0.0305
     28 C           8.1729   -7.9105   25.7432 C.3     1  UNL1        0.0025
     29 C           7.5045   -7.1028   26.8160 C.3     1  UNL1        0.0002
     30 C           6.9902   -5.7276   26.5087 C.3     1  UNL1        0.0025
     31 C           7.1443   -5.1602   25.1288 C.3     1  UNL1        0.0305
     32 O           8.4557   -6.6542   22.8874 O.3     1  UNL1       -0.2256
     33 O           8.3912   -5.7250   21.7114 O.3     1  UNL1       -0.2251
@<TRIPOS>BOND
     1    23    24    1
     2    24    22    1
     3    22    18    1
     4    18    19    2
     5    18    20   am
     6    20     1    1
     7     1     2    1
     8     2     3   ar
     9     3     4   ar
    10     4     5   ar
    11     5     6   ar
    12     6     7   ar
    13     7     8    1
    14     8     9    1
    15     9    10   ar
    16    10    11   ar
    17    11    12   ar
    18    12    13   ar
    19    13    14   ar
    20    14    15    1
    21    15    16    1
    22    24    25    1
    23    25    26    1
    24    26    27    1
    25    27    28    1
    26    28    29    1
    27    29    30    1
    28    30    31    1
    29    26    32    1
    30    32    33    1
    31    33    24    1
    32     7     2   ar
    33    14     9   ar
    34    31    26    1
    35    20    21    1
    36    16    17    1
