@<TRIPOS>MOLECULE
*****
 27 29 0 0 0
SMALL
GASTEIGER

@<TRIPOS>ATOM
      1 C          -9.5732  -16.8051   24.0448 C.3     1  UNL1        0.0308
      2 C          -8.2130  -16.3445   24.4780 C.ar    1  UNL1       -0.0242
      3 C          -8.0790  -15.3214   25.5666 C.ar    1  UNL1       -0.0045
      4 C          -6.7188  -14.8609   25.9998 C.ar    1  UNL1       -0.0007
      5 C          -5.4925  -15.4234   25.3443 C.ar    1  UNL1       -0.0045
      6 C          -5.6265  -16.4465   24.2556 C.ar    1  UNL1       -0.0229
      7 C          -6.9867  -16.9071   23.8225 C.ar    1  UNL1       -0.0079
      8 C          -7.1206  -17.9302   22.7337 C.3     1  UNL1        0.1199
      9 N          -5.8943  -18.4928   22.0782 N.am    1  UNL1       -0.2722
     10 C          -6.0283  -19.5159   20.9895 C.2     1  UNL1        0.2422
     11 O          -7.3885  -19.9765   20.5563 O.2     1  UNL1       -0.2733
     12 C          -4.5341  -18.0322   22.5114 C.3     1  UNL1        0.0987
     13 C          -4.4001  -17.0091   23.6001 C.3     1  UNL1        0.0476
     14 C          -8.4809  -18.3908   22.3006 C.ar    1  UNL1       -0.0001
     15 C          -9.1199  -19.5729   22.9671 C.ar    1  UNL1       -0.0023
     16 C         -10.4802  -20.0335   22.5339 C.ar    1  UNL1       -0.0003
     17 C         -11.2013  -19.3119   21.4342 C.ar    1  UNL1       -0.0000
     18 C         -10.5623  -18.1298   20.7677 C.ar    1  UNL1       -0.0003
     19 C          -9.2020  -17.6693   21.2009 C.ar    1  UNL1       -0.0023
     20 C          -4.8020  -20.0785   20.3340 C.3     1  UNL1        0.1552
     21 N          -3.9482  -19.2039   19.4645 N.3     1  UNL1       -0.2878
     22 H          -4.2566  -18.2440   19.6193 H       1  UNL1        0.1238
     23 C          -2.4570  -19.2112   19.6275 C.3     1  UNL1        0.0985
     24 C          -1.6722  -17.9522   19.4061 C.3     1  UNL1        0.1263
     25 C          -1.5322  -16.9511   20.5143 C.3     1  UNL1        0.0332
     26 O          -1.0273  -17.6944   18.0766 O.3     1  UNL1       -0.3830
     27 H          -1.2139  -18.4344   17.4778 H       1  UNL1        0.2104
@<TRIPOS>BOND
     1     1     2    1
     2     2     3   ar
     3     3     4   ar
     4     4     5   ar
     5     5     6   ar
     6     6     7   ar
     7     7     8    1
     8     8    14    1
     9    14    15   ar
    10    15    16   ar
    11    16    17   ar
    12    17    18   ar
    13    18    19   ar
    14     8     9    1
    15     9    10   am
    16    10    11    2
    17    10    20    1
    18    20    21    1
    19    21    23    1
    20    23    24    1
    21    24    25    1
    22    24    26    1
    23     9    12    1
    24    12    13    1
    25     7     2   ar
    26    19    14   ar
    27    13     6    1
    28    21    22    1
    29    26    27    1
@<TRIPOS>MOLECULE
*****
 27 29 0 0 0
SMALL
GASTEIGER

@<TRIPOS>ATOM
      1 C          -8.6528  -19.3198   20.9554 C.3     1  UNL1        0.0308
      2 C          -7.1772  -19.5890   20.9654 C.ar    1  UNL1       -0.0242
      3 C          -6.6146  -20.7144   20.1489 C.ar    1  UNL1       -0.0045
      4 C          -5.1389  -20.9835   20.1588 C.ar    1  UNL1       -0.0007
      5 C          -4.2259  -20.1272   20.9853 C.ar    1  UNL1       -0.0045
      6 C          -4.7886  -19.0017   21.8018 C.ar    1  UNL1       -0.0229
      7 C          -6.2642  -18.7326   21.7918 C.ar    1  UNL1       -0.0079
      8 C          -6.8268  -17.6071   22.6084 C.3     1  UNL1        0.1199
      9 N          -5.9139  -16.7507   23.4348 N.am    1  UNL1       -0.2722
     10 C          -6.4765  -15.6252   24.2514 C.2     1  UNL1        0.2422
     11 O          -7.9521  -15.3561   24.2414 O.2     1  UNL1       -0.2733
     12 C          -4.4382  -17.0198   23.4448 C.3     1  UNL1        0.0987
     13 C          -3.8756  -18.1453   22.6283 C.3     1  UNL1        0.0476
     14 C          -8.3025  -17.3380   22.5984 C.ar    1  UNL1       -0.0001
     15 C          -8.8844  -16.3857   21.5961 C.ar    1  UNL1       -0.0023
     16 C         -10.3600  -16.1166   21.5861 C.ar    1  UNL1       -0.0003
     17 C         -11.2537  -16.7997   22.5785 C.ar    1  UNL1       -0.0000
     18 C         -10.6718  -17.7519   23.5807 C.ar    1  UNL1       -0.0003
     19 C          -9.1961  -18.0210   23.5907 C.ar    1  UNL1       -0.0023
     20 C          -5.5635  -14.7688   25.0779 C.3     1  UNL1        0.1552
     21 N          -5.8627  -14.5370   26.5293 N.3     1  UNL1       -0.2878
     22 H          -6.4853  -13.7304   26.5764 H       1  UNL1        0.1238
     23 C          -6.4978  -15.6226   27.3469 C.3     1  UNL1        0.0985
     24 C          -7.9905  -15.6854   27.4800 C.3     1  UNL1        0.1263
     25 C          -8.7152  -16.9684   27.1994 C.3     1  UNL1        0.0332
     26 O          -8.7586  -14.4652   27.8936 O.3     1  UNL1       -0.3830
     27 H          -8.1437  -13.7284   28.0347 H       1  UNL1        0.2104
@<TRIPOS>BOND
     1     1     2    1
     2     2     3   ar
     3     3     4   ar
     4     4     5   ar
     5     5     6   ar
     6     6     7   ar
     7     7     8    1
     8     8    14    1
     9    14    15   ar
    10    15    16   ar
    11    16    17   ar
    12    17    18   ar
    13    18    19   ar
    14     8     9    1
    15     9    10   am
    16    10    11    2
    17    10    20    1
    18    20    21    1
    19    21    23    1
    20    23    24    1
    21    24    25    1
    22    24    26    1
    23     9    12    1
    24    12    13    1
    25     7     2   ar
    26    19    14   ar
    27    13     6    1
    28    21    22    1
    29    26    27    1
@<TRIPOS>MOLECULE
*****
 27 29 0 0 0
SMALL
GASTEIGER

@<TRIPOS>ATOM
      1 C         -10.0471  -17.2369   22.3050 C.3     1  UNL1        0.0308
      2 C          -9.5632  -18.1754   21.2396 C.ar    1  UNL1       -0.0242
      3 C         -10.5305  -18.7404   20.2421 C.ar    1  UNL1       -0.0045
      4 C         -10.0467  -19.6789   19.1767 C.ar    1  UNL1       -0.0007
      5 C          -8.5955  -20.0524   19.1088 C.ar    1  UNL1       -0.0045
      6 C          -7.6282  -19.4873   20.1063 C.ar    1  UNL1       -0.0229
      7 C          -8.1121  -18.5488   21.1717 C.ar    1  UNL1       -0.0079
      8 C          -7.1447  -17.9838   22.1692 C.3     1  UNL1        0.1199
      9 N          -5.6936  -18.3573   22.1013 N.am    1  UNL1       -0.2722
     10 C          -4.7262  -17.7922   23.0988 C.2     1  UNL1        0.2422
     11 O          -5.2100  -16.8537   24.1642 O.2     1  UNL1       -0.2733
     12 C          -5.2097  -19.2957   21.0359 C.3     1  UNL1        0.0987
     13 C          -6.1770  -19.8608   20.0384 C.3     1  UNL1        0.0476
     14 C          -7.6286  -17.0453   23.2346 C.ar    1  UNL1       -0.0001
     15 C          -8.2423  -17.5890   24.4908 C.ar    1  UNL1       -0.0023
     16 C          -8.7261  -16.6505   25.5562 C.ar    1  UNL1       -0.0003
     17 C          -8.5963  -15.1683   25.3655 C.ar    1  UNL1       -0.0000
     18 C          -7.9826  -14.6247   24.1094 C.ar    1  UNL1       -0.0003
     19 C          -7.4988  -15.5632   23.0439 C.ar    1  UNL1       -0.0023
     20 C          -3.2750  -18.1657   23.0309 C.3     1  UNL1        0.1552
     21 N          -2.2537  -17.1383   22.6421 N.3     1  UNL1       -0.2878
     22 H          -1.3490  -17.4886   22.9571 H       1  UNL1        0.1238
     23 C          -2.0903  -16.7505   21.2023 C.3     1  UNL1        0.0985
     24 C          -1.2965  -17.6232   20.2759 C.3     1  UNL1        0.1263
     25 C          -1.9006  -18.0918   18.9854 C.3     1  UNL1        0.0332
     26 O           0.1014  -18.0272   20.6400 O.3     1  UNL1       -0.3830
     27 H           0.3360  -17.6422   21.4988 H       1  UNL1        0.2104
@<TRIPOS>BOND
     1     1     2    1
     2     2     3   ar
     3     3     4   ar
     4     4     5   ar
     5     5     6   ar
     6     6     7   ar
     7     7     8    1
     8     8    14    1
     9    14    15   ar
    10    15    16   ar
    11    16    17   ar
    12    17    18   ar
    13    18    19   ar
    14     8     9    1
    15     9    10   am
    16    10    11    2
    17    10    20    1
    18    20    21    1
    19    21    23    1
    20    23    24    1
    21    24    25    1
    22    24    26    1
    23     9    12    1
    24    12    13    1
    25     7     2   ar
    26    19    14   ar
    27    13     6    1
    28    21    22    1
    29    26    27    1
@<TRIPOS>MOLECULE
*****
 27 29 0 0 0
SMALL
GASTEIGER

@<TRIPOS>ATOM
      1 C         -11.0831  -19.1390   20.1818 C.3     1  UNL1        0.0308
      2 C          -9.7254  -19.6745   19.8356 C.ar    1  UNL1       -0.0242
      3 C          -9.5782  -20.7024   18.7532 C.ar    1  UNL1       -0.0045
      4 C          -8.2205  -21.2379   18.4069 C.ar    1  UNL1       -0.0007
      5 C          -7.0099  -20.7455   19.1431 C.ar    1  UNL1       -0.0045
      6 C          -7.1571  -19.7175   20.2255 C.ar    1  UNL1       -0.0229
      7 C          -8.5148  -19.1820   20.5718 C.ar    1  UNL1       -0.0079
      8 C          -8.6619  -18.1541   21.6542 C.3     1  UNL1        0.1199
      9 N          -7.4513  -17.6616   22.3904 N.am    1  UNL1       -0.2722
     10 C          -7.5985  -16.6336   23.4729 C.2     1  UNL1        0.2422
     11 O          -8.9562  -16.0981   23.8191 O.2     1  UNL1       -0.2733
     12 C          -6.0936  -18.1971   22.0442 C.3     1  UNL1        0.0987
     13 C          -5.9465  -19.2250   20.9618 C.3     1  UNL1        0.0476
     14 C         -10.0196  -17.6186   22.0005 C.ar    1  UNL1       -0.0001
     15 C         -10.5519  -16.4087   21.2912 C.ar    1  UNL1       -0.0023
     16 C         -11.9096  -15.8732   21.6374 C.ar    1  UNL1       -0.0003
     17 C         -12.7350  -16.5476   22.6929 C.ar    1  UNL1       -0.0000
     18 C         -12.2027  -17.7574   23.4021 C.ar    1  UNL1       -0.0003
     19 C         -10.8450  -18.2929   23.0559 C.ar    1  UNL1       -0.0023
     20 C          -6.3879  -16.1412   24.2091 C.3     1  UNL1        0.1552
     21 N          -6.5063  -14.9869   25.1596 N.3     1  UNL1       -0.2878
     22 H          -7.3498  -14.4761   24.8989 H       1  UNL1        0.1238
     23 C          -6.5903  -15.2369   26.6363 C.3     1  UNL1        0.0985
     24 C          -7.9229  -15.4777   27.2815 C.3     1  UNL1        0.1263
     25 C          -8.5407  -16.8439   27.2391 C.3     1  UNL1        0.0332
     26 O          -8.6375  -14.3524   27.9691 O.3     1  UNL1       -0.3830
     27 H          -8.1051  -13.5442   27.9052 H       1  UNL1        0.2104
@<TRIPOS>BOND
     1     1     2    1
     2     2     3   ar
     3     3     4   ar
     4     4     5   ar
     5     5     6   ar
     6     6     7   ar
     7     7     8    1
     8     8    14    1
     9    14    15   ar
    10    15    16   ar
    11    16    17   ar
    12    17    18   ar
    13    18    19   ar
    14     8     9    1
    15     9    10   am
    16    10    11    2
    17    10    20    1
    18    20    21    1
    19    21    23    1
    20    23    24    1
    21    24    25    1
    22    24    26    1
    23     9    12    1
    24    12    13    1
    25     7     2   ar
    26    19    14   ar
    27    13     6    1
    28    21    22    1
    29    26    27    1
@<TRIPOS>MOLECULE
*****
 27 29 0 0 0
SMALL
GASTEIGER

@<TRIPOS>ATOM
      1 C         -12.0241   -2.4081   18.5419 C.3     1  UNL1        0.0308
      2 C         -13.4827   -2.3625   18.8888 C.ar    1  UNL1       -0.0242
      3 C         -14.1235   -1.0599   19.2662 C.ar    1  UNL1       -0.0045
      4 C         -15.5821   -1.0143   19.6131 C.ar    1  UNL1       -0.0007
      5 C         -16.4000   -2.2713   19.5826 C.ar    1  UNL1       -0.0045
      6 C         -15.7592   -3.5739   19.2051 C.ar    1  UNL1       -0.0229
      7 C         -14.3005   -3.6195   18.8583 C.ar    1  UNL1       -0.0079
      8 C         -13.6597   -4.9223   18.4808 C.3     1  UNL1        0.1199
      9 N         -14.4776   -6.1793   18.4503 N.am    1  UNL1       -0.2722
     10 C         -13.8368   -7.4820   18.0728 C.2     1  UNL1        0.2422
     11 O         -12.3781   -7.5276   17.7260 O.2     1  UNL1       -0.2733
     12 C         -15.9362   -6.1337   18.7972 C.3     1  UNL1        0.0987
     13 C         -16.5770   -4.8311   19.1746 C.3     1  UNL1        0.0476
     14 C         -12.2011   -4.9678   18.1340 C.ar    1  UNL1       -0.0001
     15 C         -11.7621   -4.7797   16.7120 C.ar    1  UNL1       -0.0023
     16 C         -10.3035   -4.8253   16.3651 C.ar    1  UNL1       -0.0003
     17 C          -9.2838   -5.0590   17.4402 C.ar    1  UNL1       -0.0000
     18 C          -9.7229   -5.2471   18.8621 C.ar    1  UNL1       -0.0003
     19 C         -11.1815   -5.2015   19.2090 C.ar    1  UNL1       -0.0023
     20 C         -14.6546   -8.7390   18.0423 C.3     1  UNL1        0.1552
     21 N         -15.1072   -9.3706   19.3253 N.3     1  UNL1       -0.2878
     22 H         -14.7710   -8.7745   20.0816 H       1  UNL1        0.1238
     23 C         -16.5686   -9.6015   19.5730 C.3     1  UNL1        0.0985
     24 C         -17.2919  -10.6885   18.8346 C.3     1  UNL1        0.1263
     25 C         -18.3686  -10.3385   17.8507 C.3     1  UNL1        0.0332
     26 O         -16.9384  -12.1254   19.0801 O.3     1  UNL1       -0.3830
     27 H         -16.2286  -12.1757   19.7393 H       1  UNL1        0.2104
@<TRIPOS>BOND
     1     1     2    1
     2     2     3   ar
     3     3     4   ar
     4     4     5   ar
     5     5     6   ar
     6     6     7   ar
     7     7     8    1
     8     8    14    1
     9    14    15   ar
    10    15    16   ar
    11    16    17   ar
    12    17    18   ar
    13    18    19   ar
    14     8     9    1
    15     9    10   am
    16    10    11    2
    17    10    20    1
    18    20    21    1
    19    21    23    1
    20    23    24    1
    21    24    25    1
    22    24    26    1
    23     9    12    1
    24    12    13    1
    25     7     2   ar
    26    19    14   ar
    27    13     6    1
    28    21    22    1
    29    26    27    1
@<TRIPOS>MOLECULE
*****
 27 29 0 0 0
SMALL
GASTEIGER

@<TRIPOS>ATOM
      1 C          -9.3801  -19.7242   20.4964 C.3     1  UNL1        0.0308
      2 C         -10.2870  -18.7331   21.1637 C.ar    1  UNL1       -0.0242
      3 C         -11.7603  -18.7569   20.8827 C.ar    1  UNL1       -0.0045
      4 C         -12.6672  -17.7658   21.5500 C.ar    1  UNL1       -0.0007
      5 C         -12.1009  -16.7510   22.4984 C.ar    1  UNL1       -0.0045
      6 C         -10.6276  -16.7273   22.7794 C.ar    1  UNL1       -0.0229
      7 C          -9.7207  -17.7184   22.1121 C.ar    1  UNL1       -0.0079
      8 C          -8.2475  -17.6946   22.3932 C.3     1  UNL1        0.1199
      9 N          -7.6811  -16.6798   23.3416 N.am    1  UNL1       -0.2722
     10 C          -6.2079  -16.6561   23.6227 C.2     1  UNL1        0.2422
     11 O          -5.3010  -17.6471   22.9553 O.2     1  UNL1       -0.2733
     12 C          -8.5881  -15.6888   24.0089 C.3     1  UNL1        0.0987
     13 C         -10.0613  -15.7125   23.7279 C.3     1  UNL1        0.0476
     14 C          -7.3405  -18.6857   21.7259 C.ar    1  UNL1       -0.0001
     15 C          -7.0736  -20.0123   22.3730 C.ar    1  UNL1       -0.0023
     16 C          -6.1667  -21.0034   21.7057 C.ar    1  UNL1       -0.0003
     17 C          -5.5267  -20.6677   20.3912 C.ar    1  UNL1       -0.0000
     18 C          -5.7937  -19.3411   19.7441 C.ar    1  UNL1       -0.0003
     19 C          -6.7006  -18.3501   20.4114 C.ar    1  UNL1       -0.0023
     20 C          -5.6416  -15.6413   24.5711 C.3     1  UNL1        0.1552
     21 N          -5.6057  -15.9283   26.0429 N.3     1  UNL1       -0.2878
     22 H          -4.6258  -15.8996   26.3247 H       1  UNL1        0.1238
     23 C          -6.3567  -15.0478   26.9973 C.3     1  UNL1        0.0985
     24 C          -7.7609  -15.3966   27.3929 C.3     1  UNL1        0.1263
     25 C          -8.2562  -16.8038   27.2375 C.3     1  UNL1        0.0332
     26 O          -8.6697  -14.3381   27.9439 O.3     1  UNL1       -0.3830
     27 H          -8.1970  -13.4918   27.9781 H       1  UNL1        0.2104
@<TRIPOS>BOND
     1     1     2    1
     2     2     3   ar
     3     3     4   ar
     4     4     5   ar
     5     5     6   ar
     6     6     7   ar
     7     7     8    1
     8     8    14    1
     9    14    15   ar
    10    15    16   ar
    11    16    17   ar
    12    17    18   ar
    13    18    19   ar
    14     8     9    1
    15     9    10   am
    16    10    11    2
    17    10    20    1
    18    20    21    1
    19    21    23    1
    20    23    24    1
    21    24    25    1
    22    24    26    1
    23     9    12    1
    24    12    13    1
    25     7     2   ar
    26    19    14   ar
    27    13     6    1
    28    21    22    1
    29    26    27    1
@<TRIPOS>MOLECULE
*****
 27 29 0 0 0
SMALL
GASTEIGER

@<TRIPOS>ATOM
      1 C         -10.3654  -16.0438   23.9166 C.3     1  UNL1        0.0308
      2 C         -10.8663  -16.8816   22.7776 C.ar    1  UNL1       -0.0242
      3 C         -12.3287  -16.8970   22.4443 C.ar    1  UNL1       -0.0045
      4 C         -12.8296  -17.7348   21.3054 C.ar    1  UNL1       -0.0007
      5 C         -11.8681  -18.5572   20.4998 C.ar    1  UNL1       -0.0045
      6 C         -10.4057  -18.5419   20.8331 C.ar    1  UNL1       -0.0229
      7 C          -9.9048  -17.7041   21.9720 C.ar    1  UNL1       -0.0079
      8 C          -8.4423  -17.6888   22.3054 C.3     1  UNL1        0.1199
      9 N          -7.4808  -18.5113   21.4998 N.am    1  UNL1       -0.2722
     10 C          -6.0184  -18.4960   21.8331 C.2     1  UNL1        0.2422
     11 O          -5.5175  -17.6582   22.9720 O.2     1  UNL1       -0.2733
     12 C          -7.9817  -19.3491   20.3608 C.3     1  UNL1        0.0987
     13 C          -9.4441  -19.3644   20.0275 C.3     1  UNL1        0.0476
     14 C          -7.9414  -16.8510   23.4443 C.ar    1  UNL1       -0.0001
     15 C          -7.2671  -15.5393   23.1706 C.ar    1  UNL1       -0.0023
     16 C          -6.7662  -14.7015   24.3095 C.ar    1  UNL1       -0.0003
     17 C          -6.9396  -15.1754   25.7222 C.ar    1  UNL1       -0.0000
     18 C          -7.6139  -16.4870   25.9958 C.ar    1  UNL1       -0.0003
     19 C          -8.1148  -17.3248   24.8569 C.ar    1  UNL1       -0.0023
     20 C          -5.0569  -19.3184   21.0275 C.3     1  UNL1        0.1552
     21 N          -4.4142  -18.7361   19.8036 N.3     1  UNL1       -0.2878
     22 H          -4.4902  -17.7222   19.8853 H       1  UNL1        0.1238
     23 C          -2.9780  -19.0392   19.4944 C.3     1  UNL1        0.0985
     24 C          -1.9614  -17.9363   19.4971 C.3     1  UNL1        0.1263
     25 C          -1.9145  -16.9624   20.6369 C.3     1  UNL1        0.0332
     26 O          -0.9916  -17.8074   18.3600 O.3     1  UNL1       -0.3830
     27 H          -1.1569  -18.5107   17.7127 H       1  UNL1        0.2104
@<TRIPOS>BOND
     1     1     2    1
     2     2     3   ar
     3     3     4   ar
     4     4     5   ar
     5     5     6   ar
     6     6     7   ar
     7     7     8    1
     8     8    14    1
     9    14    15   ar
    10    15    16   ar
    11    16    17   ar
    12    17    18   ar
    13    18    19   ar
    14     8     9    1
    15     9    10   am
    16    10    11    2
    17    10    20    1
    18    20    21    1
    19    21    23    1
    20    23    24    1
    21    24    25    1
    22    24    26    1
    23     9    12    1
    24    12    13    1
    25     7     2   ar
    26    19    14   ar
    27    13     6    1
    28    21    22    1
    29    26    27    1
@<TRIPOS>MOLECULE
*****
 27 29 0 0 0
SMALL
GASTEIGER

@<TRIPOS>ATOM
      1 C         -17.9178   -4.9778   19.6978 C.3     1  UNL1        0.0308
      2 C         -17.9542   -6.4747   19.6090 C.ar    1  UNL1       -0.0242
      3 C         -19.2069   -7.2171   19.9689 C.ar    1  UNL1       -0.0045
      4 C         -19.2433   -8.7140   19.8800 C.ar    1  UNL1       -0.0007
      5 C         -18.0270   -9.4685   19.4313 C.ar    1  UNL1       -0.0045
      6 C         -16.7744   -8.7261   19.0715 C.ar    1  UNL1       -0.0229
      7 C         -16.7379   -7.2292   19.1603 C.ar    1  UNL1       -0.0079
      8 C         -15.4852   -6.4867   18.8004 C.3     1  UNL1        0.1199
      9 N         -14.2689   -7.2412   18.3517 N.am    1  UNL1       -0.2722
     10 C         -13.0161   -6.4988   17.9918 C.2     1  UNL1        0.2422
     11 O         -12.9797   -5.0019   18.0807 O.2     1  UNL1       -0.2733
     12 C         -14.3053   -8.7382   18.2629 C.3     1  UNL1        0.0987
     13 C         -15.5580   -9.4806   18.6227 C.3     1  UNL1        0.0476
     14 C         -15.4488   -4.9898   18.8893 C.ar    1  UNL1       -0.0001
     15 C         -15.8779   -4.1583   17.7169 C.ar    1  UNL1       -0.0023
     16 C         -15.8415   -2.6613   17.8057 C.ar    1  UNL1       -0.0003
     17 C         -15.3760   -1.9960   19.0669 C.ar    1  UNL1       -0.0000
     18 C         -14.9468   -2.8275   20.2392 C.ar    1  UNL1       -0.0003
     19 C         -14.9833   -4.3244   20.1504 C.ar    1  UNL1       -0.0023
     20 C         -11.7999   -7.2533   17.5431 C.3     1  UNL1        0.1552
     21 N         -10.7597   -7.6623   18.5435 N.3     1  UNL1       -0.2878
     22 H         -10.3382   -8.5232   18.1947 H       1  UNL1        0.1238
     23 C          -9.6313   -6.7313   18.8755 C.3     1  UNL1        0.0985
     24 C          -9.6988   -5.2922   18.4579 C.3     1  UNL1        0.1263
     25 C          -9.1411   -4.8694   17.1312 C.3     1  UNL1        0.0332
     26 O         -10.3238   -4.2760   19.3670 O.3     1  UNL1       -0.3830
     27 H         -10.6311   -4.7123   20.1770 H       1  UNL1        0.2104
@<TRIPOS>BOND
     1     1     2    1
     2     2     3   ar
     3     3     4   ar
     4     4     5   ar
     5     5     6   ar
     6     6     7   ar
     7     7     8    1
     8     8    14    1
     9    14    15   ar
    10    15    16   ar
    11    16    17   ar
    12    17    18   ar
    13    18    19   ar
    14     8     9    1
    15     9    10   am
    16    10    11    2
    17    10    20    1
    18    20    21    1
    19    21    23    1
    20    23    24    1
    21    24    25    1
    22    24    26    1
    23     9    12    1
    24    12    13    1
    25     7     2   ar
    26    19    14   ar
    27    13     6    1
    28    21    22    1
    29    26    27    1
@<TRIPOS>MOLECULE
*****
 27 29 0 0 0
SMALL
GASTEIGER

@<TRIPOS>ATOM
      1 C           2.6419   -1.5086   20.0359 C.3     1  UNL1        0.0308
      2 C           2.4128   -0.7782   21.3259 C.ar    1  UNL1       -0.0242
      3 C           1.3759    0.3030   21.4018 C.ar    1  UNL1       -0.0045
      4 C           1.1469    1.0334   22.6918 C.ar    1  UNL1       -0.0007
      5 C           1.9548    0.6826   23.9059 C.ar    1  UNL1       -0.0045
      6 C           2.9917   -0.3986   23.8301 C.ar    1  UNL1       -0.0229
      7 C           3.2207   -1.1290   22.5401 C.ar    1  UNL1       -0.0079
      8 C           4.2577   -2.2102   22.4643 C.3     1  UNL1        0.1199
      9 N           5.0656   -2.5610   23.6784 N.am    1  UNL1       -0.2722
     10 C           6.1026   -3.6422   23.6026 C.2     1  UNL1        0.2422
     11 O           6.3316   -4.3726   22.3126 O.2     1  UNL1       -0.2733
     12 C           4.8366   -1.8306   24.9684 C.3     1  UNL1        0.0987
     13 C           3.7997   -0.7494   25.0443 C.3     1  UNL1        0.0476
     14 C           4.4867   -2.9406   21.1743 C.ar    1  UNL1       -0.0001
     15 C           3.7277   -4.2007   20.8809 C.ar    1  UNL1       -0.0023
     16 C           3.9567   -4.9311   19.5909 C.ar    1  UNL1       -0.0003
     17 C           4.9448   -4.4014   18.5943 C.ar    1  UNL1       -0.0000
     18 C           5.7038   -3.1413   18.8877 C.ar    1  UNL1       -0.0003
     19 C           5.4748   -2.4110   20.1777 C.ar    1  UNL1       -0.0023
     20 C           6.9105   -3.9930   24.8168 C.3     1  UNL1        0.1552
     21 N           6.3965   -5.0111   25.7911 N.3     1  UNL1       -0.2878
     22 H           5.6920   -5.5603   25.2989 H       1  UNL1        0.1238
     23 C           7.3427   -5.9879   26.4242 C.3     1  UNL1        0.0985
     24 C           7.5021   -7.3616   25.8434 C.3     1  UNL1        0.1263
     25 C           8.5052   -7.6039   24.7549 C.3     1  UNL1        0.0332
     26 O           6.6583   -8.4931   26.3511 O.3     1  UNL1       -0.3830
     27 H           6.0672   -8.1682   27.0482 H       1  UNL1        0.2104
@<TRIPOS>BOND
     1     1     2    1
     2     2     3   ar
     3     3     4   ar
     4     4     5   ar
     5     5     6   ar
     6     6     7   ar
     7     7     8    1
     8     8    14    1
     9    14    15   ar
    10    15    16   ar
    11    16    17   ar
    12    17    18   ar
    13    18    19   ar
    14     8     9    1
    15     9    10   am
    16    10    11    2
    17    10    20    1
    18    20    21    1
    19    21    23    1
    20    23    24    1
    21    24    25    1
    22    24    26    1
    23     9    12    1
    24    12    13    1
    25     7     2   ar
    26    19    14   ar
    27    13     6    1
    28    21    22    1
    29    26    27    1
