@<TRIPOS>MOLECULE
*****
 30 34 0 0 0
SMALL
GASTEIGER

@<TRIPOS>ATOM
      1 C           5.4181   -1.5170   32.3553 C.3     1  UNL1        0.0892
      2 C           5.8055   -1.1244   30.9604 C.3     1  UNL1        0.1584
      3 O           6.4330   -2.1329   30.0442 O.3     1  UNL1       -0.3490
      4 C           6.6731   -3.5340   30.5231 C.3     1  UNL1        0.1538
      5 C           6.2857   -3.9266   31.9181 C.3     1  UNL1        0.0841
      6 N           6.5258   -5.3276   32.3968 N.3     1  UNL1       -0.3199
      7 C           5.6582   -2.9181   32.8341 C.3     1  UNL1        0.0368
      8 H           6.9559   -5.8731   31.6499 H       1  UNL1        0.1189
      9 H           5.6374   -5.7537   32.6607 H       1  UNL1        0.1189
     10 C           1.2798    4.5533   36.7396 C.3     1  UNL1        0.0523
     11 C           2.3225    3.5445   37.1207 C.ar    1  UNL1        0.0640
     12 C           2.8282    3.4850   38.5316 C.ar    1  UNL1        0.0355
     13 C           3.8708    2.4762   38.9126 C.ar    1  UNL1        0.1018
     14 N           4.4078    1.5270   37.8828 N.ar    1  UNL1       -0.2252
     15 C           3.9021    1.5866   36.4719 C.ar    1  UNL1        0.1619
     16 C           4.2415    0.7863   35.2494 C.ar    1  UNL1        0.0463
     17 C           3.4086    1.3005   34.1128 C.ar    1  UNL1        0.0954
     18 N           2.5544    2.4185   34.6329 N.ar    1  UNL1       -0.1673
     19 N           2.8594    2.5953   36.0908 N.ar    1  UNL1       -0.2167
     20 C           3.7479    0.5003   32.8903 C.3     1  UNL1        0.1205
     21 N           4.7906   -0.5085   33.2714 N.3     1  UNL1       -0.2627
     22 C           5.0957   -0.3317   34.7294 C.3     1  UNL1        0.1038
     23 C           7.3006   -4.5424   29.6070 C.ar    1  UNL1        0.0355
     24 C           6.4977   -5.1451   28.4925 C.ar    1  UNL1        0.0300
     25 C           7.1253   -6.1535   27.5764 C.ar    1  UNL1        0.1400
     26 F           6.3225   -6.7562   26.4619 F       1  UNL1       -0.2042
     27 C           8.5557   -6.5592   27.7748 C.ar    1  UNL1        0.0319
     28 C           9.3585   -5.9565   28.8893 C.ar    1  UNL1        0.0317
     29 C           8.7310   -4.9481   29.8054 C.ar    1  UNL1        0.1386
     30 F           9.5338   -4.3454   30.9199 F       1  UNL1       -0.2044
@<TRIPOS>BOND
     1    10    11    1
     2    11    12   ar
     3    12    13   ar
     4    13    14   ar
     5    14    15   ar
     6    15    16   ar
     7    16    17   ar
     8    17    18   ar
     9    18    19   ar
    10    17    20    1
    11    20    21    1
    12     1    21    1
    13     1     2    1
    14     2     3    1
    15     3     4    1
    16     4    23    1
    17    23    24   ar
    18    24    25   ar
    19    25    26    1
    20    25    27   ar
    21    27    28   ar
    22    28    29   ar
    23    29    30    1
    24     4     5    1
    25     5     6    1
    26     5     7    1
    27    21    22    1
    28    19    11   ar
    29     7     1    1
    30    19    15   ar
    31    29    23   ar
    32    22    16    1
    33     6     8    1
    34     6     9    1
@<TRIPOS>MOLECULE
*****
 30 34 0 0 0
SMALL
GASTEIGER

@<TRIPOS>ATOM
      1 C           5.8547   -2.5204   32.1950 C.3     1  UNL1        0.0892
      2 C           4.5957   -2.7849   32.9663 C.3     1  UNL1        0.1584
      3 O           4.1048   -1.7818   33.9677 O.3     1  UNL1       -0.3490
      4 C           4.8730   -0.5141   34.1978 C.3     1  UNL1        0.1538
      5 C           6.1321   -0.2496   33.4264 C.3     1  UNL1        0.0841
      6 N           6.9001    1.0181   33.6566 N.3     1  UNL1       -0.3199
      7 C           6.6229   -1.2527   32.4251 C.3     1  UNL1        0.0368
      8 H           6.4265    1.5788   34.3648 H       1  UNL1        0.1189
      9 H           6.9542    1.5458   32.7853 H       1  UNL1        0.1189
     10 C           8.9319   -8.8372   27.3139 C.3     1  UNL1        0.0523
     11 C           8.3000   -7.5138   26.9991 C.ar    1  UNL1        0.0640
     12 C           8.1118   -7.0932   25.5717 C.ar    1  UNL1        0.0355
     13 C           7.4798   -5.7697   25.2568 C.ar    1  UNL1        0.1018
     14 N           7.0361   -4.8669   26.3694 N.ar    1  UNL1       -0.2252
     15 C           7.2243   -5.2875   27.7968 C.ar    1  UNL1        0.1619
     16 C           6.8886   -4.6138   29.0943 C.ar    1  UNL1        0.0463
     17 C           7.3131   -5.5208   30.2110 C.ar    1  UNL1        0.0954
     18 N           7.9111   -6.7551   29.6037 N.ar    1  UNL1       -0.1673
     19 N           7.8562   -6.6110   28.1117 N.ar    1  UNL1       -0.2167
     20 C           6.9775   -4.8470   31.5085 C.3     1  UNL1        0.1205
     21 N           6.3456   -3.5236   31.1937 N.3     1  UNL1       -0.2627
     22 C           6.2906   -3.3794   29.7016 C.3     1  UNL1        0.1038
     23 C           4.3821    0.4890   35.1991 C.ar    1  UNL1        0.0355
     24 C           3.3493    1.5017   34.8019 C.ar    1  UNL1        0.0300
     25 C           2.8585    2.5048   35.8033 C.ar    1  UNL1        0.1400
     26 F           1.8257    3.5175   35.4061 F       1  UNL1       -0.2042
     27 C           3.4004    2.4952   37.2020 C.ar    1  UNL1        0.0319
     28 C           4.4332    1.4825   37.5992 C.ar    1  UNL1        0.0317
     29 C           4.9240    0.4794   36.5978 C.ar    1  UNL1        0.1386
     30 F           5.9568   -0.5332   36.9950 F       1  UNL1       -0.2044
@<TRIPOS>BOND
     1    10    11    1
     2    11    12   ar
     3    12    13   ar
     4    13    14   ar
     5    14    15   ar
     6    15    16   ar
     7    16    17   ar
     8    17    18   ar
     9    18    19   ar
    10    17    20    1
    11    20    21    1
    12     1    21    1
    13     1     2    1
    14     2     3    1
    15     3     4    1
    16     4    23    1
    17    23    24   ar
    18    24    25   ar
    19    25    26    1
    20    25    27   ar
    21    27    28   ar
    22    28    29   ar
    23    29    30    1
    24     4     5    1
    25     5     6    1
    26     5     7    1
    27    21    22    1
    28    19    11   ar
    29     7     1    1
    30    19    15   ar
    31    29    23   ar
    32    22    16    1
    33     6     8    1
    34     6     9    1
@<TRIPOS>MOLECULE
*****
 30 34 0 0 0
SMALL
GASTEIGER

@<TRIPOS>ATOM
      1 C           5.8917   -2.6814   23.8800 C.3     1  UNL1        0.0892
      2 C           5.7073   -1.2211   23.5913 C.3     1  UNL1        0.1584
      3 O           5.4428   -0.7615   22.1881 O.3     1  UNL1       -0.3490
      4 C           5.3626   -1.7624   21.0736 C.3     1  UNL1        0.1538
      5 C           5.5470   -3.2228   21.3625 C.3     1  UNL1        0.0841
      6 N           5.4668   -4.2235   20.2481 N.3     1  UNL1       -0.3199
      7 C           5.8116   -3.6823   22.7656 C.3     1  UNL1        0.0368
      8 H           5.2825   -3.7397   19.3692 H       1  UNL1        0.1189
      9 H           4.7126   -4.8836   20.4375 H       1  UNL1        0.1189
     10 C           7.7706   -6.1949   31.4511 C.3     1  UNL1        0.0523
     11 C           7.1770   -4.8764   31.0523 C.ar    1  UNL1        0.0640
     12 C           6.7899   -3.8793   32.1039 C.ar    1  UNL1        0.0355
     13 C           6.1963   -2.5608   31.7050 C.ar    1  UNL1        0.1018
     14 N           5.9898   -2.2393   30.2545 N.ar    1  UNL1       -0.2252
     15 C           6.3769   -3.2364   29.2029 C.ar    1  UNL1        0.1619
     16 C           6.2926   -3.1999   27.7057 C.ar    1  UNL1        0.0463
     17 C           6.8341   -4.4959   27.1792 C.ar    1  UNL1        0.0954
     18 N           7.2531   -5.3333   28.3511 N.ar    1  UNL1       -0.1673
     19 N           6.9705   -4.5549   29.6018 N.ar    1  UNL1       -0.2167
     20 C           6.7499   -4.4594   25.6820 C.3     1  UNL1        0.1205
     21 N           6.1563   -3.1409   25.2832 N.3     1  UNL1       -0.2627
     22 C           5.8737   -2.3624   26.5339 C.3     1  UNL1        0.1038
     23 C           5.0980   -1.3029   19.6706 C.ar    1  UNL1        0.0355
     24 C           6.2210   -0.7682   18.8321 C.ar    1  UNL1        0.0300
     25 C           5.9564   -0.3087   17.4290 C.ar    1  UNL1        0.1400
     26 F           7.0794    0.2259   16.5905 F       1  UNL1       -0.2042
     27 C           4.5687   -0.3838   16.8643 C.ar    1  UNL1        0.0319
     28 C           3.4457   -0.9184   17.7028 C.ar    1  UNL1        0.0317
     29 C           3.7104   -1.3780   19.1059 C.ar    1  UNL1        0.1386
     30 F           2.5874   -1.9126   19.9443 F       1  UNL1       -0.2044
@<TRIPOS>BOND
     1    10    11    1
     2    11    12   ar
     3    12    13   ar
     4    13    14   ar
     5    14    15   ar
     6    15    16   ar
     7    16    17   ar
     8    17    18   ar
     9    18    19   ar
    10    17    20    1
    11    20    21    1
    12     1    21    1
    13     1     2    1
    14     2     3    1
    15     3     4    1
    16     4    23    1
    17    23    24   ar
    18    24    25   ar
    19    25    26    1
    20    25    27   ar
    21    27    28   ar
    22    28    29   ar
    23    29    30    1
    24     4     5    1
    25     5     6    1
    26     5     7    1
    27    21    22    1
    28    19    11   ar
    29     7     1    1
    30    19    15   ar
    31    29    23   ar
    32    22    16    1
    33     6     8    1
    34     6     9    1
@<TRIPOS>MOLECULE
*****
 30 34 0 0 0
SMALL
GASTEIGER

@<TRIPOS>ATOM
      1 C          -0.9549    2.6897   27.2356 C.3     1  UNL1        0.0892
      2 C          -0.0165    3.6956   27.8336 C.3     1  UNL1        0.1584
      3 O           0.8391    3.3184   29.0066 O.3     1  UNL1       -0.3490
      4 C           0.7561    1.9355   29.5816 C.3     1  UNL1        0.1538
      5 C          -0.1823    0.9296   28.9835 C.3     1  UNL1        0.0841
      6 N          -0.2652   -0.4533   29.5584 N.3     1  UNL1       -0.3199
      7 C          -1.0378    1.3068   27.8105 C.3     1  UNL1        0.0368
      8 H           0.3800   -0.5340   30.3443 H       1  UNL1        0.1189
      9 H          -0.0153   -1.1349   28.8420 H       1  UNL1        0.1189
     10 C          -4.9602    4.7349   19.9575 C.3     1  UNL1        0.0523
     11 C          -5.4183    4.6161   21.3808 C.ar    1  UNL1        0.0640
     12 C          -6.8514    4.8856   21.7325 C.ar    1  UNL1        0.0355
     13 C          -7.3095    4.7667   23.1559 C.ar    1  UNL1        0.1018
     14 N          -6.3345    4.3783   24.2276 N.ar    1  UNL1       -0.2252
     15 C          -4.9015    4.1088   23.8759 C.ar    1  UNL1        0.1619
     16 C          -3.7208    3.7108   24.7111 C.ar    1  UNL1        0.0463
     17 C          -2.5330    3.5837   23.8040 C.ar    1  UNL1        0.0954
     18 N          -2.9796    3.9032   22.4081 N.ar    1  UNL1       -0.1673
     19 N          -4.4434    4.2277   22.4525 N.ar    1  UNL1       -0.2167
     20 C          -1.3523    3.1857   24.6392 C.3     1  UNL1        0.1205
     21 N          -1.8104    3.0669   26.0626 N.3     1  UNL1       -0.2627
     22 C          -3.2742    3.3914   26.1071 C.3     1  UNL1        0.1038
     23 C           1.6116    1.5584   30.7545 C.ar    1  UNL1        0.0355
     24 C           1.3457    2.1621   32.1016 C.ar    1  UNL1        0.0300
     25 C           2.2013    1.7850   33.2746 C.ar    1  UNL1        0.1400
     26 F           1.9354    2.3888   34.6217 F       1  UNL1       -0.2042
     27 C           3.3227    0.8041   33.1004 C.ar    1  UNL1        0.0319
     28 C           3.5886    0.2004   31.7533 C.ar    1  UNL1        0.0317
     29 C           2.7330    0.5775   30.5803 C.ar    1  UNL1        0.1386
     30 F           2.9989   -0.0263   29.2332 F       1  UNL1       -0.2044
@<TRIPOS>BOND
     1    10    11    1
     2    11    12   ar
     3    12    13   ar
     4    13    14   ar
     5    14    15   ar
     6    15    16   ar
     7    16    17   ar
     8    17    18   ar
     9    18    19   ar
    10    17    20    1
    11    20    21    1
    12     1    21    1
    13     1     2    1
    14     2     3    1
    15     3     4    1
    16     4    23    1
    17    23    24   ar
    18    24    25   ar
    19    25    26    1
    20    25    27   ar
    21    27    28   ar
    22    28    29   ar
    23    29    30    1
    24     4     5    1
    25     5     6    1
    26     5     7    1
    27    21    22    1
    28    19    11   ar
    29     7     1    1
    30    19    15   ar
    31    29    23   ar
    32    22    16    1
    33     6     8    1
    34     6     9    1
@<TRIPOS>MOLECULE
*****
 30 34 0 0 0
SMALL
GASTEIGER

@<TRIPOS>ATOM
      1 C          -1.0314    2.7406   27.3542 C.3     1  UNL1        0.0892
      2 C          -0.1395    3.7836   27.9598 C.3     1  UNL1        0.1584
      3 O           0.7803    3.4208   29.0878 O.3     1  UNL1       -0.3490
      4 C           0.8082    2.0150   29.6103 C.3     1  UNL1        0.1538
      5 C          -0.0837    0.9720   29.0047 C.3     1  UNL1        0.0841
      6 N          -0.0557   -0.4337   29.5271 N.3     1  UNL1       -0.3199
      7 C          -1.0035    1.3348   27.8767 C.3     1  UNL1        0.0368
      8 H           0.6212   -0.5005   30.2872 H       1  UNL1        0.1189
      9 H           0.2121   -1.0702   28.7764 H       1  UNL1        0.1189
     10 C          -6.9309    5.1890   21.6623 C.3     1  UNL1        0.0523
     11 C          -5.5937    4.5222   21.5300 C.ar    1  UNL1        0.0640
     12 C          -5.0684    4.1578   20.1732 C.ar    1  UNL1        0.0355
     13 C          -3.7312    3.4910   20.0408 C.ar    1  UNL1        0.1018
     14 N          -2.9194    3.1888   21.2654 N.ar    1  UNL1       -0.2252
     15 C          -3.4448    3.5533   22.6222 C.ar    1  UNL1        0.1619
     16 C          -2.8743    3.3815   23.9989 C.ar    1  UNL1        0.0463
     17 C          -3.8588    3.9420   24.9820 C.ar    1  UNL1        0.0954
     18 N          -5.0378    4.4602   24.2129 N.ar    1  UNL1       -0.1673
     19 N          -4.7819    4.2200   22.7546 N.ar    1  UNL1       -0.2167
     20 C          -3.2883    3.7701   26.3586 C.3     1  UNL1        0.1205
     21 N          -1.9512    3.1034   26.2263 N.3     1  UNL1       -0.2627
     22 C          -1.6952    2.8632   24.7679 C.3     1  UNL1        0.1038
     23 C           1.7280    1.6523   30.7382 C.ar    1  UNL1        0.0355
     24 C           1.4162    2.1024   32.1346 C.ar    1  UNL1        0.0300
     25 C           2.3360    1.7396   33.2626 C.ar    1  UNL1        0.1400
     26 F           2.0242    2.1898   34.6590 F       1  UNL1       -0.2042
     27 C           3.5677    0.9267   32.9940 C.ar    1  UNL1        0.0319
     28 C           3.8796    0.4765   31.5976 C.ar    1  UNL1        0.0317
     29 C           2.9597    0.8393   30.4697 C.ar    1  UNL1        0.1386
     30 F           3.2716    0.3892   29.0732 F       1  UNL1       -0.2044
@<TRIPOS>BOND
     1    10    11    1
     2    11    12   ar
     3    12    13   ar
     4    13    14   ar
     5    14    15   ar
     6    15    16   ar
     7    16    17   ar
     8    17    18   ar
     9    18    19   ar
    10    17    20    1
    11    20    21    1
    12     1    21    1
    13     1     2    1
    14     2     3    1
    15     3     4    1
    16     4    23    1
    17    23    24   ar
    18    24    25   ar
    19    25    26    1
    20    25    27   ar
    21    27    28   ar
    22    28    29   ar
    23    29    30    1
    24     4     5    1
    25     5     6    1
    26     5     7    1
    27    21    22    1
    28    19    11   ar
    29     7     1    1
    30    19    15   ar
    31    29    23   ar
    32    22    16    1
    33     6     8    1
    34     6     9    1
@<TRIPOS>MOLECULE
*****
 30 34 0 0 0
SMALL
GASTEIGER

@<TRIPOS>ATOM
      1 C           3.9191   -1.0878   25.2739 C.3     1  UNL1        0.0892
      2 C           5.0846   -1.9861   24.9832 C.3     1  UNL1        0.1584
      3 O           5.3502   -2.4392   23.5780 O.3     1  UNL1       -0.3490
      4 C           4.4502   -1.9938   22.4637 C.3     1  UNL1        0.1538
      5 C           3.2847   -1.0954   22.7545 C.3     1  UNL1        0.0841
      6 N           2.3848   -0.6501   21.6401 N.3     1  UNL1       -0.3199
      7 C           3.0191   -0.6424   24.1595 C.3     1  UNL1        0.0368
      8 H           2.7106   -1.0494   20.7599 H       1  UNL1        0.1189
      9 H           2.3992    0.3679   21.5777 H       1  UNL1        0.1189
     10 C           1.6937    2.1595   32.8699 C.3     1  UNL1        0.0523
     11 C           2.6794    1.1082   32.4539 C.ar    1  UNL1        0.0640
     12 C           3.5082    0.4059   33.4881 C.ar    1  UNL1        0.0355
     13 C           4.4939   -0.6454   33.0721 C.ar    1  UNL1        0.1018
     14 N           4.6508   -0.9945   31.6218 N.ar    1  UNL1       -0.2252
     15 C           3.8220   -0.2922   30.5875 C.ar    1  UNL1        0.1619
     16 C           3.7577   -0.4231   29.0946 C.ar    1  UNL1        0.0463
     17 C           2.7322    0.5473   28.5879 C.ar    1  UNL1        0.0954
     18 N           2.1628    1.2780   29.7677 N.ar    1  UNL1       -0.1673
     19 N           2.8363    0.7591   31.0035 N.ar    1  UNL1       -0.2167
     20 C           2.6678    0.4165   27.0950 C.3     1  UNL1        0.1205
     21 N           3.6535   -0.6348   26.6790 N.3     1  UNL1       -0.2627
     22 C           4.3271   -1.1538   27.9147 C.3     1  UNL1        0.1038
     23 C           4.7159   -2.4468   21.0586 C.ar    1  UNL1        0.0355
     24 C           4.4728   -3.8757   20.6727 C.ar    1  UNL1        0.0300
     25 C           4.7385   -4.3286   19.2676 C.ar    1  UNL1        0.1400
     26 F           4.4954   -5.7576   18.8817 F       1  UNL1       -0.2042
     27 C           5.2471   -3.3526   18.2485 C.ar    1  UNL1        0.0319
     28 C           5.4902   -1.9237   18.6344 C.ar    1  UNL1        0.0317
     29 C           5.2246   -1.4707   20.0395 C.ar    1  UNL1        0.1386
     30 F           5.4676   -0.0418   20.4254 F       1  UNL1       -0.2044
@<TRIPOS>BOND
     1    10    11    1
     2    11    12   ar
     3    12    13   ar
     4    13    14   ar
     5    14    15   ar
     6    15    16   ar
     7    16    17   ar
     8    17    18   ar
     9    18    19   ar
    10    17    20    1
    11    20    21    1
    12     1    21    1
    13     1     2    1
    14     2     3    1
    15     3     4    1
    16     4    23    1
    17    23    24   ar
    18    24    25   ar
    19    25    26    1
    20    25    27   ar
    21    27    28   ar
    22    28    29   ar
    23    29    30    1
    24     4     5    1
    25     5     6    1
    26     5     7    1
    27    21    22    1
    28    19    11   ar
    29     7     1    1
    30    19    15   ar
    31    29    23   ar
    32    22    16    1
    33     6     8    1
    34     6     9    1
@<TRIPOS>MOLECULE
*****
 30 34 0 0 0
SMALL
GASTEIGER

@<TRIPOS>ATOM
      1 C           0.1565    1.5272   20.7435 C.3     1  UNL1        0.0892
      2 C           0.3852    1.3471   19.2721 C.3     1  UNL1        0.1584
      3 O           1.4547    0.4132   18.7880 O.3     1  UNL1       -0.3490
      4 C           2.2955   -0.3405   19.7755 C.3     1  UNL1        0.1538
      5 C           2.0668   -0.1603   21.2470 C.3     1  UNL1        0.0841
      6 N           2.9075   -0.9140   22.2344 N.3     1  UNL1       -0.3199
      7 C           0.9973    0.7735   21.7310 C.3     1  UNL1        0.0368
      8 H           3.5786   -1.4971   21.7343 H       1  UNL1        0.1189
      9 H           2.3078   -1.5040   22.8112 H       1  UNL1        0.1189
     10 C          -5.3587    6.9638   24.3796 C.3     1  UNL1        0.0523
     11 C          -5.3479    6.2411   23.0652 C.ar    1  UNL1        0.0640
     12 C          -6.4805    6.4247   22.0991 C.ar    1  UNL1        0.0355
     13 C          -6.4697    5.7020   20.7847 C.ar    1  UNL1        0.1018
     14 N          -5.3263    4.7958   20.4364 N.ar    1  UNL1       -0.2252
     15 C          -4.1937    4.6122   21.4026 C.ar    1  UNL1        0.1619
     16 C          -2.9406    3.7905   21.3357 C.ar    1  UNL1        0.0463
     17 C          -2.1769    4.0054   22.6088 C.ar    1  UNL1        0.0954
     18 N          -2.9580    4.9599   23.4624 N.ar    1  UNL1       -0.1673
     19 N          -4.2045    5.3349   22.7170 N.ar    1  UNL1       -0.2167
     20 C          -0.9237    3.1837   22.5419 C.3     1  UNL1        0.1205
     21 N          -0.9129    2.4610   21.2275 N.3     1  UNL1       -0.2627
     22 C          -2.1594    2.8360   20.4820 C.3     1  UNL1        0.1038
     23 C           3.3649   -1.2742   19.2914 C.ar    1  UNL1        0.0355
     24 C           3.1610   -2.7577   19.3787 C.ar    1  UNL1        0.0300
     25 C           4.2305   -3.6914   18.8946 C.ar    1  UNL1        0.1400
     26 F           4.0267   -5.1749   18.9818 F       1  UNL1       -0.2042
     27 C           5.5039   -3.1417   18.3233 C.ar    1  UNL1        0.0319
     28 C           5.7077   -1.6582   18.2361 C.ar    1  UNL1        0.0317
     29 C           4.6383   -0.7244   18.7201 C.ar    1  UNL1        0.1386
     30 F           4.8421    0.7591   18.6329 F       1  UNL1       -0.2044
@<TRIPOS>BOND
     1    10    11    1
     2    11    12   ar
     3    12    13   ar
     4    13    14   ar
     5    14    15   ar
     6    15    16   ar
     7    16    17   ar
     8    17    18   ar
     9    18    19   ar
    10    17    20    1
    11    20    21    1
    12     1    21    1
    13     1     2    1
    14     2     3    1
    15     3     4    1
    16     4    23    1
    17    23    24   ar
    18    24    25   ar
    19    25    26    1
    20    25    27   ar
    21    27    28   ar
    22    28    29   ar
    23    29    30    1
    24     4     5    1
    25     5     6    1
    26     5     7    1
    27    21    22    1
    28    19    11   ar
    29     7     1    1
    30    19    15   ar
    31    29    23   ar
    32    22    16    1
    33     6     8    1
    34     6     9    1
@<TRIPOS>MOLECULE
*****
 30 34 0 0 0
SMALL
GASTEIGER

@<TRIPOS>ATOM
      1 C           0.9482    2.4692   30.2699 C.3     1  UNL1        0.0892
      2 C           0.7212    3.8680   29.7780 C.3     1  UNL1        0.1584
      3 O           0.0775    4.0983   28.4428 O.3     1  UNL1       -0.3490
      4 C          -0.3392    2.9298   27.5995 C.3     1  UNL1        0.1538
      5 C          -0.1122    1.5310   28.0915 C.3     1  UNL1        0.0841
      6 N          -0.5288    0.3626   27.2483 N.3     1  UNL1       -0.3199
      7 C           0.5315    1.3007   29.4267 C.3     1  UNL1        0.0368
      8 H          -0.9456    0.7008   26.3808 H       1  UNL1        0.1189
      9 H          -1.2120   -0.1979   27.7577 H       1  UNL1        0.1189
     10 C           3.9188    1.8504   38.2692 C.3     1  UNL1        0.0523
     11 C           4.3130    1.1998   36.9764 C.ar    1  UNL1        0.0640
     12 C           5.4471    0.2186   36.9458 C.ar    1  UNL1        0.0355
     13 C           5.8412   -0.4321   35.6530 C.ar    1  UNL1        0.1018
     14 N           5.1013   -0.1016   34.3909 N.ar    1  UNL1       -0.2252
     15 C           3.9672    0.8796   34.4215 C.ar    1  UNL1        0.1619
     16 C           3.0599    1.3989   33.3457 C.ar    1  UNL1        0.0463
     17 C           2.1050    2.3704   33.9736 C.ar    1  UNL1        0.0954
     18 N           2.4222    2.4517   35.4374 N.ar    1  UNL1       -0.1673
     19 N           3.5730    1.5303   35.7142 N.ar    1  UNL1       -0.2167
     20 C           1.1977    2.8897   32.8978 C.3     1  UNL1        0.1205
     21 N           1.5919    2.2390   31.6051 N.3     1  UNL1       -0.2627
     22 C           2.7428    1.3176   31.8818 C.3     1  UNL1        0.1038
     23 C          -0.9829    3.1601   26.2644 C.ar    1  UNL1        0.0355
     24 C          -2.4526    3.4474   26.1799 C.ar    1  UNL1        0.0300
     25 C          -3.0962    3.6777   24.8447 C.ar    1  UNL1        0.1400
     26 F          -4.5660    3.9650   24.7603 F       1  UNL1       -0.2042
     27 C          -2.2701    3.6207   23.5941 C.ar    1  UNL1        0.0319
     28 C          -0.8003    3.3334   23.6785 C.ar    1  UNL1        0.0317
     29 C          -0.1567    3.1031   25.0137 C.ar    1  UNL1        0.1386
     30 F           1.3131    2.8158   25.0982 F       1  UNL1       -0.2044
@<TRIPOS>BOND
     1    10    11    1
     2    11    12   ar
     3    12    13   ar
     4    13    14   ar
     5    14    15   ar
     6    15    16   ar
     7    16    17   ar
     8    17    18   ar
     9    18    19   ar
    10    17    20    1
    11    20    21    1
    12     1    21    1
    13     1     2    1
    14     2     3    1
    15     3     4    1
    16     4    23    1
    17    23    24   ar
    18    24    25   ar
    19    25    26    1
    20    25    27   ar
    21    27    28   ar
    22    28    29   ar
    23    29    30    1
    24     4     5    1
    25     5     6    1
    26     5     7    1
    27    21    22    1
    28    19    11   ar
    29     7     1    1
    30    19    15   ar
    31    29    23   ar
    32    22    16    1
    33     6     8    1
    34     6     9    1
@<TRIPOS>MOLECULE
*****
 30 34 0 0 0
SMALL
GASTEIGER

@<TRIPOS>ATOM
      1 C           5.4251   -1.0641   32.8283 C.3     1  UNL1        0.0892
      2 C           4.6707   -1.7070   33.9541 C.3     1  UNL1        0.1584
      3 O           4.3224   -0.9091   35.1757 O.3     1  UNL1       -0.3490
      4 C           4.7286    0.5317   35.2713 C.3     1  UNL1        0.1538
      5 C           5.4832    1.1746   34.1455 C.3     1  UNL1        0.0841
      6 N           5.8894    2.6152   34.2412 N.3     1  UNL1       -0.3199
      7 C           5.8314    0.3766   32.9240 C.3     1  UNL1        0.0368
      8 H           5.5732    2.9991   35.1318 H       1  UNL1        0.1189
      9 H           5.4660    3.1395   33.4755 H       1  UNL1        0.1189
     10 C           7.0367   -4.7986   25.3014 C.3     1  UNL1        0.0523
     11 C           7.2448   -5.2275   26.7237 C.ar    1  UNL1        0.0640
     12 C           7.8526   -6.5659   27.0221 C.ar    1  UNL1        0.0355
     13 C           8.0607   -6.9948   28.4443 C.ar    1  UNL1        0.1018
     14 N           7.6611   -6.0853   29.5681 N.ar    1  UNL1       -0.2252
     15 C           7.0533   -4.7468   29.2697 C.ar    1  UNL1        0.1619
     16 C           6.5644   -3.6449   30.1624 C.ar    1  UNL1        0.0463
     17 C           6.0541   -2.5351   29.2919 C.ar    1  UNL1        0.0954
     18 N           6.2276   -2.9510   27.8612 N.ar    1  UNL1       -0.1673
     19 N           6.8451   -4.3179   27.8475 N.ar    1  UNL1       -0.2167
     20 C           5.5652   -1.4332   30.1845 C.3     1  UNL1        0.1205
     21 N           5.7734   -1.8621   31.6068 N.3     1  UNL1       -0.2627
     22 C           6.3909   -3.2290   31.5931 C.3     1  UNL1        0.1038
     23 C           4.3804    1.3295   36.4928 C.ar    1  UNL1        0.0355
     24 C           3.0282    1.9677   36.6115 C.ar    1  UNL1        0.0300
     25 C           2.6800    2.7656   37.8330 C.ar    1  UNL1        0.1400
     26 F           1.3277    3.4038   37.9516 F       1  UNL1       -0.2042
     27 C           3.6840    2.9252   38.9359 C.ar    1  UNL1        0.0319
     28 C           5.0363    2.2870   38.8173 C.ar    1  UNL1        0.0317
     29 C           5.3845    1.4891   37.5957 C.ar    1  UNL1        0.1386
     30 F           6.7367    0.8509   37.4771 F       1  UNL1       -0.2044
@<TRIPOS>BOND
     1    10    11    1
     2    11    12   ar
     3    12    13   ar
     4    13    14   ar
     5    14    15   ar
     6    15    16   ar
     7    16    17   ar
     8    17    18   ar
     9    18    19   ar
    10    17    20    1
    11    20    21    1
    12     1    21    1
    13     1     2    1
    14     2     3    1
    15     3     4    1
    16     4    23    1
    17    23    24   ar
    18    24    25   ar
    19    25    26    1
    20    25    27   ar
    21    27    28   ar
    22    28    29   ar
    23    29    30    1
    24     4     5    1
    25     5     6    1
    26     5     7    1
    27    21    22    1
    28    19    11   ar
    29     7     1    1
    30    19    15   ar
    31    29    23   ar
    32    22    16    1
    33     6     8    1
    34     6     9    1
