@<TRIPOS>MOLECULE
*****
 33 36 0 0 0
SMALL
GASTEIGER

@<TRIPOS>ATOM
      1 C          -7.2190  -17.1406   23.3648 C.ar    1  UNL1        0.1646
      2 N          -5.9076  -16.4693   23.6475 N.ar    1  UNL1       -0.1496
      3 N          -4.6355  -17.0502   23.1048 N.ar    1  UNL1       -0.2218
      4 C          -3.2048  -16.6136   23.2170 C.ar    1  UNL1        0.1014
      5 C          -2.3599  -17.5958   22.4611 C.ar    1  UNL1        0.0326
      6 C          -3.2684  -18.6394   21.8817 C.ar    1  UNL1        0.0923
      7 C          -4.6748  -18.3021   22.2796 C.ar    1  UNL1        0.1487
      8 C          -5.9862  -18.9733   21.9970 C.ar    1  UNL1        0.2840
      9 O          -6.0255  -20.2253   21.1718 O.2     1  UNL1       -0.2649
     10 N          -7.2582  -18.3925   22.5396 N.ar    1  UNL1       -0.2587
     11 C          -8.5696  -19.0637   22.2570 C.ar    1  UNL1        0.0681
     12 C          -9.1849  -18.9630   20.8928 C.ar    1  UNL1        0.0176
     13 C         -10.4963  -19.6342   20.6101 C.ar    1  UNL1        0.0015
     14 C         -11.1923  -20.4061   21.6917 C.ar    1  UNL1        0.0001
     15 C         -10.5770  -20.5067   23.0559 C.ar    1  UNL1        0.0015
     16 C          -9.2656  -19.8355   23.3386 C.ar    1  UNL1        0.0176
     17 C          -8.9447  -16.9111   25.2934 C.3     1  UNL1        0.0295
     18 C          -8.4911  -16.5597   23.9075 C.3     1  UNL1        0.1301
     19 N          -9.3096  -15.6275   23.0643 N.pl3   1  UNL1       -0.3129
     20 H          -9.0243  -14.6929   22.9450 H       1  UNL1        0.1486
     21 C         -10.5627  -16.1194   22.4027 C.ar    1  UNL1        0.1429
     22 N         -11.4706  -17.0683   23.1275 N.ar    1  UNL1       -0.2084
     23 C         -12.7237  -17.5602   22.4659 C.ar    1  UNL1        0.2012
     24 N         -13.0689  -17.1032   21.0796 N.ar    1  UNL1       -0.2087
     25 C         -12.1610  -16.1543   20.3547 C.ar    1  UNL1        0.1396
     26 N         -12.5062  -15.6974   18.9684 N.pl3   1  UNL1       -0.3420
     27 C         -10.9079  -15.6624   21.0163 C.ar    1  UNL1        0.1308
     28 H         -13.3287  -16.0202   18.5342 H       1  UNL1        0.1437
     29 H         -11.9103  -15.0746   18.4927 H       1  UNL1        0.1437
     30 C         -10.0000  -14.7136   20.2915 C.1     1  UNL1        0.1061
     31 N          -9.0920  -13.7647   19.5668 N.1     1  UNL1       -0.1906
     32 C          -2.8448  -19.8140   21.0505 C.1     1  UNL1        0.1021
     33 N          -2.4212  -20.9885   20.2193 N.1     1  UNL1       -0.1908
@<TRIPOS>BOND
     1    18    17    1
     2    18    19    1
     3    19    21    1
     4    21    22   ar
     5    22    23   ar
     6    23    24   ar
     7    24    25   ar
     8    25    26    1
     9    25    27   ar
    10    27    30    1
    11    30    31    3
    12    18     1    1
    13     1     2   ar
    14     2     3   ar
    15     3     4   ar
    16     4     5   ar
    17     5     6   ar
    18     6    32    1
    19    32    33    3
    20     6     7   ar
    21     7     8   ar
    22     8     9    2
    23     8    10   ar
    24    10    11    1
    25    11    12   ar
    26    12    13   ar
    27    13    14   ar
    28    14    15   ar
    29    15    16   ar
    30    27    21   ar
    31    10     1   ar
    32    16    11   ar
    33     7     3   ar
    34    19    20    1
    35    26    28    1
    36    26    29    1
@<TRIPOS>MOLECULE
*****
 33 36 0 0 0
SMALL
GASTEIGER

@<TRIPOS>ATOM
      1 C         -15.0162   -4.9692   19.1566 C.ar    1  UNL1        0.1646
      2 N         -16.4470   -5.0393   19.6019 N.ar    1  UNL1       -0.1496
      3 N         -17.1436   -6.3653   19.6813 N.ar    1  UNL1       -0.2218
      4 C         -18.5385   -6.7437   20.0825 C.ar    1  UNL1        0.1014
      5 C         -18.6666   -8.2336   19.9646 C.ar    1  UNL1        0.0326
      6 C         -17.3509   -8.7759   19.4905 C.ar    1  UNL1        0.0923
      7 C         -16.4096   -7.6212   19.3154 C.ar    1  UNL1        0.1487
      8 C         -14.9789   -7.5511   18.8702 C.ar    1  UNL1        0.2840
      9 O         -14.2449   -8.8071   18.5043 O.2     1  UNL1       -0.2649
     10 N         -14.2823   -6.2251   18.7907 N.ar    1  UNL1       -0.2587
     11 C         -12.8515   -6.1551   18.3454 C.ar    1  UNL1        0.0681
     12 C         -12.5132   -6.2678   16.8884 C.ar    1  UNL1        0.0176
     13 C         -11.0826   -6.1978   16.4431 C.ar    1  UNL1        0.0015
     14 C          -9.9903   -6.0150   17.4547 C.ar    1  UNL1        0.0001
     15 C         -10.3286   -5.9023   18.9117 C.ar    1  UNL1        0.0015
     16 C         -11.7593   -5.9723   19.3570 C.ar    1  UNL1        0.0176
     17 C         -13.7477   -3.0209   20.3164 C.3     1  UNL1        0.0295
     18 C         -14.3195   -3.6431   19.0771 C.3     1  UNL1        0.1301
     19 N         -14.1947   -2.9393   17.7584 N.pl3   1  UNL1       -0.3129
     20 H         -14.9225   -2.9984   17.0981 H       1  UNL1        0.1486
     21 C         -12.9610   -2.1455   17.4458 C.ar    1  UNL1        0.1429
     22 N         -11.6713   -2.8506   17.1462 N.ar    1  UNL1       -0.2084
     23 C         -10.4377   -2.0567   16.8337 C.ar    1  UNL1        0.2012
     24 N         -10.4936   -0.5578   16.8206 N.ar    1  UNL1       -0.2087
     25 C         -11.7832    0.1473   17.1202 C.ar    1  UNL1        0.1396
     26 N         -11.8391    1.6462   17.1071 N.pl3   1  UNL1       -0.3420
     27 C         -13.0169   -0.6465   17.4328 C.ar    1  UNL1        0.1308
     28 H         -11.0294    2.1672   16.9020 H       1  UNL1        0.1437
     29 H         -12.6855    2.1089   17.3037 H       1  UNL1        0.1437
     30 C         -14.3065    0.0585   17.7323 C.1     1  UNL1        0.1061
     31 N         -15.5962    0.7636   18.0318 N.1     1  UNL1       -0.1906
     32 C         -17.0324  -10.2195   19.2362 C.1     1  UNL1        0.1021
     33 N         -16.7139  -11.6630   18.9819 N.1     1  UNL1       -0.1908
@<TRIPOS>BOND
     1    18    17    1
     2    18    19    1
     3    19    21    1
     4    21    22   ar
     5    22    23   ar
     6    23    24   ar
     7    24    25   ar
     8    25    26    1
     9    25    27   ar
    10    27    30    1
    11    30    31    3
    12    18     1    1
    13     1     2   ar
    14     2     3   ar
    15     3     4   ar
    16     4     5   ar
    17     5     6   ar
    18     6    32    1
    19    32    33    3
    20     6     7   ar
    21     7     8   ar
    22     8     9    2
    23     8    10   ar
    24    10    11    1
    25    11    12   ar
    26    12    13   ar
    27    13    14   ar
    28    14    15   ar
    29    15    16   ar
    30    27    21   ar
    31    10     1   ar
    32    16    11   ar
    33     7     3   ar
    34    19    20    1
    35    26    28    1
    36    26    29    1
@<TRIPOS>MOLECULE
*****
 33 36 0 0 0
SMALL
GASTEIGER

@<TRIPOS>ATOM
      1 C          -7.2609  -16.9886   23.3960 C.ar    1  UNL1        0.1646
      2 N          -5.9632  -16.2608   23.5872 N.ar    1  UNL1       -0.1496
      3 N          -4.6913  -16.8396   23.0419 N.ar    1  UNL1       -0.2218
      4 C          -3.2725  -16.3541   23.0750 C.ar    1  UNL1        0.1014
      5 C          -2.4214  -17.3605   22.3589 C.ar    1  UNL1        0.0326
      6 C          -3.3143  -18.4680   21.8832 C.ar    1  UNL1        0.0923
      7 C          -4.7172  -18.1461   22.3053 C.ar    1  UNL1        0.1487
      8 C          -6.0148  -18.8737   22.1141 C.ar    1  UNL1        0.2840
      9 O          -6.0407  -20.1802   21.3775 O.2     1  UNL1       -0.2649
     10 N          -7.2867  -18.2949   22.6595 N.ar    1  UNL1       -0.2587
     11 C          -8.5844  -19.0227   22.4682 C.ar    1  UNL1        0.0681
     12 C          -9.1785  -19.1486   21.0967 C.ar    1  UNL1        0.0176
     13 C         -10.4761  -19.8763   20.9054 C.ar    1  UNL1        0.0015
     14 C         -11.1796  -20.4781   22.0857 C.ar    1  UNL1        0.0001
     15 C         -10.5855  -20.3522   23.4572 C.ar    1  UNL1        0.0015
     16 C          -9.2878  -19.6244   23.6484 C.ar    1  UNL1        0.0176
     17 C          -8.5307  -15.7136   25.2701 C.3     1  UNL1        0.0295
     18 C          -8.5328  -16.4098   23.9414 C.3     1  UNL1        0.1301
     19 N          -9.8066  -16.5271   23.1581 N.pl3   1  UNL1       -0.3129
     20 H         -10.5570  -17.0552   23.5149 H       1  UNL1        0.1486
     21 C          -9.9371  -15.8400   21.8312 C.ar    1  UNL1        0.1429
     22 N          -8.8414  -14.9401   21.3416 N.ar    1  UNL1       -0.2084
     23 C          -8.9720  -14.2530   20.0147 C.ar    1  UNL1        0.2012
     24 N         -10.1982  -14.4657   19.1773 N.ar    1  UNL1       -0.2087
     25 C         -11.2939  -15.3656   19.6670 C.ar    1  UNL1        0.1396
     26 N         -12.5201  -15.5782   18.8296 N.pl3   1  UNL1       -0.3420
     27 C         -11.1634  -16.0527   20.9939 C.ar    1  UNL1        0.1308
     28 H         -12.6058  -15.1272   17.9587 H       1  UNL1        0.1437
     29 H         -13.2393  -16.1688   19.1510 H       1  UNL1        0.1437
     30 C         -12.2590  -16.9525   21.4835 C.1     1  UNL1        0.1061
     31 N         -13.3548  -17.8524   21.9731 N.1     1  UNL1       -0.1906
     32 C          -2.8804  -19.6839   21.1195 C.1     1  UNL1        0.1021
     33 N          -2.4464  -20.8999   20.3558 N.1     1  UNL1       -0.1908
@<TRIPOS>BOND
     1    18    17    1
     2    18    19    1
     3    19    21    1
     4    21    22   ar
     5    22    23   ar
     6    23    24   ar
     7    24    25   ar
     8    25    26    1
     9    25    27   ar
    10    27    30    1
    11    30    31    3
    12    18     1    1
    13     1     2   ar
    14     2     3   ar
    15     3     4   ar
    16     4     5   ar
    17     5     6   ar
    18     6    32    1
    19    32    33    3
    20     6     7   ar
    21     7     8   ar
    22     8     9    2
    23     8    10   ar
    24    10    11    1
    25    11    12   ar
    26    12    13   ar
    27    13    14   ar
    28    14    15   ar
    29    15    16   ar
    30    27    21   ar
    31    10     1   ar
    32    16    11   ar
    33     7     3   ar
    34    19    20    1
    35    26    28    1
    36    26    29    1
@<TRIPOS>MOLECULE
*****
 33 36 0 0 0
SMALL
GASTEIGER

@<TRIPOS>ATOM
      1 C         -15.4780   -5.0849   18.2482 C.ar    1  UNL1        0.1646
      2 N         -16.9524   -5.2116   18.4936 N.ar    1  UNL1       -0.1496
      3 N         -17.5587   -6.5617   18.7376 N.ar    1  UNL1       -0.2218
      4 C         -18.9695   -6.9946   19.0067 C.ar    1  UNL1        0.1014
      5 C         -18.9734   -8.4855   19.1716 C.ar    1  UNL1        0.0326
      6 C         -17.5650   -8.9740   19.0045 C.ar    1  UNL1        0.0923
      7 C         -16.6907   -7.7851   18.7362 C.ar    1  UNL1        0.1487
      8 C         -15.2164   -7.6583   18.4909 C.ar    1  UNL1        0.2840
      9 O         -14.3484   -8.8817   18.4896 O.2     1  UNL1       -0.2649
     10 N         -14.6100   -6.3082   18.2469 N.ar    1  UNL1       -0.2587
     11 C         -13.1356   -6.1815   18.0016 C.ar    1  UNL1        0.0681
     12 C         -12.2069   -5.8967   19.1446 C.ar    1  UNL1        0.0176
     13 C         -10.7326   -5.7700   18.8993 C.ar    1  UNL1        0.0015
     14 C         -10.1869   -5.9282   17.5111 C.ar    1  UNL1        0.0001
     15 C         -11.1155   -6.2130   16.3681 C.ar    1  UNL1        0.0015
     16 C         -12.5900   -6.3397   16.6134 C.ar    1  UNL1        0.0176
     17 C         -14.6928   -3.2354   16.6011 C.3     1  UNL1        0.0295
     18 C         -14.8715   -3.7348   18.0042 C.3     1  UNL1        0.1301
     19 N         -14.4439   -2.8841   19.1633 N.pl3   1  UNL1       -0.3129
     20 H         -14.2973   -3.2933   20.0466 H       1  UNL1        0.1486
     21 C         -14.2397   -1.4098   18.9765 C.ar    1  UNL1        0.1429
     22 N         -12.9077   -0.8885   18.5249 N.ar    1  UNL1       -0.2084
     23 C         -12.7036    0.5858   18.3381 C.ar    1  UNL1        0.2012
     24 N         -13.8314    1.5386   18.6030 N.ar    1  UNL1       -0.2087
     25 C         -15.1634    1.0173   19.0547 C.ar    1  UNL1        0.1396
     26 N         -16.2911    1.9701   19.3195 N.pl3   1  UNL1       -0.3420
     27 C         -15.3676   -0.4570   19.2414 C.ar    1  UNL1        0.1308
     28 H         -16.1571    2.9377   19.1970 H       1  UNL1        0.1437
     29 H         -17.1654    1.6279   19.6160 H       1  UNL1        0.1437
     30 C         -16.6995   -0.9784   19.6931 C.1     1  UNL1        0.1061
     31 N         -18.0315   -1.4998   20.1448 N.1     1  UNL1       -0.1906
     32 C         -17.1108  -10.4010   19.0906 C.1     1  UNL1        0.1021
     33 N         -16.6566  -11.8280   19.1766 N.1     1  UNL1       -0.1908
@<TRIPOS>BOND
     1    18    17    1
     2    18    19    1
     3    19    21    1
     4    21    22   ar
     5    22    23   ar
     6    23    24   ar
     7    24    25   ar
     8    25    26    1
     9    25    27   ar
    10    27    30    1
    11    30    31    3
    12    18     1    1
    13     1     2   ar
    14     2     3   ar
    15     3     4   ar
    16     4     5   ar
    17     5     6   ar
    18     6    32    1
    19    32    33    3
    20     6     7   ar
    21     7     8   ar
    22     8     9    2
    23     8    10   ar
    24    10    11    1
    25    11    12   ar
    26    12    13   ar
    27    13    14   ar
    28    14    15   ar
    29    15    16   ar
    30    27    21   ar
    31    10     1   ar
    32    16    11   ar
    33     7     3   ar
    34    19    20    1
    35    26    28    1
    36    26    29    1
@<TRIPOS>MOLECULE
*****
 33 36 0 0 0
SMALL
GASTEIGER

@<TRIPOS>ATOM
      1 C         -15.5348   -5.0826   18.1575 C.ar    1  UNL1        0.1646
      2 N         -17.0090   -5.1956   18.4112 N.ar    1  UNL1       -0.1496
      3 N         -17.6193   -6.5345   18.7022 N.ar    1  UNL1       -0.2218
      4 C         -19.0308   -6.9530   18.9897 C.ar    1  UNL1        0.1014
      5 C         -19.0394   -8.4374   19.2048 C.ar    1  UNL1        0.0326
      6 C         -17.6333   -8.9365   19.0501 C.ar    1  UNL1        0.0923
      7 C         -16.7556   -7.7604   18.7395 C.ar    1  UNL1        0.1487
      8 C         -15.2816   -7.6473   18.4858 C.ar    1  UNL1        0.2840
      9 O         -14.4179   -8.8731   18.5231 O.2     1  UNL1       -0.2649
     10 N         -14.6712   -6.3083   18.1948 N.ar    1  UNL1       -0.2587
     11 C         -13.1971   -6.1953   17.9411 C.ar    1  UNL1        0.0681
     12 C         -12.6642   -6.3260   16.5451 C.ar    1  UNL1        0.0176
     13 C         -11.1902   -6.2130   16.2913 C.ar    1  UNL1        0.0015
     14 C         -10.2490   -5.9693   17.4336 C.ar    1  UNL1        0.0001
     15 C         -10.7819   -5.8386   18.8297 C.ar    1  UNL1        0.0015
     16 C         -12.2560   -5.9516   19.0834 C.ar    1  UNL1        0.0176
     17 C         -14.8866   -3.2265   16.4589 C.3     1  UNL1        0.0295
     18 C         -14.9244   -3.7436   17.8664 C.3     1  UNL1        0.1301
     19 N         -14.3518   -2.9217   18.9830 N.pl3   1  UNL1       -0.3129
     20 H         -14.0209   -3.3623   19.7989 H       1  UNL1        0.1486
     21 C         -14.2833   -1.4286   18.8564 C.ar    1  UNL1        0.1429
     22 N         -15.4144   -0.5807   19.3581 N.ar    1  UNL1       -0.2084
     23 C         -15.3458    0.9123   19.2315 C.ar    1  UNL1        0.2012
     24 N         -14.1462    1.5575   18.6032 N.ar    1  UNL1       -0.2087
     25 C         -13.0151    0.7095   18.1014 C.ar    1  UNL1        0.1396
     26 N         -11.8156    1.3547   17.4731 N.pl3   1  UNL1       -0.3420
     27 C         -13.0836   -0.7835   18.2280 C.ar    1  UNL1        0.1308
     28 H         -11.7706    2.3346   17.3900 H       1  UNL1        0.1437
     29 H         -11.0732    0.7982   17.1438 H       1  UNL1        0.1437
     30 C         -11.9527   -1.6314   17.7263 C.1     1  UNL1        0.1061
     31 N         -10.8216   -2.4794   17.2245 N.1     1  UNL1       -0.1906
     32 C         -17.1838  -10.3614   19.1828 C.1     1  UNL1        0.1021
     33 N         -16.7344  -11.7863   19.3155 N.1     1  UNL1       -0.1908
@<TRIPOS>BOND
     1    18    17    1
     2    18    19    1
     3    19    21    1
     4    21    22   ar
     5    22    23   ar
     6    23    24   ar
     7    24    25   ar
     8    25    26    1
     9    25    27   ar
    10    27    30    1
    11    30    31    3
    12    18     1    1
    13     1     2   ar
    14     2     3   ar
    15     3     4   ar
    16     4     5   ar
    17     5     6   ar
    18     6    32    1
    19    32    33    3
    20     6     7   ar
    21     7     8   ar
    22     8     9    2
    23     8    10   ar
    24    10    11    1
    25    11    12   ar
    26    12    13   ar
    27    13    14   ar
    28    14    15   ar
    29    15    16   ar
    30    27    21   ar
    31    10     1   ar
    32    16    11   ar
    33     7     3   ar
    34    19    20    1
    35    26    28    1
    36    26    29    1
@<TRIPOS>MOLECULE
*****
 33 36 0 0 0
SMALL
GASTEIGER

@<TRIPOS>ATOM
      1 C          -6.7445  -18.6358   22.0775 C.ar    1  UNL1        0.1646
      2 N          -5.8930  -17.8599   23.0384 N.ar    1  UNL1       -0.1496
      3 N          -4.4239  -17.7021   22.7799 N.ar    1  UNL1       -0.2218
      4 C          -3.3406  -16.9985   23.5423 C.ar    1  UNL1        0.1014
      5 C          -2.0534  -17.1817   22.7942 C.ar    1  UNL1        0.0326
      6 C          -2.3412  -17.9986   21.5695 C.ar    1  UNL1        0.0923
      7 C          -3.8063  -18.3202   21.5606 C.ar    1  UNL1        0.1487
      8 C          -4.6578  -19.0960   20.5999 C.ar    1  UNL1        0.2840
      9 O          -4.0402  -19.7141   19.3806 O.2     1  UNL1       -0.2649
     10 N          -6.1269  -19.2538   20.8584 N.ar    1  UNL1       -0.2587
     11 C          -6.9784  -20.0297   19.8975 C.ar    1  UNL1        0.0681
     12 C          -8.1528  -19.3715   19.2361 C.ar    1  UNL1        0.0176
     13 C          -9.0043  -20.1473   18.2753 C.ar    1  UNL1        0.0015
     14 C          -8.6813  -21.5812   17.9759 C.ar    1  UNL1        0.0001
     15 C          -7.5068  -22.2393   18.6374 C.ar    1  UNL1        0.0015
     16 C          -6.6554  -21.4635   19.5982 C.ar    1  UNL1        0.0176
     17 C          -8.7793  -20.1475   22.6473 C.3     1  UNL1        0.0295
     18 C          -8.2137  -18.7935   22.3360 C.3     1  UNL1        0.1301
     19 N          -9.1172  -17.5974   22.2832 N.pl3   1  UNL1       -0.3129
     20 H          -8.7381  -16.7000   22.1409 H       1  UNL1        0.1486
     21 C         -10.5983  -17.7684   22.4473 C.ar    1  UNL1        0.1429
     22 N         -11.5048  -17.6351   21.2596 N.ar    1  UNL1       -0.2084
     23 C         -12.9859  -17.8061   21.4238 C.ar    1  UNL1        0.2012
     24 N         -13.5606  -18.1105   22.7755 N.ar    1  UNL1       -0.2087
     25 C         -12.6541  -18.2438   23.9631 C.ar    1  UNL1        0.1396
     26 N         -13.2288  -18.5482   25.3148 N.pl3   1  UNL1       -0.3420
     27 C         -11.1730  -18.0728   23.7991 C.ar    1  UNL1        0.1308
     28 H         -14.2009  -18.6605   25.4225 H       1  UNL1        0.1437
     29 H         -12.6338  -18.6357   26.0943 H       1  UNL1        0.1437
     30 C         -10.2665  -18.2061   24.9866 C.1     1  UNL1        0.1061
     31 N          -9.3600  -18.3394   26.1743 N.1     1  UNL1       -0.1906
     32 C          -1.3398  -18.4198   20.5353 C.1     1  UNL1        0.1021
     33 N          -0.3383  -18.8410   19.5010 N.1     1  UNL1       -0.1908
@<TRIPOS>BOND
     1    18    17    1
     2    18    19    1
     3    19    21    1
     4    21    22   ar
     5    22    23   ar
     6    23    24   ar
     7    24    25   ar
     8    25    26    1
     9    25    27   ar
    10    27    30    1
    11    30    31    3
    12    18     1    1
    13     1     2   ar
    14     2     3   ar
    15     3     4   ar
    16     4     5   ar
    17     5     6   ar
    18     6    32    1
    19    32    33    3
    20     6     7   ar
    21     7     8   ar
    22     8     9    2
    23     8    10   ar
    24    10    11    1
    25    11    12   ar
    26    12    13   ar
    27    13    14   ar
    28    14    15   ar
    29    15    16   ar
    30    27    21   ar
    31    10     1   ar
    32    16    11   ar
    33     7     3   ar
    34    19    20    1
    35    26    28    1
    36    26    29    1
@<TRIPOS>MOLECULE
*****
 33 36 0 0 0
SMALL
GASTEIGER

@<TRIPOS>ATOM
      1 C          -8.0713  -19.5426   22.7195 C.ar    1  UNL1        0.1646
      2 N          -7.4512  -20.5765   21.8270 N.ar    1  UNL1       -0.1496
      3 N          -6.0835  -20.3497   21.2541 N.ar    1  UNL1       -0.2218
      4 C          -5.2231  -21.1824   20.3507 C.ar    1  UNL1        0.1014
      5 C          -3.9438  -20.4364   20.1121 C.ar    1  UNL1        0.0326
      6 C          -4.0136  -19.1427   20.8680 C.ar    1  UNL1        0.0923
      7 C          -5.3361  -19.0891   21.5739 C.ar    1  UNL1        0.1487
      8 C          -5.9562  -18.0553   22.4664 C.ar    1  UNL1        0.2840
      9 O          -5.2087  -16.7947   22.7861 O.2     1  UNL1       -0.2649
     10 N          -7.3238  -18.2821   23.0392 N.ar    1  UNL1       -0.2587
     11 C          -7.9440  -17.2482   23.9318 C.ar    1  UNL1        0.0681
     12 C          -8.9712  -16.3027   23.3833 C.ar    1  UNL1        0.0176
     13 C          -9.5913  -15.2689   24.2758 C.ar    1  UNL1        0.0015
     14 C          -9.1842  -15.1805   25.7168 C.ar    1  UNL1        0.0001
     15 C          -8.1570  -16.1259   26.2653 C.ar    1  UNL1        0.0015
     16 C          -7.5369  -17.1598   25.3727 C.ar    1  UNL1        0.0176
     17 C          -9.6052  -20.0128   24.7632 C.3     1  UNL1        0.0295
     18 C          -9.4390  -19.7694   23.2924 C.3     1  UNL1        0.1301
     19 N         -10.6404  -19.7527   22.3945 N.pl3   1  UNL1       -0.3129
     20 H         -11.0187  -20.5989   22.0626 H       1  UNL1        0.1486
     21 C         -11.2656  -18.4468   22.0023 C.ar    1  UNL1        0.1429
     22 N         -12.2664  -17.7924   22.9080 N.ar    1  UNL1       -0.2084
     23 C         -12.8914  -16.4865   22.5157 C.ar    1  UNL1        0.2012
     24 N         -12.5158  -15.8350   21.2179 N.ar    1  UNL1       -0.2087
     25 C         -11.5149  -16.4894   20.3122 C.ar    1  UNL1        0.1396
     26 N         -11.1393  -15.8379   19.0144 N.pl3   1  UNL1       -0.3420
     27 C         -10.8898  -17.7953   20.7044 C.ar    1  UNL1        0.1308
     28 H         -11.5496  -14.9808   18.7570 H       1  UNL1        0.1437
     29 H         -10.4824  -16.2674   18.4200 H       1  UNL1        0.1437
     30 C          -9.8891  -18.4497   19.7989 C.1     1  UNL1        0.1061
     31 N          -8.8883  -19.1041   18.8932 N.1     1  UNL1       -0.1906
     32 C          -2.9480  -18.0878   20.9106 C.1     1  UNL1        0.1021
     33 N          -1.8825  -17.0330   20.9532 N.1     1  UNL1       -0.1908
@<TRIPOS>BOND
     1    18    17    1
     2    18    19    1
     3    19    21    1
     4    21    22   ar
     5    22    23   ar
     6    23    24   ar
     7    24    25   ar
     8    25    26    1
     9    25    27   ar
    10    27    30    1
    11    30    31    3
    12    18     1    1
    13     1     2   ar
    14     2     3   ar
    15     3     4   ar
    16     4     5   ar
    17     5     6   ar
    18     6    32    1
    19    32    33    3
    20     6     7   ar
    21     7     8   ar
    22     8     9    2
    23     8    10   ar
    24    10    11    1
    25    11    12   ar
    26    12    13   ar
    27    13    14   ar
    28    14    15   ar
    29    15    16   ar
    30    27    21   ar
    31    10     1   ar
    32    16    11   ar
    33     7     3   ar
    34    19    20    1
    35    26    28    1
    36    26    29    1
@<TRIPOS>MOLECULE
*****
 33 36 0 0 0
SMALL
GASTEIGER

@<TRIPOS>ATOM
      1 C           5.0149    0.9636   32.8282 C.ar    1  UNL1        0.1646
      2 N           5.7664    0.5048   34.0427 N.ar    1  UNL1       -0.1496
      3 N           5.2075    0.7597   35.4111 N.ar    1  UNL1       -0.2218
      4 C           5.7182    0.4271   36.7817 C.ar    1  UNL1        0.1014
      5 C           4.7235    0.9353   37.7828 C.ar    1  UNL1        0.0326
      6 C           3.5980    1.5818   37.0310 C.ar    1  UNL1        0.0923
      7 C           3.8972    1.4733   35.5651 C.ar    1  UNL1        0.1487
      8 C           3.1457    1.9321   34.3507 C.ar    1  UNL1        0.2840
      9 O           1.8354    2.6457   34.5047 O.2     1  UNL1       -0.2649
     10 N           3.7046    1.6772   32.9823 N.ar    1  UNL1       -0.2587
     11 C           2.9531    2.1360   31.7678 C.ar    1  UNL1        0.0681
     12 C           3.2404    3.4825   31.1725 C.ar    1  UNL1        0.0176
     13 C           2.4889    3.9414   29.9581 C.ar    1  UNL1        0.0015
     14 C           1.4502    3.0538   29.3390 C.ar    1  UNL1        0.0001
     15 C           1.1629    1.7073   29.9344 C.ar    1  UNL1        0.0015
     16 C           1.9144    1.2485   31.1488 C.ar    1  UNL1        0.0176
     17 C           6.5885    1.6475   30.8772 C.3     1  UNL1        0.0295
     18 C           5.5738    0.7088   31.4597 C.3     1  UNL1        0.1301
     19 N           5.1181   -0.4848   30.6737 N.pl3   1  UNL1       -0.3129
     20 H           4.2495   -0.4668   30.2107 H       1  UNL1        0.1486
     21 C           5.9857   -1.7057   30.5934 C.ar    1  UNL1        0.1429
     22 N           7.0001   -1.8340   29.4958 N.ar    1  UNL1       -0.2084
     23 C           7.8677   -3.0550   29.4155 C.ar    1  UNL1        0.2012
     24 N           7.7210   -4.1476   30.4327 N.ar    1  UNL1       -0.2087
     25 C           6.7066   -4.0193   31.5302 C.ar    1  UNL1        0.1396
     26 N           6.5600   -5.1119   32.5474 N.pl3   1  UNL1       -0.3420
     27 C           5.8390   -2.7983   31.6106 C.ar    1  UNL1        0.1308
     28 H           7.1294   -5.9132   32.4947 H       1  UNL1        0.1437
     29 H           5.8942   -5.0276   33.2678 H       1  UNL1        0.1437
     30 C           4.8247   -2.6700   32.7081 C.1     1  UNL1        0.1061
     31 N           3.8103   -2.5417   33.8057 N.1     1  UNL1       -0.1906
     32 C           2.3862    2.2242   37.6383 C.1     1  UNL1        0.1021
     33 N           1.1743    2.8665   38.2457 N.1     1  UNL1       -0.1908
@<TRIPOS>BOND
     1    18    17    1
     2    18    19    1
     3    19    21    1
     4    21    22   ar
     5    22    23   ar
     6    23    24   ar
     7    24    25   ar
     8    25    26    1
     9    25    27   ar
    10    27    30    1
    11    30    31    3
    12    18     1    1
    13     1     2   ar
    14     2     3   ar
    15     3     4   ar
    16     4     5   ar
    17     5     6   ar
    18     6    32    1
    19    32    33    3
    20     6     7   ar
    21     7     8   ar
    22     8     9    2
    23     8    10   ar
    24    10    11    1
    25    11    12   ar
    26    12    13   ar
    27    13    14   ar
    28    14    15   ar
    29    15    16   ar
    30    27    21   ar
    31    10     1   ar
    32    16    11   ar
    33     7     3   ar
    34    19    20    1
    35    26    28    1
    36    26    29    1
@<TRIPOS>MOLECULE
*****
 33 36 0 0 0
SMALL
GASTEIGER

@<TRIPOS>ATOM
      1 C           7.4657   -2.5932   23.0823 C.ar    1  UNL1        0.1646
      2 N           8.2595   -3.5712   22.2676 N.ar    1  UNL1       -0.1496
      3 N           8.4431   -4.9780   22.7545 N.ar    1  UNL1       -0.2218
      4 C           9.1684   -6.1549   22.1723 C.ar    1  UNL1        0.1014
      5 C           9.0065   -7.3112   23.1140 C.ar    1  UNL1        0.0326
      6 C           8.1813   -6.8489   24.2782 C.ar    1  UNL1        0.0923
      7 C           7.8331   -5.4069   24.0560 C.ar    1  UNL1        0.1487
      8 C           7.0394   -4.4290   24.8706 C.ar    1  UNL1        0.2840
      9 O           6.4293   -4.8579   26.1721 O.2     1  UNL1       -0.2649
     10 N           6.8557   -3.0221   24.3838 N.ar    1  UNL1       -0.2587
     11 C           6.0619   -2.0442   25.1985 C.ar    1  UNL1        0.0681
     12 C           4.5941   -1.8718   24.9422 C.ar    1  UNL1        0.0176
     13 C           3.8003   -0.8939   25.7568 C.ar    1  UNL1        0.0015
     14 C           4.4744   -0.0885   26.8278 C.ar    1  UNL1        0.0001
     15 C           5.9422   -0.2609   27.0841 C.ar    1  UNL1        0.0015
     16 C           6.7360   -1.2388   26.2693 C.ar    1  UNL1        0.0176
     17 C           8.2964   -0.1357   22.9380 C.3     1  UNL1        0.0295
     18 C           7.2820   -1.1863   22.5954 C.3     1  UNL1        0.1301
     19 N           6.0840   -0.8301   21.7661 N.pl3   1  UNL1       -0.3129
     20 H           5.3599   -0.2879   22.1546 H       1  UNL1        0.1486
     21 C           5.9892   -1.3000   20.3447 C.ar    1  UNL1        0.1429
     22 N           6.5322   -0.4486   19.2356 N.ar    1  UNL1       -0.2084
     23 C           6.4374   -0.9185   17.8143 C.ar    1  UNL1        0.2012
     24 N           5.7997   -2.2398   17.5021 N.ar    1  UNL1       -0.2087
     25 C           5.2567   -3.0912   18.6113 C.ar    1  UNL1        0.1396
     26 N           4.6189   -4.4125   18.2991 N.pl3   1  UNL1       -0.3420
     27 C           5.3514   -2.6213   20.0326 C.ar    1  UNL1        0.1308
     28 H           4.5567   -4.7209   17.3663 H       1  UNL1        0.1437
     29 H           4.2625   -4.9713   19.0271 H       1  UNL1        0.1437
     30 C           4.8085   -3.4727   21.1418 C.1     1  UNL1        0.1061
     31 N           4.2655   -4.3240   22.2510 N.1     1  UNL1       -0.1906
     32 C           7.7755   -7.6823   25.4575 C.1     1  UNL1        0.1021
     33 N           7.3697   -8.5158   26.6368 N.1     1  UNL1       -0.1908
@<TRIPOS>BOND
     1    18    17    1
     2    18    19    1
     3    19    21    1
     4    21    22   ar
     5    22    23   ar
     6    23    24   ar
     7    24    25   ar
     8    25    26    1
     9    25    27   ar
    10    27    30    1
    11    30    31    3
    12    18     1    1
    13     1     2   ar
    14     2     3   ar
    15     3     4   ar
    16     4     5   ar
    17     5     6   ar
    18     6    32    1
    19    32    33    3
    20     6     7   ar
    21     7     8   ar
    22     8     9    2
    23     8    10   ar
    24    10    11    1
    25    11    12   ar
    26    12    13   ar
    27    13    14   ar
    28    14    15   ar
    29    15    16   ar
    30    27    21   ar
    31    10     1   ar
    32    16    11   ar
    33     7     3   ar
    34    19    20    1
    35    26    28    1
    36    26    29    1
