@<TRIPOS>MOLECULE
*****
 38 42 0 0 0
SMALL
GASTEIGER

@<TRIPOS>ATOM
      1 C          -5.9616  -16.3369   23.7687 C.3     1  UNL1        0.1225
      2 O          -6.5918  -15.7446   24.9942 O.3     1  UNL1       -0.3559
      3 C          -8.0521  -15.9564   25.2636 C.3     1  UNL1        0.1441
      4 C          -8.8822  -16.7605   24.3074 C.3     1  UNL1        0.0589
      5 C          -8.2521  -17.3528   23.0818 C.3     1  UNL1        0.1466
      6 C          -9.0822  -18.1569   22.1256 C.ar    1  UNL1        0.0618
      7 C         -10.5425  -18.3687   22.3950 C.ar    1  UNL1        0.1407
      8 F         -11.4740  -17.9359   23.4883 F       1  UNL1       -0.2043
      9 C         -11.3726  -19.1727   21.4388 C.ar    1  UNL1        0.0319
     10 C         -10.7425  -19.7650   20.2132 C.ar    1  UNL1        0.0351
     11 C          -9.2822  -19.5532   19.9438 C.ar    1  UNL1        0.1737
     12 F          -8.6519  -20.1455   18.7182 F       1  UNL1       -0.2010
     13 C          -8.4520  -18.7491   20.9000 C.ar    1  UNL1        0.1655
     14 O          -6.9917  -18.5373   20.6306 O.3     1  UNL1       -0.4732
     15 C          -6.1615  -17.7333   21.5868 C.3     1  UNL1        0.2098
     16 C          -6.7918  -17.1410   22.8125 C.3     1  UNL1        0.0957
     17 S          -9.7124  -17.5646   23.3512 S.O2    1  UNL1        0.0094
     18 O          -9.9412  -18.2719   23.6391 O.2     1  UNL1       -0.1684
     19 O         -10.3462  -16.2625   22.9601 O.2     1  UNL1       -0.1684
     20 C         -11.1728  -17.7764   23.6205 C.ar    1  UNL1        0.1059
     21 C         -11.6079  -18.7680   24.6584 C.ar    1  UNL1        0.0192
     22 C         -13.0683  -18.9798   24.9278 C.ar    1  UNL1        0.0127
     23 C         -14.0935  -18.1999   24.1592 C.ar    1  UNL1        0.0578
     24 CL        -15.5538  -18.4116   24.4285 Cl      1  UNL1       -0.0822
     25 C         -13.6583  -17.2082   23.1213 C.ar    1  UNL1        0.0127
     26 C         -12.1980  -16.9965   22.8520 C.ar    1  UNL1        0.0192
     27 C          -4.5012  -16.1251   23.4992 C.3     1  UNL1        0.0550
     28 C          -3.5096  -17.1908   23.8611 C.3     1  UNL1        0.1540
     29 O          -3.5683  -19.2102   23.2143 O.2     1  UNL1       -0.1724
     30 S          -2.8284  -17.9791   22.7820 S.O2    1  UNL1        0.0020
     31 O          -2.0886  -16.7479   22.3497 O.2     1  UNL1       -0.1724
     32 C          -2.1472  -18.7673   21.7027 C.3     1  UNL1        0.2663
     33 C          -2.1240  -18.2481   20.2957 C.2     1  UNL1        0.3161
     34 N          -1.0206  -18.4494   19.2998 N.2     1  UNL1       -0.0633
     35 C          -1.4146  -17.7621   18.0261 C.3     1  UNL1        0.3130
     36 C          -2.7616  -17.1359   18.2348 C.3     1  UNL1        0.2575
     37 N          -3.2000  -17.4363   19.6375 N.pl3   1  UNL1       -0.2175
     38 H          -4.0455  -17.1508   20.0533 H       1  UNL1        0.2921
@<TRIPOS>BOND
     1    29    30    2
     2    30    31    2
     3    30    28    1
     4    28    27    1
     5     1    27    1
     6     1     2    1
     7     2     3    1
     8     3     4    1
     9     4     5    1
    10     5    17    1
    11    17    18    2
    12    17    19    2
    13    17    20    1
    14    20    21   ar
    15    21    22   ar
    16    22    23   ar
    17    23    24    1
    18    23    25   ar
    19    25    26   ar
    20     5     6    1
    21     6     7   ar
    22     7     8    1
    23     7     9   ar
    24     9    10   ar
    25    10    11   ar
    26    11    12    1
    27    11    13   ar
    28    13    14    1
    29    14    15    1
    30    16    15    1
    31    30    32    1
    32    32    33    1
    33    33    34    2
    34    34    35    1
    35    35    36    1
    36    36    37    1
    37    16     1    1
    38    37    33    1
    39    16     5    1
    40    26    20   ar
    41    13     6   ar
    42    37    38    1
@<TRIPOS>MOLECULE
*****
 38 42 0 0 0
SMALL
GASTEIGER

@<TRIPOS>ATOM
      1 C         -11.5912   -4.4345   19.1811 C.3     1  UNL1        0.1225
      2 O         -12.6810   -5.3364   19.6799 O.3     1  UNL1       -0.3559
      3 C         -14.0907   -4.8317   19.7677 C.3     1  UNL1        0.1441
      4 C         -14.4107   -3.4250   19.3568 C.3     1  UNL1        0.0589
      5 C         -13.3209   -2.5230   18.8581 C.3     1  UNL1        0.1466
      6 C         -13.6409   -1.1163   18.4472 C.ar    1  UNL1        0.0618
      7 C         -15.0506   -0.6116   18.5350 C.ar    1  UNL1        0.1407
      8 F         -16.3498   -1.2198   18.9738 F       1  UNL1       -0.2043
      9 C         -15.3706    0.7951   18.1241 C.ar    1  UNL1        0.0319
     10 C         -14.2808    1.6970   17.6254 C.ar    1  UNL1        0.0351
     11 C         -12.8710    1.1923   17.5376 C.ar    1  UNL1        0.1737
     12 F         -11.7811    2.0943   17.0388 F       1  UNL1       -0.2010
     13 C         -12.5511   -0.2144   17.9485 C.ar    1  UNL1        0.1655
     14 O         -11.1412   -0.7191   17.8606 O.3     1  UNL1       -0.4732
     15 C         -10.8212   -2.1258   18.2715 C.3     1  UNL1        0.2098
     16 C         -11.9111   -3.0278   18.7703 C.3     1  UNL1        0.0957
     17 S         -14.7307   -2.0183   18.9459 S.O2    1  UNL1        0.0094
     18 O         -15.1345   -1.9154   18.2663 O.2     1  UNL1       -0.1684
     19 O         -14.9643   -1.8483   20.4179 O.2     1  UNL1       -0.1684
     20 C         -16.1405   -1.5135   19.0338 C.ar    1  UNL1        0.1059
     21 C         -16.5785   -0.7157   20.2260 C.ar    1  UNL1        0.0192
     22 C         -17.9884   -0.2110   20.3139 C.ar    1  UNL1        0.0127
     23 C         -18.9601   -0.5040   19.2095 C.ar    1  UNL1        0.0578
     24 CL        -20.3699    0.0007   19.2973 Cl      1  UNL1       -0.0822
     25 C         -18.5220   -1.3019   18.0171 C.ar    1  UNL1        0.0127
     26 C         -17.1122   -1.8066   17.9293 C.ar    1  UNL1        0.0192
     27 C         -10.1813   -4.9392   19.0933 C.3     1  UNL1        0.0550
     28 C          -9.7405   -5.7284   17.8963 C.3     1  UNL1        0.1540
     29 O         -10.9356   -5.7988   16.1451 O.2     1  UNL1       -0.1724
     30 S         -10.6639   -6.7384   17.2823 S.O2    1  UNL1        0.0020
     31 O         -10.3921   -7.6781   18.4195 O.2     1  UNL1       -0.1724
     32 C         -11.5873   -7.7486   16.6683 C.3     1  UNL1        0.2663
     33 C         -12.9834   -7.9055   17.1939 C.2     1  UNL1        0.3161
     34 N         -14.2461   -7.7753   16.3948 N.2     1  UNL1       -0.0633
     35 C         -15.4050   -8.0095   17.3178 C.3     1  UNL1        0.3130
     36 C         -14.8585   -8.2845   18.6875 C.3     1  UNL1        0.2575
     37 N         -13.3619   -8.2203   18.6108 N.pl3   1  UNL1       -0.2175
     38 H         -12.7376   -8.3601   19.3591 H       1  UNL1        0.2921
@<TRIPOS>BOND
     1    29    30    2
     2    30    31    2
     3    30    28    1
     4    28    27    1
     5     1    27    1
     6     1     2    1
     7     2     3    1
     8     3     4    1
     9     4     5    1
    10     5    17    1
    11    17    18    2
    12    17    19    2
    13    17    20    1
    14    20    21   ar
    15    21    22   ar
    16    22    23   ar
    17    23    24    1
    18    23    25   ar
    19    25    26   ar
    20     5     6    1
    21     6     7   ar
    22     7     8    1
    23     7     9   ar
    24     9    10   ar
    25    10    11   ar
    26    11    12    1
    27    11    13   ar
    28    13    14    1
    29    14    15    1
    30    16    15    1
    31    30    32    1
    32    32    33    1
    33    33    34    2
    34    34    35    1
    35    35    36    1
    36    36    37    1
    37    16     1    1
    38    37    33    1
    39    16     5    1
    40    26    20   ar
    41    13     6   ar
    42    37    38    1
@<TRIPOS>MOLECULE
*****
 38 42 0 0 0
SMALL
GASTEIGER

@<TRIPOS>ATOM
      1 C           1.4253    4.3342   34.7967 C.3     1  UNL1        0.1225
      2 O           0.4255    5.1923   34.0797 O.3     1  UNL1       -0.3559
      3 C           0.0144    4.8529   32.6777 C.3     1  UNL1        0.1441
      4 C           0.6031    3.6553   31.9926 C.3     1  UNL1        0.0589
      5 C           1.6028    2.7972   32.7096 C.3     1  UNL1        0.1466
      6 C           2.1915    1.5996   32.0245 C.ar    1  UNL1        0.0618
      7 C           1.7803    1.2601   30.6225 C.ar    1  UNL1        0.1407
      8 F           0.8350    1.8781   29.6352 F       1  UNL1       -0.2043
      9 C           2.3690    0.0626   29.9374 C.ar    1  UNL1        0.0319
     10 C           3.3687   -0.7955   30.6544 C.ar    1  UNL1        0.0351
     11 C           3.7798   -0.4561   32.0564 C.ar    1  UNL1        0.1737
     12 F           4.7797   -1.3142   32.7734 F       1  UNL1       -0.2010
     13 C           3.1912    0.7415   32.7415 C.ar    1  UNL1        0.1655
     14 O           3.6024    1.0809   34.1436 O.3     1  UNL1       -0.4732
     15 C           3.0137    2.2785   34.8286 C.3     1  UNL1        0.2098
     16 C           2.0139    3.1366   34.1116 C.3     1  UNL1        0.0957
     17 S           1.1917    2.4577   31.3076 S.O2    1  UNL1        0.0094
     18 O           1.6713    2.6829   30.7119 O.2     1  UNL1       -0.1684
     19 O          -0.1117    1.7347   31.4765 O.2     1  UNL1       -0.1684
     20 C           0.7805    2.1182   29.9055 C.ar    1  UNL1        0.1059
     21 C           1.4730    2.7659   28.7432 C.ar    1  UNL1        0.0192
     22 C           1.0618    2.4264   27.3411 C.ar    1  UNL1        0.0127
     23 C          -0.0418    1.4392   27.1014 C.ar    1  UNL1        0.0578
     24 CL         -0.4530    1.0997   25.6994 Cl      1  UNL1       -0.0822
     25 C          -0.7343    0.7915   28.2638 C.ar    1  UNL1        0.0127
     26 C          -0.3231    1.1310   29.6658 C.ar    1  UNL1        0.0192
     27 C           1.8364    4.6736   36.1988 C.3     1  UNL1        0.0550
     28 C           1.4169    3.7921   37.3376 C.3     1  UNL1        0.1540
     29 O           3.2947    4.1930   38.2391 O.2     1  UNL1       -0.1724
     30 S           2.4393    2.9729   38.0679 S.O2    1  UNL1        0.0020
     31 O           1.5839    1.7527   37.8967 O.2     1  UNL1       -0.1724
     32 C           3.4617    2.1535   38.7983 C.3     1  UNL1        0.2663
     33 C           4.5305    1.4315   38.0326 C.2     1  UNL1        0.3161
     34 N           5.9743    1.8291   37.9459 N.2     1  UNL1       -0.0633
     35 C           6.6793    0.8285   37.0788 C.3     1  UNL1        0.3130
     36 C           5.6712   -0.1875   36.6296 C.3     1  UNL1        0.2575
     37 N           4.3433    0.1853   37.2191 N.pl3   1  UNL1       -0.2175
     38 H           3.4972   -0.3024   37.0940 H       1  UNL1        0.2921
@<TRIPOS>BOND
     1    29    30    2
     2    30    31    2
     3    30    28    1
     4    28    27    1
     5     1    27    1
     6     1     2    1
     7     2     3    1
     8     3     4    1
     9     4     5    1
    10     5    17    1
    11    17    18    2
    12    17    19    2
    13    17    20    1
    14    20    21   ar
    15    21    22   ar
    16    22    23   ar
    17    23    24    1
    18    23    25   ar
    19    25    26   ar
    20     5     6    1
    21     6     7   ar
    22     7     8    1
    23     7     9   ar
    24     9    10   ar
    25    10    11   ar
    26    11    12    1
    27    11    13   ar
    28    13    14    1
    29    14    15    1
    30    16    15    1
    31    30    32    1
    32    32    33    1
    33    33    34    2
    34    34    35    1
    35    35    36    1
    36    36    37    1
    37    16     1    1
    38    37    33    1
    39    16     5    1
    40    26    20   ar
    41    13     6   ar
    42    37    38    1
@<TRIPOS>MOLECULE
*****
 38 42 0 0 0
SMALL
GASTEIGER

@<TRIPOS>ATOM
      1 C         -14.2457   -0.7939   18.3617 C.3     1  UNL1        0.1225
      2 O         -15.7157   -0.9939   18.1405 O.3     1  UNL1       -0.3559
      3 C         -16.2834   -2.3811   18.0818 C.3     1  UNL1        0.1441
      4 C         -15.3810   -3.5682   18.2443 C.3     1  UNL1        0.0589
      5 C         -13.9110   -3.3682   18.4655 C.3     1  UNL1        0.1466
      6 C         -13.0086   -4.5553   18.6281 C.ar    1  UNL1        0.0618
      7 C         -13.5762   -5.9425   18.5693 C.ar    1  UNL1        0.1407
      8 F         -14.9559   -6.4963   18.3692 F       1  UNL1       -0.2043
      9 C         -12.6738   -7.1296   18.7319 C.ar    1  UNL1        0.0319
     10 C         -11.2038   -6.9296   18.9531 C.ar    1  UNL1        0.0351
     11 C         -10.6362   -5.5424   19.0118 C.ar    1  UNL1        0.1737
     12 F          -9.1661   -5.3423   19.2330 F       1  UNL1       -0.2010
     13 C         -11.5386   -4.3553   18.8493 C.ar    1  UNL1        0.1655
     14 O         -10.9709   -2.9681   18.9080 O.3     1  UNL1       -0.4732
     15 C         -11.8732   -1.7809   18.7455 C.3     1  UNL1        0.2098
     16 C         -13.3433   -1.9810   18.5242 C.3     1  UNL1        0.0957
     17 S         -14.4786   -4.7554   18.4068 S.O2    1  UNL1        0.0094
     18 O         -14.5022   -5.1206   17.6986 O.2     1  UNL1       -0.1684
     19 O         -14.8602   -5.0518   19.8269 O.2     1  UNL1       -0.1684
     20 C         -15.0463   -6.1426   18.3482 C.ar    1  UNL1        0.1059
     21 C         -15.1146   -6.8702   17.0383 C.ar    1  UNL1        0.0192
     22 C         -15.6823   -8.2575   16.9796 C.ar    1  UNL1        0.0127
     23 C         -16.1816   -8.9170   18.2309 C.ar    1  UNL1        0.0578
     24 CL        -16.7492  -10.3042   18.1723 Cl      1  UNL1       -0.0822
     25 C         -16.1132   -8.1893   19.5408 C.ar    1  UNL1        0.0127
     26 C         -15.5455   -6.8022   19.5994 C.ar    1  UNL1        0.0192
     27 C         -13.6780    0.5934   18.4204 C.3     1  UNL1        0.0550
     28 C         -13.0018    1.1786   17.2162 C.3     1  UNL1        0.1540
     29 O         -14.6873    2.2815   16.5509 O.2     1  UNL1       -0.1724
     30 S         -13.2514    2.6081   16.8365 S.O2    1  UNL1        0.0020
     31 O         -11.8156    2.9346   17.1222 O.2     1  UNL1       -0.1724
     32 C         -13.5010    4.0377   16.4569 C.3     1  UNL1        0.2663
     33 C         -12.6763    5.1311   17.0687 C.2     1  UNL1        0.3161
     34 N         -12.9898    5.8671   18.3376 N.2     1  UNL1       -0.0633
     35 C         -11.9006    6.8713   18.5722 C.3     1  UNL1        0.3130
     36 C         -10.9138    6.7560   17.4483 C.3     1  UNL1        0.2575
     37 N         -11.3933    5.6805   16.5191 N.pl3   1  UNL1       -0.2175
     38 H         -10.9446    5.3867   15.6935 H       1  UNL1        0.2921
@<TRIPOS>BOND
     1    29    30    2
     2    30    31    2
     3    30    28    1
     4    28    27    1
     5     1    27    1
     6     1     2    1
     7     2     3    1
     8     3     4    1
     9     4     5    1
    10     5    17    1
    11    17    18    2
    12    17    19    2
    13    17    20    1
    14    20    21   ar
    15    21    22   ar
    16    22    23   ar
    17    23    24    1
    18    23    25   ar
    19    25    26   ar
    20     5     6    1
    21     6     7   ar
    22     7     8    1
    23     7     9   ar
    24     9    10   ar
    25    10    11   ar
    26    11    12    1
    27    11    13   ar
    28    13    14    1
    29    14    15    1
    30    16    15    1
    31    30    32    1
    32    32    33    1
    33    33    34    2
    34    34    35    1
    35    35    36    1
    36    36    37    1
    37    16     1    1
    38    37    33    1
    39    16     5    1
    40    26    20   ar
    41    13     6   ar
    42    37    38    1
@<TRIPOS>MOLECULE
*****
 38 42 0 0 0
SMALL
GASTEIGER

@<TRIPOS>ATOM
      1 C          -1.0595    3.6615   20.3087 C.3     1  UNL1        0.1225
      2 O          -0.8101    3.4563   18.8439 O.3     1  UNL1       -0.3559
      3 C           0.2086    2.4532   18.3899 C.3     1  UNL1        0.1441
      4 C           0.9778    1.6554   19.4007 C.3     1  UNL1        0.0589
      5 C           0.7284    1.8606   20.8655 C.3     1  UNL1        0.1466
      6 C           1.4976    1.0627   21.8763 C.ar    1  UNL1        0.0618
      7 C           2.5162    0.0597   21.4223 C.ar    1  UNL1        0.1407
      8 F           3.0081   -0.3911   20.0787 F       1  UNL1       -0.2043
      9 C           3.2855   -0.7382   22.4331 C.ar    1  UNL1        0.0319
     10 C           3.0360   -0.5330   23.8979 C.ar    1  UNL1        0.0351
     11 C           2.0174    0.4701   24.3519 C.ar    1  UNL1        0.1737
     12 F           1.7679    0.6754   25.8167 F       1  UNL1       -0.2010
     13 C           1.2481    1.2680   23.3411 C.ar    1  UNL1        0.1655
     14 O           0.2294    2.2711   23.7951 O.3     1  UNL1       -0.4732
     15 C          -0.5398    3.0689   22.7843 C.3     1  UNL1        0.2098
     16 C          -0.2903    2.8637   21.3195 C.3     1  UNL1        0.0957
     17 S           1.7470    0.8575   20.4115 S.O2    1  UNL1        0.0094
     18 O           2.5150    1.0706   20.4271 O.2     1  UNL1       -0.1684
     19 O           0.9310   -0.3436   20.0352 O.2     1  UNL1       -0.1684
     20 C           2.7657   -0.1456   19.9575 C.ar    1  UNL1        0.1059
     21 C           4.1567    0.2999   19.6161 C.ar    1  UNL1        0.0192
     22 C           5.1753   -0.7032   19.1620 C.ar    1  UNL1        0.0127
     23 C           4.8030   -2.1519   19.0495 C.ar    1  UNL1        0.0578
     24 CL          5.8215   -3.1551   18.5955 Cl      1  UNL1       -0.0822
     25 C           3.4119   -2.5974   19.3910 C.ar    1  UNL1        0.0127
     26 C           2.3933   -1.5943   19.8450 C.ar    1  UNL1        0.0192
     27 C          -2.0782    4.6646   20.7627 C.3     1  UNL1        0.0550
     28 C          -3.5391    4.3292   20.7039 C.3     1  UNL1        0.1540
     29 O          -4.0089    5.0436   22.6452 O.2     1  UNL1       -0.1724
     30 S          -4.2260    3.7557   21.9076 S.O2    1  UNL1        0.0020
     31 O          -4.4431    2.4677   21.1701 O.2     1  UNL1       -0.1724
     32 C          -4.9129    3.1821   23.1115 C.3     1  UNL1        0.2663
     33 C          -4.4233    3.5227   24.4877 C.2     1  UNL1        0.3161
     34 N          -5.2744    3.9577   25.6437 N.2     1  UNL1       -0.0633
     35 C          -4.3738    4.1921   26.8201 C.3     1  UNL1        0.3130
     36 C          -2.9659    3.9019   26.3912 C.3     1  UNL1        0.2575
     37 N          -2.9966    3.4882   24.9497 N.pl3   1  UNL1       -0.2175
     38 H          -2.2172    3.2380   24.4028 H       1  UNL1        0.2921
@<TRIPOS>BOND
     1    29    30    2
     2    30    31    2
     3    30    28    1
     4    28    27    1
     5     1    27    1
     6     1     2    1
     7     2     3    1
     8     3     4    1
     9     4     5    1
    10     5    17    1
    11    17    18    2
    12    17    19    2
    13    17    20    1
    14    20    21   ar
    15    21    22   ar
    16    22    23   ar
    17    23    24    1
    18    23    25   ar
    19    25    26   ar
    20     5     6    1
    21     6     7   ar
    22     7     8    1
    23     7     9   ar
    24     9    10   ar
    25    10    11   ar
    26    11    12    1
    27    11    13   ar
    28    13    14    1
    29    14    15    1
    30    16    15    1
    31    30    32    1
    32    32    33    1
    33    33    34    2
    34    34    35    1
    35    35    36    1
    36    36    37    1
    37    16     1    1
    38    37    33    1
    39    16     5    1
    40    26    20   ar
    41    13     6   ar
    42    37    38    1
@<TRIPOS>MOLECULE
*****
 38 42 0 0 0
SMALL
GASTEIGER

@<TRIPOS>ATOM
      1 C         -14.5618   -0.6420   18.5204 C.3     1  UNL1        0.1225
      2 O         -16.0247   -0.9019   18.3148 O.3     1  UNL1       -0.3559
      3 C         -16.5314   -2.3112   18.2309 C.3     1  UNL1        0.1441
      4 C         -15.5752   -3.4605   18.3526 C.3     1  UNL1        0.0589
      5 C         -14.1123   -3.2006   18.5582 C.3     1  UNL1        0.1466
      6 C         -13.1561   -4.3499   18.6798 C.ar    1  UNL1        0.0618
      7 C         -13.6628   -5.7592   18.5959 C.ar    1  UNL1        0.1407
      8 F         -15.0196   -6.3689   18.4016 F       1  UNL1       -0.2043
      9 C         -12.7066   -6.9085   18.7175 C.ar    1  UNL1        0.0319
     10 C         -11.2438   -6.6485   18.9231 C.ar    1  UNL1        0.0351
     11 C         -10.7371   -5.2392   19.0071 C.ar    1  UNL1        0.1737
     12 F          -9.2741   -4.9792   19.2127 F       1  UNL1       -0.2010
     13 C         -11.6932   -4.0899   18.8854 C.ar    1  UNL1        0.1655
     14 O         -11.1865   -2.6805   18.9694 O.3     1  UNL1       -0.4732
     15 C         -12.1426   -1.5312   18.8477 C.3     1  UNL1        0.2098
     16 C         -13.6056   -1.7913   18.6421 C.3     1  UNL1        0.0957
     17 S         -14.6190   -4.6099   18.4742 S.O2    1  UNL1        0.0094
     18 O         -14.6087   -4.9696   17.7629 O.2     1  UNL1       -0.1684
     19 O         -15.0244   -4.9343   19.8816 O.2     1  UNL1       -0.1684
     20 C         -15.1258   -6.0192   18.3903 C.ar    1  UNL1        0.1059
     21 C         -15.1643   -6.7249   17.0673 C.ar    1  UNL1        0.0192
     22 C         -15.6710   -8.1342   16.9834 C.ar    1  UNL1        0.0127
     23 C         -16.1392   -8.8379   18.2226 C.ar    1  UNL1        0.0578
     24 CL        -16.6459  -10.2472   18.1387 Cl      1  UNL1       -0.0822
     25 C         -16.1007   -8.1322   19.5457 C.ar    1  UNL1        0.0127
     26 C         -15.5939   -6.7229   19.6295 C.ar    1  UNL1        0.0192
     27 C         -14.0550    0.7674   18.6044 C.3     1  UNL1        0.0550
     28 C         -14.7571    1.8626   17.8577 C.3     1  UNL1        0.1540
     29 O         -14.0554    3.8605   17.9829 O.2     1  UNL1       -0.1724
     30 S         -15.2007    3.0991   18.5817 S.O2    1  UNL1        0.0020
     31 O         -16.3459    2.3377   19.1806 O.2     1  UNL1       -0.1724
     32 C         -15.6443    4.3356   19.3058 C.3     1  UNL1        0.2663
     33 C         -15.3784    4.4805   20.7749 C.2     1  UNL1        0.3161
     34 N         -14.1515    5.0819   21.3938 N.2     1  UNL1       -0.0633
     35 C         -14.3076    5.0225   22.8845 C.3     1  UNL1        0.3130
     36 C         -15.6311    4.3845   23.1869 C.3     1  UNL1        0.2575
     37 N         -16.2929    4.0496   21.8831 N.pl3   1  UNL1       -0.2175
     38 H         -17.1729    3.6219   21.7739 H       1  UNL1        0.2921
@<TRIPOS>BOND
     1    29    30    2
     2    30    31    2
     3    30    28    1
     4    28    27    1
     5     1    27    1
     6     1     2    1
     7     2     3    1
     8     3     4    1
     9     4     5    1
    10     5    17    1
    11    17    18    2
    12    17    19    2
    13    17    20    1
    14    20    21   ar
    15    21    22   ar
    16    22    23   ar
    17    23    24    1
    18    23    25   ar
    19    25    26   ar
    20     5     6    1
    21     6     7   ar
    22     7     8    1
    23     7     9   ar
    24     9    10   ar
    25    10    11   ar
    26    11    12    1
    27    11    13   ar
    28    13    14    1
    29    14    15    1
    30    16    15    1
    31    30    32    1
    32    32    33    1
    33    33    34    2
    34    34    35    1
    35    35    36    1
    36    36    37    1
    37    16     1    1
    38    37    33    1
    39    16     5    1
    40    26    20   ar
    41    13     6   ar
    42    37    38    1
@<TRIPOS>MOLECULE
*****
 38 42 0 0 0
SMALL
GASTEIGER

@<TRIPOS>ATOM
      1 C         -14.5571   -0.8502   18.5380 C.3     1  UNL1        0.1225
      2 O         -16.0168   -1.1333   18.3409 O.3     1  UNL1       -0.3559
      3 C         -16.5015   -2.5504   18.2587 C.3     1  UNL1        0.1441
      4 C         -15.5264   -3.6844   18.3737 C.3     1  UNL1        0.0589
      5 C         -14.0667   -3.4013   18.5709 C.3     1  UNL1        0.1466
      6 C         -13.0916   -4.5353   18.6859 C.ar    1  UNL1        0.0618
      7 C         -13.5763   -5.9524   18.6037 C.ar    1  UNL1        0.1407
      8 F         -14.9242   -6.5836   18.4170 F       1  UNL1       -0.2043
      9 C         -12.6012   -7.0865   18.7187 C.ar    1  UNL1        0.0319
     10 C         -11.1414   -6.8034   18.9159 C.ar    1  UNL1        0.0351
     11 C         -10.6568   -5.3862   18.9981 C.ar    1  UNL1        0.1737
     12 F          -9.1969   -5.1031   19.1952 F       1  UNL1       -0.2010
     13 C         -11.6318   -4.2522   18.8831 C.ar    1  UNL1        0.1655
     14 O         -11.1471   -2.8350   18.9652 O.3     1  UNL1       -0.4732
     15 C         -12.1222   -1.7010   18.8502 C.3     1  UNL1        0.2098
     16 C         -13.5820   -1.9842   18.6530 C.3     1  UNL1        0.0957
     17 S         -14.5513   -4.8184   18.4887 S.O2    1  UNL1        0.0094
     18 O         -14.6946   -5.1238   17.7664 O.2     1  UNL1       -0.1684
     19 O         -14.6225   -5.2613   19.9202 O.2     1  UNL1       -0.1684
     20 C         -15.0360   -6.2356   18.4066 C.ar    1  UNL1        0.1059
     21 C         -15.5786   -6.9147   19.6291 C.ar    1  UNL1        0.0192
     22 C         -16.0633   -8.3320   19.5470 C.ar    1  UNL1        0.0127
     23 C         -16.0054   -9.0700   18.2424 C.ar    1  UNL1        0.0578
     24 CL        -16.4901  -10.4871   18.1602 Cl      1  UNL1       -0.0822
     25 C         -15.4628   -8.3908   17.0199 C.ar    1  UNL1        0.0127
     26 C         -14.9782   -6.9737   17.1020 C.ar    1  UNL1        0.0192
     27 C         -14.0723    0.5670   18.6202 C.3     1  UNL1        0.0550
     28 C         -14.8502    1.6653   17.9579 C.3     1  UNL1        0.1540
     29 O         -14.8285    2.8590   19.7113 O.2     1  UNL1       -0.1724
     30 S         -15.8823    2.4273   18.7351 S.O2    1  UNL1        0.0020
     31 O         -16.9361    1.9957   17.7588 O.2     1  UNL1       -0.1724
     32 C         -16.9145    3.1893   19.5123 C.3     1  UNL1        0.2663
     33 C         -16.9404    3.1036   21.0096 C.2     1  UNL1        0.3161
     34 N         -17.5118    1.9770   21.8184 N.2     1  UNL1       -0.0633
     35 C         -17.3240    2.3065   23.2697 C.3     1  UNL1        0.3130
     36 C         -16.6364    3.6367   23.3578 C.3     1  UNL1        0.2575
     37 N         -16.3993    4.1293   21.9610 N.pl3   1  UNL1       -0.2175
     38 H         -15.9649    4.9770   21.7123 H       1  UNL1        0.2921
@<TRIPOS>BOND
     1    29    30    2
     2    30    31    2
     3    30    28    1
     4    28    27    1
     5     1    27    1
     6     1     2    1
     7     2     3    1
     8     3     4    1
     9     4     5    1
    10     5    17    1
    11    17    18    2
    12    17    19    2
    13    17    20    1
    14    20    21   ar
    15    21    22   ar
    16    22    23   ar
    17    23    24    1
    18    23    25   ar
    19    25    26   ar
    20     5     6    1
    21     6     7   ar
    22     7     8    1
    23     7     9   ar
    24     9    10   ar
    25    10    11   ar
    26    11    12    1
    27    11    13   ar
    28    13    14    1
    29    14    15    1
    30    16    15    1
    31    30    32    1
    32    32    33    1
    33    33    34    2
    34    34    35    1
    35    35    36    1
    36    36    37    1
    37    16     1    1
    38    37    33    1
    39    16     5    1
    40    26    20   ar
    41    13     6   ar
    42    37    38    1
@<TRIPOS>MOLECULE
*****
 38 42 0 0 0
SMALL
GASTEIGER

@<TRIPOS>ATOM
      1 C           7.0304   -4.1261   21.3536 C.3     1  UNL1        0.1225
      2 O           6.0314   -4.3884   22.4414 O.3     1  UNL1       -0.3559
      3 C           4.8003   -3.5384   22.5500 C.3     1  UNL1        0.1441
      4 C           4.5682   -2.4260   21.5708 C.3     1  UNL1        0.0589
      5 C           5.5671   -2.1637   20.4830 C.3     1  UNL1        0.1466
      6 C           5.3349   -1.0514   19.5039 C.ar    1  UNL1        0.0618
      7 C           4.1038   -0.2014   19.6124 C.ar    1  UNL1        0.1407
      8 F           2.9301   -0.1817   20.5463 F       1  UNL1       -0.2043
      9 C           3.8717    0.9110   18.6332 C.ar    1  UNL1        0.0319
     10 C           4.8706    1.1733   17.5455 C.ar    1  UNL1        0.0351
     11 C           6.1017    0.3233   17.4369 C.ar    1  UNL1        0.1737
     12 F           7.1007    0.5856   16.3491 F       1  UNL1       -0.2010
     13 C           6.3339   -0.7891   18.4161 C.ar    1  UNL1        0.1655
     14 O           7.5650   -1.6391   18.3075 O.3     1  UNL1       -0.4732
     15 C           7.7972   -2.7514   19.2867 C.3     1  UNL1        0.2098
     16 C           6.7982   -3.0137   20.3745 C.3     1  UNL1        0.0957
     17 S           4.3360   -1.3137   20.5916 S.O2    1  UNL1        0.0094
     18 O           4.3990   -0.6086   20.9582 O.2     1  UNL1       -0.1684
     19 O           3.2724   -2.1274   19.9158 O.2     1  UNL1       -0.1684
     20 C           3.1048   -0.4637   20.7002 C.ar    1  UNL1        0.1059
     21 C           3.1341    0.7988   21.5096 C.ar    1  UNL1        0.0192
     22 C           1.9029    1.6488   21.6181 C.ar    1  UNL1        0.0127
     23 C           0.6425    1.2363   20.9173 C.ar    1  UNL1        0.0578
     24 CL         -0.5887    2.0862   21.0258 Cl      1  UNL1       -0.0822
     25 C           0.6133   -0.0263   20.1078 C.ar    1  UNL1        0.0127
     26 C           1.8444   -0.8762   19.9993 C.ar    1  UNL1        0.0192
     27 C           8.2615   -4.9761   21.2450 C.3     1  UNL1        0.0550
     28 C           9.1103   -5.2251   22.4565 C.3     1  UNL1        0.1540
     29 O           8.8636   -5.1093   24.5602 O.2     1  UNL1       -0.1724
     30 S           8.6373   -6.1685   23.5225 S.O2    1  UNL1        0.0020
     31 O           8.4111   -7.2277   22.4848 O.2     1  UNL1       -0.1724
     32 C           8.1644   -7.1119   24.5886 C.3     1  UNL1        0.2663
     33 C           7.7353   -6.5803   25.9239 C.2     1  UNL1        0.3161
     34 N           8.3551   -6.9173   27.2476 N.2     1  UNL1       -0.0633
     35 C           7.6139   -6.1637   28.3118 C.3     1  UNL1        0.3130
     36 C           6.5358   -5.3609   27.6459 C.3     1  UNL1        0.2575
     37 N           6.6109   -5.6184   26.1701 N.pl3   1  UNL1       -0.2175
     38 H           6.0250   -5.2252   25.4835 H       1  UNL1        0.2921
@<TRIPOS>BOND
     1    29    30    2
     2    30    31    2
     3    30    28    1
     4    28    27    1
     5     1    27    1
     6     1     2    1
     7     2     3    1
     8     3     4    1
     9     4     5    1
    10     5    17    1
    11    17    18    2
    12    17    19    2
    13    17    20    1
    14    20    21   ar
    15    21    22   ar
    16    22    23   ar
    17    23    24    1
    18    23    25   ar
    19    25    26   ar
    20     5     6    1
    21     6     7   ar
    22     7     8    1
    23     7     9   ar
    24     9    10   ar
    25    10    11   ar
    26    11    12    1
    27    11    13   ar
    28    13    14    1
    29    14    15    1
    30    16    15    1
    31    30    32    1
    32    32    33    1
    33    33    34    2
    34    34    35    1
    35    35    36    1
    36    36    37    1
    37    16     1    1
    38    37    33    1
    39    16     5    1
    40    26    20   ar
    41    13     6   ar
    42    37    38    1
@<TRIPOS>MOLECULE
*****
 38 42 0 0 0
SMALL
GASTEIGER

@<TRIPOS>ATOM
      1 C         -11.1201   -2.9899   16.8829 C.3     1  UNL1        0.1225
      2 O         -10.6199   -1.7456   17.5546 O.3     1  UNL1       -0.3559
      3 C         -11.5919   -0.7827   18.1694 C.3     1  UNL1        0.1441
      4 C         -13.0642   -1.0642   18.1125 C.3     1  UNL1        0.0589
      5 C         -13.5644   -2.3086   17.4407 C.3     1  UNL1        0.1466
      6 C         -15.0366   -2.5901   17.3838 C.ar    1  UNL1        0.0618
      7 C         -16.0087   -1.6272   17.9986 C.ar    1  UNL1        0.1407
      8 F         -15.8648   -0.3245   18.7284 F       1  UNL1       -0.2043
      9 C         -17.4809   -1.9087   17.9416 C.ar    1  UNL1        0.0319
     10 C         -17.9811   -3.1531   17.2699 C.ar    1  UNL1        0.0351
     11 C         -17.0091   -4.1159   16.6551 C.ar    1  UNL1        0.1737
     12 F         -17.5093   -5.3604   15.9832 F       1  UNL1       -0.2010
     13 C         -15.5369   -3.8344   16.7120 C.ar    1  UNL1        0.1655
     14 O         -14.5648   -4.7974   16.0972 O.3     1  UNL1       -0.4732
     15 C         -13.0926   -4.5159   16.1541 C.3     1  UNL1        0.2098
     16 C         -12.5924   -3.2714   16.8259 C.3     1  UNL1        0.0957
     17 S         -14.5364   -1.3457   18.0555 S.O2    1  UNL1        0.0094
     18 O         -14.9321   -0.8522   17.5704 O.2     1  UNL1       -0.1684
     19 O         -14.4551   -1.6364   19.5249 O.2     1  UNL1       -0.1684
     20 C         -15.5085   -0.3828   18.6704 C.ar    1  UNL1        0.1059
     21 C         -16.0052    0.7900   17.8782 C.ar    1  UNL1        0.0192
     22 C         -16.9773    1.7529   18.4931 C.ar    1  UNL1        0.0127
     23 C         -17.4526    1.5429   19.9002 C.ar    1  UNL1        0.0578
     24 CL        -18.4246    2.5057   20.5151 Cl      1  UNL1       -0.0822
     25 C         -16.9558    0.3699   20.6924 C.ar    1  UNL1        0.0127
     26 C         -15.9838   -0.5929   20.0775 C.ar    1  UNL1        0.0192
     27 C         -10.1481   -3.9529   16.2680 C.3     1  UNL1        0.0550
     28 C          -9.3401   -4.8645   17.1433 C.3     1  UNL1        0.1540
     29 O         -10.6359   -6.5332   16.9536 O.2     1  UNL1       -0.1724
     30 S         -10.0296   -5.7866   18.1046 S.O2    1  UNL1        0.0020
     31 O          -9.4232   -5.0401   19.2557 O.2     1  UNL1       -0.1724
     32 C         -10.7191   -6.7089   19.0660 C.3     1  UNL1        0.2663
     33 C         -12.2171   -6.7816   19.0921 C.2     1  UNL1        0.3161
     34 N         -13.1419   -5.7262   19.6219 N.2     1  UNL1       -0.0633
     35 C         -14.5496   -6.2148   19.4503 C.3     1  UNL1        0.3130
     36 C         -14.4949   -7.5723   18.8143 C.3     1  UNL1        0.2575
     37 N         -13.0532   -7.9225   18.5930 N.pl3   1  UNL1       -0.2175
     38 H         -12.7152   -8.7551   18.1908 H       1  UNL1        0.2921
@<TRIPOS>BOND
     1    29    30    2
     2    30    31    2
     3    30    28    1
     4    28    27    1
     5     1    27    1
     6     1     2    1
     7     2     3    1
     8     3     4    1
     9     4     5    1
    10     5    17    1
    11    17    18    2
    12    17    19    2
    13    17    20    1
    14    20    21   ar
    15    21    22   ar
    16    22    23   ar
    17    23    24    1
    18    23    25   ar
    19    25    26   ar
    20     5     6    1
    21     6     7   ar
    22     7     8    1
    23     7     9   ar
    24     9    10   ar
    25    10    11   ar
    26    11    12    1
    27    11    13   ar
    28    13    14    1
    29    14    15    1
    30    16    15    1
    31    30    32    1
    32    32    33    1
    33    33    34    2
    34    34    35    1
    35    35    36    1
    36    36    37    1
    37    16     1    1
    38    37    33    1
    39    16     5    1
    40    26    20   ar
    41    13     6   ar
    42    37    38    1
