@<TRIPOS>MOLECULE
*****
 23 25 0 0 0
SMALL
GASTEIGER

@<TRIPOS>ATOM
      1 C          -7.5788  -16.8767   22.6561 C.3     1  UNL1        0.1959
      2 C          -7.0217  -18.0699   21.9376 C.ar    1  UNL1        0.0513
      3 C          -7.8897  -18.8513   20.9964 C.ar    1  UNL1        0.0022
      4 C          -7.3326  -20.0444   20.2780 C.ar    1  UNL1       -0.0000
      5 C          -5.9075  -20.4561   20.5008 C.ar    1  UNL1        0.0031
      6 C          -5.0395  -19.6747   21.4420 C.ar    1  UNL1        0.0367
      7 C          -5.5966  -18.4816   22.1604 C.ar    1  UNL1        0.1379
      8 O          -4.7286  -17.7001   23.1017 O.3     1  UNL1       -0.4755
      9 C          -5.2857  -16.5070   23.8201 C.3     1  UNL1        0.2106
     10 C          -6.7108  -16.0953   23.5973 C.3     1  UNL1        0.1038
     11 O          -9.0039  -16.4651   22.4333 O.3     1  UNL1       -0.4748
     12 C         -11.5268  -17.0599   22.6090 C.ar    1  UNL1        0.0118
     13 C         -12.6391  -17.8218   23.2666 C.ar    1  UNL1       -0.0013
     14 C         -12.3408  -18.7505   24.4060 C.ar    1  UNL1       -0.0001
     15 C         -10.9301  -18.9175   24.8879 C.ar    1  UNL1        0.0031
     16 C          -9.8178  -18.1557   24.2303 C.ar    1  UNL1        0.0366
     17 C         -10.1162  -17.2269   23.0908 C.ar    1  UNL1        0.1348
     18 C         -11.5741  -16.5713   20.0577 C.3     1  UNL1        0.0051
     19 C         -11.8252  -16.1311   21.4695 C.3     1  UNL1        0.0294
     20 C          -7.2678  -14.9022   24.3158 C.3     1  UNL1        0.0763
     21 N          -8.3446  -15.0815   25.3446 N.3     1  UNL1       -0.2961
     22 C          -8.0322  -15.7564   26.6472 C.3     1  UNL1        0.0859
     23 H          -9.0868  -15.6237   24.9025 H       1  UNL1        0.1233
@<TRIPOS>BOND
     1    18    19    1
     2    19    12    1
     3    12    13   ar
     4    13    14   ar
     5    14    15   ar
     6    15    16   ar
     7    16    17   ar
     8    17    11    1
     9     1    11    1
    10     1     2    1
    11     2     3   ar
    12     3     4   ar
    13     4     5   ar
    14     5     6   ar
    15     6     7   ar
    16     7     8    1
    17     8     9    1
    18     9    10    1
    19    10    20    1
    20    20    21    1
    21    21    22    1
    22    17    12   ar
    23    10     1    1
    24     7     2   ar
    25    21    23    1
@<TRIPOS>MOLECULE
*****
 23 25 0 0 0
SMALL
GASTEIGER

@<TRIPOS>ATOM
      1 C          -8.5284  -17.2801   22.4242 C.3     1  UNL1        0.1959
      2 C         -10.0209  -17.2756   22.2732 C.ar    1  UNL1        0.0513
      3 C         -10.8070  -16.0489   22.6295 C.ar    1  UNL1        0.0022
      4 C         -12.2994  -16.0444   22.4785 C.ar    1  UNL1       -0.0000
      5 C         -13.0056  -17.2667   21.9713 C.ar    1  UNL1        0.0031
      6 C         -12.2194  -18.4935   21.6151 C.ar    1  UNL1        0.0367
      7 C         -10.7271  -18.4979   21.7660 C.ar    1  UNL1        0.1379
      8 O          -9.9408  -19.7247   21.4097 O.3     1  UNL1       -0.4755
      9 C          -8.4485  -19.7292   21.5607 C.3     1  UNL1        0.2106
     10 C          -7.7423  -18.5069   22.0679 C.3     1  UNL1        0.1038
     11 O          -7.8223  -16.0578   22.9314 O.3     1  UNL1       -0.4748
     12 C          -6.1176  -15.5769   24.8321 C.ar    1  UNL1        0.0118
     13 C          -5.8043  -15.4437   26.2930 C.ar    1  UNL1       -0.0013
     14 C          -6.8821  -15.6584   27.3139 C.ar    1  UNL1       -0.0001
     15 C          -8.2733  -16.0062   26.8739 C.ar    1  UNL1        0.0031
     16 C          -8.5867  -16.1393   25.4131 C.ar    1  UNL1        0.0366
     17 C          -7.5089  -15.9247   24.3922 C.ar    1  UNL1        0.1348
     18 C          -4.0278  -16.4384   23.5514 C.3     1  UNL1        0.0051
     19 C          -5.0398  -15.3622   23.8113 C.3     1  UNL1        0.0294
     20 C          -6.2498  -18.5114   22.2188 C.3     1  UNL1        0.0763
     21 N          -5.3745  -18.6760   21.0120 N.3     1  UNL1       -0.2961
     22 C          -4.1023  -19.4646   21.1102 C.3     1  UNL1        0.0859
     23 H          -5.1166  -17.7381   20.7051 H       1  UNL1        0.1233
@<TRIPOS>BOND
     1    18    19    1
     2    19    12    1
     3    12    13   ar
     4    13    14   ar
     5    14    15   ar
     6    15    16   ar
     7    16    17   ar
     8    17    11    1
     9     1    11    1
    10     1     2    1
    11     2     3   ar
    12     3     4   ar
    13     4     5   ar
    14     5     6   ar
    15     6     7   ar
    16     7     8    1
    17     8     9    1
    18     9    10    1
    19    10    20    1
    20    20    21    1
    21    21    22    1
    22    17    12   ar
    23    10     1    1
    24     7     2   ar
    25    21    23    1
@<TRIPOS>MOLECULE
*****
 23 25 0 0 0
SMALL
GASTEIGER

@<TRIPOS>ATOM
      1 C          -7.4745  -17.8196   21.9030 C.3     1  UNL1        0.1959
      2 C          -6.9725  -16.9022   22.9785 C.ar    1  UNL1        0.0513
      3 C          -7.8692  -15.8351   23.5328 C.ar    1  UNL1        0.0022
      4 C          -7.3672  -14.9178   24.6082 C.ar    1  UNL1       -0.0000
      5 C          -5.9687  -15.0675   25.1293 C.ar    1  UNL1        0.0031
      6 C          -5.0720  -16.1346   24.5750 C.ar    1  UNL1        0.0367
      7 C          -5.5740  -17.0519   23.4996 C.ar    1  UNL1        0.1379
      8 O          -4.6773  -18.1191   22.9452 O.3     1  UNL1       -0.4755
      9 C          -5.1793  -19.0365   21.8699 C.3     1  UNL1        0.2106
     10 C          -6.5778  -18.8867   21.3488 C.3     1  UNL1        0.1038
     11 O          -8.8730  -17.6698   21.3820 O.3     1  UNL1       -0.4748
     12 C         -11.2735  -17.0976   22.1944 C.ar    1  UNL1        0.0118
     13 C         -12.4423  -17.3773   23.0921 C.ar    1  UNL1       -0.0013
     14 C         -12.3794  -18.5088   24.0748 C.ar    1  UNL1       -0.0001
     15 C         -11.1477  -19.3606   24.1599 C.ar    1  UNL1        0.0031
     16 C          -9.9789  -19.0810   23.2623 C.ar    1  UNL1        0.0366
     17 C         -10.0418  -17.9494   22.2796 C.ar    1  UNL1        0.1348
     18 C         -11.6658  -16.2389   19.7740 C.3     1  UNL1        0.0051
     19 C         -11.3365  -15.9661   21.2117 C.3     1  UNL1        0.0294
     20 C          -7.0798  -19.8041   20.2733 C.3     1  UNL1        0.0763
     21 N          -8.0369  -19.2928   19.2378 N.3     1  UNL1       -0.2961
     22 C          -9.2024  -20.1358   18.8125 C.3     1  UNL1        0.0859
     23 H          -7.4891  -19.1029   18.3986 H       1  UNL1        0.1233
@<TRIPOS>BOND
     1    18    19    1
     2    19    12    1
     3    12    13   ar
     4    13    14   ar
     5    14    15   ar
     6    15    16   ar
     7    16    17   ar
     8    17    11    1
     9     1    11    1
    10     1     2    1
    11     2     3   ar
    12     3     4   ar
    13     4     5   ar
    14     5     6   ar
    15     6     7   ar
    16     7     8    1
    17     8     9    1
    18     9    10    1
    19    10    20    1
    20    20    21    1
    21    21    22    1
    22    17    12   ar
    23    10     1    1
    24     7     2   ar
    25    21    23    1
@<TRIPOS>MOLECULE
*****
 23 25 0 0 0
SMALL
GASTEIGER

@<TRIPOS>ATOM
      1 C          -8.0651  -17.7345   23.1809 C.3     1  UNL1        0.1959
      2 C          -7.0571  -18.5210   22.3964 C.ar    1  UNL1        0.0513
      3 C          -7.4844  -19.7424   21.6377 C.ar    1  UNL1        0.0022
      4 C          -6.4764  -20.5287   20.8532 C.ar    1  UNL1       -0.0000
      5 C          -5.0411  -20.0937   20.8273 C.ar    1  UNL1        0.0031
      6 C          -4.6138  -18.8724   21.5860 C.ar    1  UNL1        0.0367
      7 C          -5.6218  -18.0860   22.3705 C.ar    1  UNL1        0.1379
      8 O          -5.1945  -16.8645   23.1292 O.3     1  UNL1       -0.4755
      9 C          -6.2025  -16.0781   23.9137 C.3     1  UNL1        0.2106
     10 C          -7.6378  -16.5131   23.9396 C.3     1  UNL1        0.1038
     11 O          -9.5004  -18.1695   23.2068 O.3     1  UNL1       -0.4748
     12 C         -11.9584  -17.5789   22.6073 C.ar    1  UNL1        0.0118
     13 C         -12.9526  -16.9396   21.6837 C.ar    1  UNL1       -0.0013
     14 C         -12.4830  -16.2517   20.4362 C.ar    1  UNL1       -0.0001
     15 C         -11.0192  -16.2031   20.1122 C.ar    1  UNL1        0.0031
     16 C         -10.0250  -16.8424   21.0357 C.ar    1  UNL1        0.0366
     17 C         -10.4946  -17.5303   22.2833 C.ar    1  UNL1        0.1348
     18 C         -13.8619  -18.1521   24.2800 C.3     1  UNL1        0.0051
     19 C         -12.4280  -18.2667   23.8548 C.3     1  UNL1        0.0294
     20 C          -8.6458  -15.7267   24.7241 C.3     1  UNL1        0.0763
     21 N          -8.2545  -15.0940   26.0266 N.3     1  UNL1       -0.2961
     22 C          -8.1161  -15.9381   27.2588 C.3     1  UNL1        0.0859
     23 H          -8.9583  -14.3851   26.2328 H       1  UNL1        0.1233
@<TRIPOS>BOND
     1    18    19    1
     2    19    12    1
     3    12    13   ar
     4    13    14   ar
     5    14    15   ar
     6    15    16   ar
     7    16    17   ar
     8    17    11    1
     9     1    11    1
    10     1     2    1
    11     2     3   ar
    12     3     4   ar
    13     4     5   ar
    14     5     6   ar
    15     6     7   ar
    16     7     8    1
    17     8     9    1
    18     9    10    1
    19    10    20    1
    20    20    21    1
    21    21    22    1
    22    17    12   ar
    23    10     1    1
    24     7     2   ar
    25    21    23    1
@<TRIPOS>MOLECULE
*****
 23 25 0 0 0
SMALL
GASTEIGER

@<TRIPOS>ATOM
      1 C          -6.4733  -17.9733   22.9889 C.3     1  UNL1        0.1959
      2 C          -5.0206  -18.1650   22.6676 C.ar    1  UNL1        0.0513
      3 C          -4.5188  -19.5116   22.2379 C.ar    1  UNL1        0.0022
      4 C          -3.0662  -19.7031   21.9166 C.ar    1  UNL1       -0.0000
      5 C          -2.1154  -18.5481   22.0252 C.ar    1  UNL1        0.0031
      6 C          -2.6172  -17.2014   22.4549 C.ar    1  UNL1        0.0367
      7 C          -4.0698  -17.0099   22.7762 C.ar    1  UNL1        0.1379
      8 O          -4.5717  -15.6632   23.2060 O.3     1  UNL1       -0.4755
      9 C          -6.0243  -15.4716   23.5272 C.3     1  UNL1        0.2106
     10 C          -6.9751  -16.6267   23.4187 C.3     1  UNL1        0.1038
     11 O          -7.4241  -19.1284   22.8804 O.3     1  UNL1       -0.4748
     12 C          -9.7482  -19.4671   21.7696 C.ar    1  UNL1        0.0118
     13 C         -10.5870  -19.6348   20.5373 C.ar    1  UNL1       -0.0013
     14 C          -9.9405  -19.6317   19.1838 C.ar    1  UNL1       -0.0001
     15 C          -8.4552  -19.4608   19.0625 C.ar    1  UNL1        0.0031
     16 C          -7.6164  -19.2930   20.2946 C.ar    1  UNL1        0.0366
     17 C          -8.2629  -19.2962   21.6482 C.ar    1  UNL1        0.1348
     18 C         -11.5468  -18.5524   23.4061 C.3     1  UNL1        0.0051
     19 C         -10.3947  -19.4702   23.1231 C.3     1  UNL1        0.0294
     20 C          -8.4277  -16.4351   23.7400 C.3     1  UNL1        0.0763
     21 N          -8.8464  -15.3780   24.7183 N.3     1  UNL1       -0.2961
     22 C          -8.4604  -15.4979   26.1628 C.3     1  UNL1        0.0859
     23 H          -9.8651  -15.3359   24.6883 H       1  UNL1        0.1233
@<TRIPOS>BOND
     1    18    19    1
     2    19    12    1
     3    12    13   ar
     4    13    14   ar
     5    14    15   ar
     6    15    16   ar
     7    16    17   ar
     8    17    11    1
     9     1    11    1
    10     1     2    1
    11     2     3   ar
    12     3     4   ar
    13     4     5   ar
    14     5     6   ar
    15     6     7   ar
    16     7     8    1
    17     8     9    1
    18     9    10    1
    19    10    20    1
    20    20    21    1
    21    21    22    1
    22    17    12   ar
    23    10     1    1
    24     7     2   ar
    25    21    23    1
@<TRIPOS>MOLECULE
*****
 23 25 0 0 0
SMALL
GASTEIGER

@<TRIPOS>ATOM
      1 C          -7.3436  -17.3844   22.2472 C.3     1  UNL1        0.1959
      2 C          -8.5762  -17.8343   21.5201 C.ar    1  UNL1        0.0513
      3 C          -9.7600  -16.9194   21.4136 C.ar    1  UNL1        0.0022
      4 C         -10.9925  -17.3693   20.6865 C.ar    1  UNL1       -0.0000
      5 C         -11.0411  -18.7341   20.0661 C.ar    1  UNL1        0.0031
      6 C          -9.8572  -19.6490   20.1727 C.ar    1  UNL1        0.0367
      7 C          -8.6248  -19.1991   20.8997 C.ar    1  UNL1        0.1379
      8 O          -7.4409  -20.1140   21.0063 O.3     1  UNL1       -0.4755
      9 C          -6.2084  -19.6642   21.7333 C.3     1  UNL1        0.2106
     10 C          -6.1598  -18.2994   22.3538 C.3     1  UNL1        0.1038
     11 O          -7.2950  -16.0196   22.8677 O.3     1  UNL1       -0.4748
     12 C          -8.2922  -16.3080   25.2493 C.ar    1  UNL1        0.0118
     13 C          -8.1649  -16.1646   26.7371 C.ar    1  UNL1       -0.0013
     14 C          -6.9133  -15.5892   27.3307 C.ar    1  UNL1       -0.0001
     15 C          -5.7889  -15.1574   26.4367 C.ar    1  UNL1        0.0031
     16 C          -5.9161  -15.3009   24.9490 C.ar    1  UNL1        0.0366
     17 C          -7.1678  -15.8762   24.3553 C.ar    1  UNL1        0.1348
     18 C          -9.9167  -18.3102   24.9296 C.3     1  UNL1        0.0051
     19 C          -9.5438  -16.8833   24.6557 C.3     1  UNL1        0.0294
     20 C          -4.9273  -17.8495   23.0809 C.3     1  UNL1        0.0763
     21 N          -3.7128  -17.4274   22.3083 N.3     1  UNL1       -0.2961
     22 C          -2.4918  -18.2985   22.2956 C.3     1  UNL1        0.0859
     23 H          -3.4254  -16.5231   22.6825 H       1  UNL1        0.1233
@<TRIPOS>BOND
     1    18    19    1
     2    19    12    1
     3    12    13   ar
     4    13    14   ar
     5    14    15   ar
     6    15    16   ar
     7    16    17   ar
     8    17    11    1
     9     1    11    1
    10     1     2    1
    11     2     3   ar
    12     3     4   ar
    13     4     5   ar
    14     5     6   ar
    15     6     7   ar
    16     7     8    1
    17     8     9    1
    18     9    10    1
    19    10    20    1
    20    20    21    1
    21    21    22    1
    22    17    12   ar
    23    10     1    1
    24     7     2   ar
    25    21    23    1
@<TRIPOS>MOLECULE
*****
 23 25 0 0 0
SMALL
GASTEIGER

@<TRIPOS>ATOM
      1 C          -7.7902  -18.4299   21.1716 C.3     1  UNL1        0.1959
      2 C          -7.8866  -19.5469   20.1750 C.ar    1  UNL1        0.0513
      3 C          -9.0444  -19.6049   19.2231 C.ar    1  UNL1        0.0022
      4 C          -9.1408  -20.7218   18.2266 C.ar    1  UNL1       -0.0000
      5 C          -8.0793  -21.7807   18.1819 C.ar    1  UNL1        0.0031
      6 C          -6.9215  -21.7227   19.1337 C.ar    1  UNL1        0.0367
      7 C          -6.8251  -20.6057   20.1303 C.ar    1  UNL1        0.1379
      8 O          -5.6673  -20.5477   21.0822 O.3     1  UNL1       -0.4755
      9 C          -5.5709  -19.4307   22.0787 C.3     1  UNL1        0.2106
     10 C          -6.6324  -18.3718   22.1234 C.3     1  UNL1        0.1038
     11 O          -8.8517  -17.3710   21.2163 O.3     1  UNL1       -0.4748
     12 C         -11.4472  -17.4876   21.2190 C.ar    1  UNL1        0.0118
     13 C         -12.7351  -17.7468   21.9430 C.ar    1  UNL1       -0.0013
     14 C         -12.7155  -18.1487   23.3880 C.ar    1  UNL1       -0.0001
     15 C         -11.4080  -18.2913   24.1091 C.ar    1  UNL1        0.0031
     16 C         -10.1201  -18.0321   23.3853 C.ar    1  UNL1        0.0366
     17 C         -10.1396  -17.6302   21.9402 C.ar    1  UNL1        0.1348
     18 C         -11.7135  -15.6551   19.3967 C.3     1  UNL1        0.0051
     19 C         -11.4668  -17.0857   19.7740 C.3     1  UNL1        0.0294
     20 C          -6.5360  -17.2549   23.1200 C.3     1  UNL1        0.0763
     21 N          -5.2049  -16.6343   23.4247 N.3     1  UNL1       -0.2961
     22 C          -5.1331  -15.2248   23.9327 C.3     1  UNL1        0.0859
     23 H          -4.6616  -16.6644   22.5619 H       1  UNL1        0.1233
@<TRIPOS>BOND
     1    18    19    1
     2    19    12    1
     3    12    13   ar
     4    13    14   ar
     5    14    15   ar
     6    15    16   ar
     7    16    17   ar
     8    17    11    1
     9     1    11    1
    10     1     2    1
    11     2     3   ar
    12     3     4   ar
    13     4     5   ar
    14     5     6   ar
    15     6     7   ar
    16     7     8    1
    17     8     9    1
    18     9    10    1
    19    10    20    1
    20    20    21    1
    21    21    22    1
    22    17    12   ar
    23    10     1    1
    24     7     2   ar
    25    21    23    1
@<TRIPOS>MOLECULE
*****
 23 25 0 0 0
SMALL
GASTEIGER

@<TRIPOS>ATOM
      1 C          -7.6556  -17.9372   23.0106 C.3     1  UNL1        0.1959
      2 C          -6.5807  -18.6697   22.2634 C.ar    1  UNL1        0.0513
      3 C          -6.9101  -19.9298   21.5194 C.ar    1  UNL1        0.0022
      4 C          -5.8353  -20.6622   20.7722 C.ar    1  UNL1       -0.0000
      5 C          -4.4312  -20.1345   20.7690 C.ar    1  UNL1        0.0031
      6 C          -4.1018  -18.8744   21.5130 C.ar    1  UNL1        0.0367
      7 C          -5.1766  -18.1420   22.2602 C.ar    1  UNL1        0.1379
      8 O          -4.8473  -16.8818   23.0043 O.3     1  UNL1       -0.4755
      9 C          -5.9221  -16.1494   23.7515 C.3     1  UNL1        0.2106
     10 C          -7.3262  -16.6771   23.7546 C.3     1  UNL1        0.1038
     11 O          -9.0597  -18.4648   23.0138 O.3     1  UNL1       -0.4748
     12 C         -10.3067  -18.0324   20.7760 C.ar    1  UNL1        0.0118
     13 C         -11.3768  -17.3216   20.0015 C.ar    1  UNL1       -0.0013
     14 C         -12.2699  -16.3327   20.6903 C.ar    1  UNL1       -0.0001
     15 C         -12.0929  -16.0546   22.1536 C.ar    1  UNL1        0.0031
     16 C         -11.0229  -16.7652   22.9281 C.ar    1  UNL1        0.0366
     17 C         -10.1297  -17.7542   22.2393 C.ar    1  UNL1        0.1348
     18 C          -9.9802  -19.9534   19.0576 C.3     1  UNL1        0.0051
     19 C          -9.4136  -19.0212   20.0872 C.3     1  UNL1        0.0294
     20 C          -8.4010  -15.9445   24.5019 C.3     1  UNL1        0.0763
     21 N          -8.0467  -15.1023   25.6914 N.3     1  UNL1       -0.2961
     22 C          -7.8512  -15.7438   27.0331 C.3     1  UNL1        0.0859
     23 H          -8.7936  -14.4160   25.7992 H       1  UNL1        0.1233
@<TRIPOS>BOND
     1    18    19    1
     2    19    12    1
     3    12    13   ar
     4    13    14   ar
     5    14    15   ar
     6    15    16   ar
     7    16    17   ar
     8    17    11    1
     9     1    11    1
    10     1     2    1
    11     2     3   ar
    12     3     4   ar
    13     4     5   ar
    14     5     6   ar
    15     6     7   ar
    16     7     8    1
    17     8     9    1
    18     9    10    1
    19    10    20    1
    20    20    21    1
    21    21    22    1
    22    17    12   ar
    23    10     1    1
    24     7     2   ar
    25    21    23    1
@<TRIPOS>MOLECULE
*****
 23 25 0 0 0
SMALL
GASTEIGER

@<TRIPOS>ATOM
      1 C          -7.7623  -17.6727   21.8068 C.3     1  UNL1        0.1959
      2 C          -6.7539  -18.6960   21.3753 C.ar    1  UNL1        0.0513
      3 C          -7.1132  -19.7080   20.3282 C.ar    1  UNL1        0.0022
      4 C          -6.1048  -20.7312   19.8968 C.ar    1  UNL1       -0.0000
      5 C          -4.7371  -20.7424   20.5126 C.ar    1  UNL1        0.0031
      6 C          -4.3778  -19.7304   21.5598 C.ar    1  UNL1        0.0367
      7 C          -5.3862  -18.7072   21.9912 C.ar    1  UNL1        0.1379
      8 O          -5.0269  -17.6951   23.0384 O.3     1  UNL1       -0.4755
      9 C          -6.0353  -16.6719   23.4698 C.3     1  UNL1        0.2106
     10 C          -7.4030  -16.6607   22.8540 C.3     1  UNL1        0.1038
     11 O          -9.1300  -17.6615   21.1910 O.3     1  UNL1       -0.4748
     12 C         -10.4576  -18.8450   23.0848 C.ar    1  UNL1        0.0118
     13 C         -11.6741  -18.9350   23.9579 C.ar    1  UNL1       -0.0013
     14 C         -12.7792  -17.9316   23.8102 C.ar    1  UNL1       -0.0001
     15 C         -12.6680  -16.8382   22.7894 C.ar    1  UNL1        0.0031
     16 C         -11.4516  -16.7482   21.9163 C.ar    1  UNL1        0.0366
     17 C         -10.3464  -17.7516   22.0640 C.ar    1  UNL1        0.1348
     18 C          -9.4285  -20.8955   24.3039 C.3     1  UNL1        0.0051
     19 C          -9.3525  -19.8484   23.2326 C.3     1  UNL1        0.0294
     20 C          -8.4114  -15.6374   23.2854 C.3     1  UNL1        0.0763
     21 N          -8.1697  -14.8203   24.5198 N.3     1  UNL1       -0.2961
     22 C          -8.4218  -15.4144   25.8738 C.3     1  UNL1        0.0859
     23 H          -8.7623  -13.9933   24.4462 H       1  UNL1        0.1233
@<TRIPOS>BOND
     1    18    19    1
     2    19    12    1
     3    12    13   ar
     4    13    14   ar
     5    14    15   ar
     6    15    16   ar
     7    16    17   ar
     8    17    11    1
     9     1    11    1
    10     1     2    1
    11     2     3   ar
    12     3     4   ar
    13     4     5   ar
    14     5     6   ar
    15     6     7   ar
    16     7     8    1
    17     8     9    1
    18     9    10    1
    19    10    20    1
    20    20    21    1
    21    21    22    1
    22    17    12   ar
    23    10     1    1
    24     7     2   ar
    25    21    23    1
