@<TRIPOS>MOLECULE
*****
 36 40 0 0 0
SMALL
GASTEIGER

@<TRIPOS>ATOM
      1 C           5.5980   -3.4489   23.6019 C.ar    1  UNL1       -0.0025
      2 C           5.1980   -3.6375   22.1686 C.ar    1  UNL1       -0.0014
      3 C           4.2415   -2.6783   21.5244 C.ar    1  UNL1        0.0142
      4 C           3.6850   -1.5304   22.3135 C.ar    1  UNL1        0.0478
      5 C           4.0851   -1.3418   23.7467 C.ar    1  UNL1        0.0142
      6 C           5.0416   -2.3010   24.3910 C.ar    1  UNL1       -0.0014
      7 N           2.7285   -0.5712   21.6692 N.pl3   1  UNL1       -0.3075
      8 C           2.5110    0.7868   22.2680 C.3     1  UNL1        0.0911
      9 C           1.5545    1.7460   21.6237 C.3     1  UNL1        0.0258
     10 C           0.8156    1.3472   20.3808 C.3     1  UNL1        0.0257
     11 C           1.0331   -0.0108   19.7821 C.3     1  UNL1        0.0258
     12 C           1.9896   -0.9700   20.4263 C.3     1  UNL1        0.0911
     13 C          -0.1409    2.3064   19.7366 C.ar    1  UNL1       -0.0223
     14 C           0.0760    2.7429   18.3180 C.ar    1  UNL1       -0.0034
     15 C          -0.8805    3.7021   17.6737 C.ar    1  UNL1        0.0111
     16 C          -2.0540    4.2249   18.4481 C.ar    1  UNL1        0.0577
     17 CL         -3.0104    5.1841   17.8039 Cl      1  UNL1       -0.0822
     18 C          -2.2708    3.7885   19.8667 C.ar    1  UNL1        0.0111
     19 C          -1.3144    2.8293   20.5110 C.ar    1  UNL1       -0.0034
     20 C           6.5545   -4.4081   24.2461 C.3     1  UNL1        0.1166
     21 C           7.6350   -4.6556   26.5959 C.2     1  UNL1        0.2635
     22 O           8.9668   -4.2690   26.0241 O.2     1  UNL1       -0.2685
     23 N           6.4289   -4.7252   25.7069 N.am    1  UNL1       -0.2957
     24 H           5.5548   -4.9789   26.0821 H       1  UNL1        0.1501
     25 C           7.8907   -6.2658   28.7141 C.ar    1  UNL1        0.0811
     26 N           7.5973   -6.1446   30.1801 N.ar    1  UNL1       -0.2306
     27 C           7.0347   -4.7765   30.4287 C.ar    1  UNL1        0.1483
     28 C           6.5649   -4.0967   31.6805 C.ar    1  UNL1        0.0488
     29 C           6.0407   -2.6926   31.6199 C.ar    1  UNL1        0.0622
     30 CL          5.5708   -2.0127   32.8717 Cl      1  UNL1       -0.0821
     31 C           5.9863   -1.9683   30.3074 C.ar    1  UNL1        0.0305
     32 C           6.4561   -2.6481   29.0556 C.ar    1  UNL1        0.0824
     33 N           6.9803   -4.0522   29.1162 N.ar    1  UNL1       -0.2853
     34 C           7.5093   -4.9727   28.0566 C.ar    1  UNL1        0.1326
     35 C           7.6822   -8.1624   26.9507 C.3     1  UNL1        0.0067
     36 C           8.4646   -7.4690   28.0263 C.3     1  UNL1        0.0475
@<TRIPOS>BOND
     1    35    36    1
     2    36    25    1
     3    25    26   ar
     4    26    27   ar
     5    27    28   ar
     6    28    29   ar
     7    29    30    1
     8    29    31   ar
     9    31    32   ar
    10    32    33   ar
    11    33    34   ar
    12    34    21    1
    13    21    22    2
    14    21    23   am
    15    23    20    1
    16    20     1    1
    17     1     2   ar
    18     2     3   ar
    19     3     4   ar
    20     4     7    1
    21     7     8    1
    22     8     9    1
    23     9    10    1
    24    10    13    1
    25    13    14   ar
    26    14    15   ar
    27    15    16   ar
    28    16    17    1
    29    16    18   ar
    30    18    19   ar
    31    10    11    1
    32    11    12    1
    33     4     5   ar
    34     5     6   ar
    35    34    25   ar
    36     6     1   ar
    37    33    27   ar
    38    12     7    1
    39    19    13   ar
    40    23    24    1
@<TRIPOS>MOLECULE
*****
 36 40 0 0 0
SMALL
GASTEIGER

@<TRIPOS>ATOM
      1 C           6.9033   -4.7504   29.5626 C.ar    1  UNL1       -0.0025
      2 C           6.5558   -3.3197   29.2757 C.ar    1  UNL1       -0.0014
      3 C           6.2762   -2.3745   30.4063 C.ar    1  UNL1        0.0142
      4 C           6.3440   -2.8600   31.8240 C.ar    1  UNL1        0.0478
      5 C           6.6915   -4.2907   32.1109 C.ar    1  UNL1        0.0142
      6 C           6.9711   -5.2359   30.9802 C.ar    1  UNL1       -0.0014
      7 N           6.0644   -1.9148   32.9546 N.pl3   1  UNL1       -0.3075
      8 C           4.7291   -1.9367   33.6376 C.3     1  UNL1        0.0911
      9 C           4.4495   -0.9914   34.7683 C.3     1  UNL1        0.0258
     10 C           5.5051   -0.0243   35.2159 C.3     1  UNL1        0.0257
     11 C           6.8404   -0.0024   34.5329 C.3     1  UNL1        0.0258
     12 C           7.1200   -0.9477   33.4022 C.3     1  UNL1        0.0911
     13 C           5.2255    0.9209   36.3465 C.ar    1  UNL1       -0.0223
     14 C           5.9992    2.2006   36.4631 C.ar    1  UNL1       -0.0034
     15 C           5.7195    3.1458   37.5937 C.ar    1  UNL1        0.0111
     16 C           4.6661    2.8113   38.6079 C.ar    1  UNL1        0.0577
     17 CL          4.3865    3.7565   39.7385 Cl      1  UNL1       -0.0822
     18 C           3.8924    1.5316   38.4913 C.ar    1  UNL1        0.0111
     19 C           4.1721    0.5864   37.3607 C.ar    1  UNL1       -0.0034
     20 C           7.1830   -5.6956   28.4319 C.3     1  UNL1        0.1166
     21 C           7.4712   -4.6109   26.0888 C.2     1  UNL1        0.2635
     22 O           8.8276   -4.1096   26.4878 O.2     1  UNL1       -0.2685
     23 N           6.6490   -5.4038   27.0609 N.am    1  UNL1       -0.2957
     24 H           5.7588   -5.7328   26.7991 H       1  UNL1        0.1501
     25 C           7.3680   -4.9837   23.4439 C.ar    1  UNL1        0.0811
     26 N           6.5757   -4.3868   22.3188 N.ar    1  UNL1       -0.2306
     27 C           5.6552   -3.3533   22.8973 C.ar    1  UNL1        0.1483
     28 C           4.6425   -2.4449   22.2655 C.ar    1  UNL1        0.0488
     29 C           3.8532   -1.4947   23.1164 C.ar    1  UNL1        0.0622
     30 CL          2.8404   -0.5863   22.4846 Cl      1  UNL1       -0.0821
     31 C           4.0766   -1.4529   24.5991 C.ar    1  UNL1        0.0305
     32 C           5.0893   -2.3613   25.2309 C.ar    1  UNL1        0.0824
     33 N           5.8786   -3.3115   24.3800 N.ar    1  UNL1       -0.2853
     34 C           6.9372   -4.3191   24.7178 C.ar    1  UNL1        0.1326
     35 C           8.2738   -7.3282   24.1019 C.3     1  UNL1        0.0067
     36 C           8.4085   -6.0568   23.3174 C.3     1  UNL1        0.0475
@<TRIPOS>BOND
     1    35    36    1
     2    36    25    1
     3    25    26   ar
     4    26    27   ar
     5    27    28   ar
     6    28    29   ar
     7    29    30    1
     8    29    31   ar
     9    31    32   ar
    10    32    33   ar
    11    33    34   ar
    12    34    21    1
    13    21    22    2
    14    21    23   am
    15    23    20    1
    16    20     1    1
    17     1     2   ar
    18     2     3   ar
    19     3     4   ar
    20     4     7    1
    21     7     8    1
    22     8     9    1
    23     9    10    1
    24    10    13    1
    25    13    14   ar
    26    14    15   ar
    27    15    16   ar
    28    16    17    1
    29    16    18   ar
    30    18    19   ar
    31    10    11    1
    32    11    12    1
    33     4     5   ar
    34     5     6   ar
    35    34    25   ar
    36     6     1   ar
    37    33    27   ar
    38    12     7    1
    39    19    13   ar
    40    23    24    1
@<TRIPOS>MOLECULE
*****
 36 40 0 0 0
SMALL
GASTEIGER

@<TRIPOS>ATOM
      1 C           8.1548   -4.7081   23.7391 C.ar    1  UNL1       -0.0025
      2 C           7.4834   -5.6413   24.7025 C.ar    1  UNL1       -0.0014
      3 C           7.1149   -5.1640   26.0759 C.ar    1  UNL1        0.0142
      4 C           7.4179   -3.7533   26.4860 C.ar    1  UNL1        0.0478
      5 C           8.0893   -2.8200   25.5226 C.ar    1  UNL1        0.0142
      6 C           8.4577   -3.2974   24.1492 C.ar    1  UNL1       -0.0014
      7 N           7.0494   -3.2759   27.8594 N.pl3   1  UNL1       -0.3075
      8 C           7.0631   -4.2326   29.0147 C.3     1  UNL1        0.0911
      9 C           6.6946   -3.7552   30.3881 C.3     1  UNL1        0.0258
     10 C           6.3125   -2.3212   30.6063 C.3     1  UNL1        0.0257
     11 C           6.2988   -1.3645   29.4511 C.3     1  UNL1        0.0258
     12 C           6.6673   -1.8419   28.0776 C.3     1  UNL1        0.0911
     13 C           5.9440   -1.8438   31.9797 C.ar    1  UNL1       -0.0223
     14 C           6.8896   -0.9694   32.7487 C.ar    1  UNL1       -0.0034
     15 C           6.5211   -0.4920   34.1221 C.ar    1  UNL1        0.0111
     16 C           5.2070   -0.8891   34.7267 C.ar    1  UNL1        0.0577
     17 CL          4.8385   -0.4117   36.1001 Cl      1  UNL1       -0.0822
     18 C           4.2614   -1.7635   33.9578 C.ar    1  UNL1        0.0111
     19 C           4.6299   -2.2409   32.5843 C.ar    1  UNL1       -0.0034
     20 C           8.5232   -5.1855   22.3656 C.3     1  UNL1        0.1166
     21 C           6.7598   -3.9339   20.9256 C.2     1  UNL1        0.2635
     22 O           5.6835   -4.3451   21.8863 O.2     1  UNL1       -0.2685
     23 N           8.1795   -4.3541   21.1653 N.am    1  UNL1       -0.2957
     24 H           8.8859   -4.0842   20.5349 H       1  UNL1        0.1501
     25 C           5.4079   -3.4511   18.6708 C.ar    1  UNL1        0.0811
     26 N           5.3890   -2.3406   17.6626 N.ar    1  UNL1       -0.2306
     27 C           6.3854   -1.3057   18.0940 C.ar    1  UNL1        0.1483
     28 C           6.7967    0.0045   17.4908 C.ar    1  UNL1        0.0488
     29 C           7.8428    0.8439   18.1624 C.ar    1  UNL1        0.0622
     30 CL          8.2542    2.1542   17.5591 Cl      1  UNL1       -0.0821
     31 C           8.4776    0.3730   19.4373 C.ar    1  UNL1        0.0305
     32 C           8.0663   -0.9373   20.0405 C.ar    1  UNL1        0.0824
     33 N           7.0202   -1.7766   19.3689 N.ar    1  UNL1       -0.2853
     34 C           6.4161   -3.1025   19.7253 C.ar    1  UNL1        0.1326
     35 C           3.2468   -4.7266   19.3435 C.3     1  UNL1        0.0067
     36 C           4.5664   -4.6922   18.6313 C.3     1  UNL1        0.0475
@<TRIPOS>BOND
     1    35    36    1
     2    36    25    1
     3    25    26   ar
     4    26    27   ar
     5    27    28   ar
     6    28    29   ar
     7    29    30    1
     8    29    31   ar
     9    31    32   ar
    10    32    33   ar
    11    33    34   ar
    12    34    21    1
    13    21    22    2
    14    21    23   am
    15    23    20    1
    16    20     1    1
    17     1     2   ar
    18     2     3   ar
    19     3     4   ar
    20     4     7    1
    21     7     8    1
    22     8     9    1
    23     9    10    1
    24    10    13    1
    25    13    14   ar
    26    14    15   ar
    27    15    16   ar
    28    16    17    1
    29    16    18   ar
    30    18    19   ar
    31    10    11    1
    32    11    12    1
    33     4     5   ar
    34     5     6   ar
    35    34    25   ar
    36     6     1   ar
    37    33    27   ar
    38    12     7    1
    39    19    13   ar
    40    23    24    1
@<TRIPOS>MOLECULE
*****
 36 40 0 0 0
SMALL
GASTEIGER

@<TRIPOS>ATOM
      1 C           6.3854   -3.7251   24.2735 C.ar    1  UNL1       -0.0025
      2 C           6.9136   -4.6110   25.3626 C.ar    1  UNL1       -0.0014
      3 C           6.8124   -4.1795   26.7956 C.ar    1  UNL1        0.0142
      4 C           6.1830   -2.8621   27.1396 C.ar    1  UNL1        0.0478
      5 C           5.6548   -1.9763   26.0505 C.ar    1  UNL1        0.0142
      6 C           5.7560   -2.4078   24.6175 C.ar    1  UNL1       -0.0014
      7 N           6.0818   -2.4307   28.5726 N.pl3   1  UNL1       -0.3075
      8 C           6.5944   -3.3242   29.6629 C.3     1  UNL1        0.0911
      9 C           6.4932   -2.8928   31.0959 C.3     1  UNL1        0.0258
     10 C           5.8794   -1.5678   31.4387 C.3     1  UNL1        0.0257
     11 C           5.3667   -0.6742   30.3484 C.3     1  UNL1        0.0258
     12 C           5.4679   -1.1056   28.9154 C.3     1  UNL1        0.0911
     13 C           5.7782   -1.1363   32.8717 C.ar    1  UNL1       -0.0223
     14 C           6.9479   -0.4780   33.5412 C.ar    1  UNL1       -0.0034
     15 C           6.8467   -0.0466   34.9743 C.ar    1  UNL1        0.0111
     16 C           5.5757   -0.2734   35.7378 C.ar    1  UNL1        0.0577
     17 CL          5.4745    0.1581   37.1709 Cl      1  UNL1       -0.0822
     18 C           4.4059   -0.9316   35.0683 C.ar    1  UNL1        0.0111
     19 C           4.5071   -1.3631   33.6353 C.ar    1  UNL1       -0.0034
     20 C           6.4866   -4.1566   22.8405 C.3     1  UNL1        0.1166
     21 C           5.1451   -3.3741   20.7577 C.2     1  UNL1        0.2635
     22 O           4.2594   -4.5791   20.8756 O.2     1  UNL1       -0.2685
     23 N           6.2587   -3.1630   21.7401 N.am    1  UNL1       -0.2957
     24 H           6.8399   -2.3722   21.6628 H       1  UNL1        0.1501
     25 C           5.8467   -2.1031   18.5133 C.ar    1  UNL1        0.0811
     26 N           5.2236   -1.0410   17.6568 N.ar    1  UNL1       -0.2306
     27 C           3.9089   -0.6619   18.2716 C.ar    1  UNL1        0.1483
     28 C           2.8598    0.3301   17.8652 C.ar    1  UNL1        0.0488
     29 C           1.6212    0.4943   18.6953 C.ar    1  UNL1        0.0622
     30 CL          0.5720    1.4863   18.2889 Cl      1  UNL1       -0.0821
     31 C           1.4318   -0.3336   19.9317 C.ar    1  UNL1        0.0305
     32 C           2.4809   -1.3256   20.3380 C.ar    1  UNL1        0.0824
     33 N           3.7195   -1.4898   19.5080 N.ar    1  UNL1       -0.2853
     34 C           4.9171   -2.3805   19.6574 C.ar    1  UNL1        0.1326
     35 C           8.3936   -2.2943   18.9896 C.3     1  UNL1        0.0067
     36 C           7.1675   -2.7707   18.2687 C.3     1  UNL1        0.0475
@<TRIPOS>BOND
     1    35    36    1
     2    36    25    1
     3    25    26   ar
     4    26    27   ar
     5    27    28   ar
     6    28    29   ar
     7    29    30    1
     8    29    31   ar
     9    31    32   ar
    10    32    33   ar
    11    33    34   ar
    12    34    21    1
    13    21    22    2
    14    21    23   am
    15    23    20    1
    16    20     1    1
    17     1     2   ar
    18     2     3   ar
    19     3     4   ar
    20     4     7    1
    21     7     8    1
    22     8     9    1
    23     9    10    1
    24    10    13    1
    25    13    14   ar
    26    14    15   ar
    27    15    16   ar
    28    16    17    1
    29    16    18   ar
    30    18    19   ar
    31    10    11    1
    32    11    12    1
    33     4     5   ar
    34     5     6   ar
    35    34    25   ar
    36     6     1   ar
    37    33    27   ar
    38    12     7    1
    39    19    13   ar
    40    23    24    1
@<TRIPOS>MOLECULE
*****
 36 40 0 0 0
SMALL
GASTEIGER

@<TRIPOS>ATOM
      1 C           1.1089    1.8881   30.2512 C.ar    1  UNL1       -0.0025
      2 C           1.7692    0.5429   30.1873 C.ar    1  UNL1       -0.0014
      3 C           2.2059   -0.0163   28.8657 C.ar    1  UNL1        0.0142
      4 C           1.9822    0.7698   27.6080 C.ar    1  UNL1        0.0478
      5 C           1.3218    2.1151   27.6718 C.ar    1  UNL1        0.0142
      6 C           0.8852    2.6742   28.9934 C.ar    1  UNL1       -0.0014
      7 N           2.4189    0.2106   26.2864 N.pl3   1  UNL1       -0.3075
      8 C           1.7720    0.6872   25.0197 C.3     1  UNL1        0.0911
      9 C           2.2086    0.1280   23.6982 C.3     1  UNL1        0.0258
     10 C           3.2922   -0.9078   23.6432 C.3     1  UNL1        0.0257
     11 C           3.9392   -1.3843   24.9098 C.3     1  UNL1        0.0258
     12 C           3.5025   -0.8251   26.2314 C.3     1  UNL1        0.0911
     13 C           3.7289   -1.4670   22.3216 C.ar    1  UNL1       -0.0223
     14 C           3.4352   -0.7173   21.0561 C.ar    1  UNL1       -0.0034
     15 C           3.8718   -1.2765   19.7345 C.ar    1  UNL1        0.0111
     16 C           4.6023   -2.5854   19.6784 C.ar    1  UNL1        0.0577
     17 CL          5.0390   -3.1446   18.3568 Cl      1  UNL1       -0.0822
     18 C           4.8961   -3.3351   20.9439 C.ar    1  UNL1        0.0111
     19 C           4.4594   -2.7759   22.2655 C.ar    1  UNL1       -0.0034
     20 C           0.6722    2.4473   31.5728 C.3     1  UNL1        0.1166
     21 C           2.6094    2.4699   33.3039 C.2     1  UNL1        0.2635
     22 O           3.3201    3.5143   32.4949 O.2     1  UNL1       -0.2685
     23 N           1.2855    1.9365   32.8428 N.am    1  UNL1       -0.2957
     24 H           0.8190    1.2512   33.3738 H       1  UNL1        0.1501
     25 C           3.9736    0.6706   34.7344 C.ar    1  UNL1        0.0811
     26 N           4.4077    0.5624   36.1661 N.ar    1  UNL1       -0.2306
     27 C           3.9251    1.7840   36.8905 C.ar    1  UNL1        0.1483
     28 C           4.0580    2.2219   38.3190 C.ar    1  UNL1        0.0488
     29 C           3.4584    3.5230   38.7634 C.ar    1  UNL1        0.0622
     30 CL          3.5913    3.9609   40.1919 Cl      1  UNL1       -0.0821
     31 C           2.7260    4.3863   37.7794 C.ar    1  UNL1        0.0305
     32 C           2.5932    3.9484   36.3509 C.ar    1  UNL1        0.0824
     33 N           3.1927    2.6473   35.9065 N.ar    1  UNL1       -0.2853
     34 C           3.2227    1.9592   34.5739 C.ar    1  UNL1        0.1326
     35 C           4.2860   -1.7963   33.9817 C.3     1  UNL1        0.0067
     36 C           4.2430   -0.3334   33.6531 C.3     1  UNL1        0.0475
@<TRIPOS>BOND
     1    35    36    1
     2    36    25    1
     3    25    26   ar
     4    26    27   ar
     5    27    28   ar
     6    28    29   ar
     7    29    30    1
     8    29    31   ar
     9    31    32   ar
    10    32    33   ar
    11    33    34   ar
    12    34    21    1
    13    21    22    2
    14    21    23   am
    15    23    20    1
    16    20     1    1
    17     1     2   ar
    18     2     3   ar
    19     3     4   ar
    20     4     7    1
    21     7     8    1
    22     8     9    1
    23     9    10    1
    24    10    13    1
    25    13    14   ar
    26    14    15   ar
    27    15    16   ar
    28    16    17    1
    29    16    18   ar
    30    18    19   ar
    31    10    11    1
    32    11    12    1
    33     4     5   ar
    34     5     6   ar
    35    34    25   ar
    36     6     1   ar
    37    33    27   ar
    38    12     7    1
    39    19    13   ar
    40    23    24    1
@<TRIPOS>MOLECULE
*****
 36 40 0 0 0
SMALL
GASTEIGER

@<TRIPOS>ATOM
      1 C           5.2842   -0.8555   34.6388 C.ar    1  UNL1       -0.0025
      2 C           6.6315   -0.6524   34.0115 C.ar    1  UNL1       -0.0014
      3 C           6.9974   -1.3981   32.7625 C.ar    1  UNL1        0.0142
      4 C           6.0161   -2.3470   32.1407 C.ar    1  UNL1        0.0478
      5 C           4.6688   -2.5501   32.7681 C.ar    1  UNL1        0.0142
      6 C           4.3029   -1.8044   34.0171 C.ar    1  UNL1       -0.0014
      7 N           6.3820   -3.0927   30.8917 N.pl3   1  UNL1       -0.3075
      8 C           6.3171   -2.4039   29.5608 C.3     1  UNL1        0.0911
      9 C           6.6830   -3.1496   28.3118 C.3     1  UNL1        0.0258
     10 C           7.1138   -4.5841   28.3937 C.3     1  UNL1        0.0257
     11 C           7.1787   -5.2728   29.7247 C.3     1  UNL1        0.0258
     12 C           6.8128   -4.5271   30.9737 C.3     1  UNL1        0.0911
     13 C           7.4798   -5.3298   27.1447 C.ar    1  UNL1       -0.0223
     14 C           7.9251   -4.5780   25.9256 C.ar    1  UNL1       -0.0034
     15 C           8.2910   -5.3237   24.6766 C.ar    1  UNL1        0.0111
     16 C           8.2116   -6.8213   24.6467 C.ar    1  UNL1        0.0577
     17 CL          8.5775   -7.5670   23.3977 Cl      1  UNL1       -0.0822
     18 C           7.7663   -7.5731   25.8659 C.ar    1  UNL1        0.0111
     19 C           7.4004   -6.8274   27.1149 C.ar    1  UNL1       -0.0034
     20 C           4.9183   -0.1098   35.8878 C.3     1  UNL1        0.1166
     21 C           3.3578    1.7500   36.8129 C.2     1  UNL1        0.2635
     22 O           2.9285    0.8373   37.9234 O.2     1  UNL1       -0.2685
     23 N           4.3526    1.2764   35.7952 N.am    1  UNL1       -0.2957
     24 H           4.6343    1.8753   35.0664 H       1  UNL1        0.1501
     25 C           2.8389    4.1811   37.7954 C.ar    1  UNL1        0.0811
     26 N           2.1560    5.4114   37.2758 N.ar    1  UNL1       -0.2306
     27 C           1.6871    5.1268   35.8797 C.ar    1  UNL1        0.1483
     28 C           0.9530    5.9665   34.8767 C.ar    1  UNL1        0.0488
     29 C           0.6120    5.3999   33.5304 C.ar    1  UNL1        0.0622
     30 CL         -0.1221    6.2395   32.5273 Cl      1  UNL1       -0.0821
     31 C           1.0052    3.9936   33.1871 C.ar    1  UNL1        0.0305
     32 C           1.7393    3.1540   34.1900 C.ar    1  UNL1        0.0824
     33 N           2.0802    3.7206   35.5364 N.ar    1  UNL1       -0.2853
     34 C           2.7921    3.1361   36.7203 C.ar    1  UNL1        0.1326
     35 C           4.2054    5.1672   39.7728 C.3     1  UNL1        0.0067
     36 C           3.4596    4.0235   39.1518 C.3     1  UNL1        0.0475
@<TRIPOS>BOND
     1    35    36    1
     2    36    25    1
     3    25    26   ar
     4    26    27   ar
     5    27    28   ar
     6    28    29   ar
     7    29    30    1
     8    29    31   ar
     9    31    32   ar
    10    32    33   ar
    11    33    34   ar
    12    34    21    1
    13    21    22    2
    14    21    23   am
    15    23    20    1
    16    20     1    1
    17     1     2   ar
    18     2     3   ar
    19     3     4   ar
    20     4     7    1
    21     7     8    1
    22     8     9    1
    23     9    10    1
    24    10    13    1
    25    13    14   ar
    26    14    15   ar
    27    15    16   ar
    28    16    17    1
    29    16    18   ar
    30    18    19   ar
    31    10    11    1
    32    11    12    1
    33     4     5   ar
    34     5     6   ar
    35    34    25   ar
    36     6     1   ar
    37    33    27   ar
    38    12     7    1
    39    19    13   ar
    40    23    24    1
@<TRIPOS>MOLECULE
*****
 36 40 0 0 0
SMALL
GASTEIGER

@<TRIPOS>ATOM
      1 C           0.1318    1.5876   20.7288 C.ar    1  UNL1       -0.0025
      2 C           0.5565    0.3845   19.9401 C.ar    1  UNL1       -0.0014
      3 C           1.5962   -0.5454   20.4919 C.ar    1  UNL1        0.0142
      4 C           2.2113   -0.2720   21.8324 C.ar    1  UNL1        0.0478
      5 C           1.7866    0.9311   22.6211 C.ar    1  UNL1        0.0142
      6 C           0.7469    1.8609   22.0693 C.ar    1  UNL1       -0.0014
      7 N           3.2510   -1.2018   22.3842 N.pl3   1  UNL1       -0.3075
      8 C           3.6456   -1.1132   23.8286 C.3     1  UNL1        0.0911
      9 C           4.6853   -2.0430   24.3803 C.3     1  UNL1        0.0258
     10 C           5.3304   -3.0615   23.4877 C.3     1  UNL1        0.0257
     11 C           4.9357   -3.1501   22.0433 C.3     1  UNL1        0.0258
     12 C           3.8960   -2.2203   21.4915 C.3     1  UNL1        0.0911
     13 C           6.3701   -3.9913   24.0395 C.ar    1  UNL1       -0.0223
     14 C           7.2579   -4.7615   23.1076 C.ar    1  UNL1       -0.0034
     15 C           8.2976   -5.6913   23.6594 C.ar    1  UNL1        0.0111
     16 C           8.4495   -5.8509   25.1431 C.ar    1  UNL1        0.0577
     17 CL          9.4892   -6.7807   25.6949 Cl      1  UNL1       -0.0822
     18 C           7.5616   -5.0807   26.0750 C.ar    1  UNL1        0.0111
     19 C           6.5219   -4.1509   25.5232 C.ar    1  UNL1       -0.0034
     20 C          -0.9079    2.5174   20.1770 C.3     1  UNL1        0.1166
     21 C          -3.1206    3.8345   20.5220 C.2     1  UNL1        0.2635
     22 O          -2.7417    4.7631   19.4065 O.2     1  UNL1       -0.2685
     23 N          -2.2037    2.7117   20.9072 N.am    1  UNL1       -0.2957
     24 H          -2.4523    2.1023   21.6393 H       1  UNL1        0.1501
     25 C          -5.7893    3.8673   20.6700 C.ar    1  UNL1        0.0811
     26 N          -6.7881    4.1574   21.7508 N.ar    1  UNL1       -0.2306
     27 C          -6.0325    4.4984   23.0010 C.ar    1  UNL1        0.1483
     28 C          -6.4899    4.8709   24.3801 C.ar    1  UNL1        0.0488
     29 C          -5.4814    5.1639   25.4510 C.ar    1  UNL1        0.0622
     30 CL         -5.9387    5.5365   26.8302 Cl      1  UNL1       -0.0821
     31 C          -4.0155    5.0844   25.1429 C.ar    1  UNL1        0.0305
     32 C          -3.5582    4.7119   23.7637 C.ar    1  UNL1        0.0824
     33 N          -4.5667    4.4189   22.6928 N.ar    1  UNL1       -0.2853
     34 C          -4.4164    4.0288   21.2522 C.ar    1  UNL1        0.1326
     35 C          -6.1005    4.5242   18.1757 C.3     1  UNL1        0.0067
     36 C          -6.1076    3.4830   19.2554 C.3     1  UNL1        0.0475
@<TRIPOS>BOND
     1    35    36    1
     2    36    25    1
     3    25    26   ar
     4    26    27   ar
     5    27    28   ar
     6    28    29   ar
     7    29    30    1
     8    29    31   ar
     9    31    32   ar
    10    32    33   ar
    11    33    34   ar
    12    34    21    1
    13    21    22    2
    14    21    23   am
    15    23    20    1
    16    20     1    1
    17     1     2   ar
    18     2     3   ar
    19     3     4   ar
    20     4     7    1
    21     7     8    1
    22     8     9    1
    23     9    10    1
    24    10    13    1
    25    13    14   ar
    26    14    15   ar
    27    15    16   ar
    28    16    17    1
    29    16    18   ar
    30    18    19   ar
    31    10    11    1
    32    11    12    1
    33     4     5   ar
    34     5     6   ar
    35    34    25   ar
    36     6     1   ar
    37    33    27   ar
    38    12     7    1
    39    19    13   ar
    40    23    24    1
@<TRIPOS>MOLECULE
*****
 36 40 0 0 0
SMALL
GASTEIGER

@<TRIPOS>ATOM
      1 C           4.0953   -0.7363   24.3424 C.ar    1  UNL1       -0.0025
      2 C           3.1322   -0.4315   23.2336 C.ar    1  UNL1       -0.0014
      3 C           1.9003    0.3780   23.5116 C.ar    1  UNL1        0.0142
      4 C           1.6316    0.8828   24.8983 C.ar    1  UNL1        0.0478
      5 C           2.5948    0.5779   26.0071 C.ar    1  UNL1        0.0142
      6 C           3.8266   -0.2316   25.7291 C.ar    1  UNL1       -0.0014
      7 N           0.3998    1.6923   25.1762 N.pl3   1  UNL1       -0.3075
      8 C          -0.2279    2.5028   24.0812 C.3     1  UNL1        0.0911
      9 C          -1.4597    3.3123   24.3591 C.3     1  UNL1        0.0258
     10 C          -2.0639    3.3113   25.7321 C.3     1  UNL1        0.0257
     11 C          -1.4363    2.5008   26.8271 C.3     1  UNL1        0.0258
     12 C          -0.2044    1.6913   26.5492 C.3     1  UNL1        0.0911
     13 C          -3.2958    4.1208   26.0100 C.ar    1  UNL1       -0.0223
     14 C          -3.2539    5.2267   27.0225 C.ar    1  UNL1       -0.0034
     15 C          -4.4858    6.0362   27.3004 C.ar    1  UNL1        0.0111
     16 C          -5.7595    5.7398   26.5658 C.ar    1  UNL1        0.0577
     17 CL         -6.9914    6.5493   26.8437 Cl      1  UNL1       -0.0822
     18 C          -5.8014    4.6339   25.5533 C.ar    1  UNL1        0.0111
     19 C          -4.5696    3.8244   25.2754 C.ar    1  UNL1       -0.0034
     20 C           5.3272   -1.5458   24.0645 C.3     1  UNL1        0.1166
     21 C           7.0419   -3.2741   24.9714 C.2     1  UNL1        0.2635
     22 O           8.1349   -2.5936   24.2016 O.2     1  UNL1       -0.2685
     23 N           5.6381   -2.7502   24.9028 N.am    1  UNL1       -0.2957
     24 H           4.9208   -3.1967   25.4080 H       1  UNL1        0.1501
     25 C           7.8913   -5.7860   25.3092 C.ar    1  UNL1        0.0811
     26 N           8.0512   -6.7023   26.4860 N.ar    1  UNL1       -0.2306
     27 C           7.6116   -5.9611   27.7138 C.ar    1  UNL1        0.1483
     28 C           7.5486   -6.3602   29.1583 C.ar    1  UNL1        0.0488
     29 C           7.0540   -5.3848   30.1849 C.ar    1  UNL1        0.0622
     30 CL          6.9910   -5.7839   31.6295 Cl      1  UNL1       -0.0821
     31 C           6.6224   -4.0104   29.7670 C.ar    1  UNL1        0.0305
     32 C           6.6854   -3.6113   28.3224 C.ar    1  UNL1        0.0824
     33 N           7.1800   -4.5867   27.2958 N.ar    1  UNL1       -0.2853
     34 C           7.3529   -4.4784   25.8098 C.ar    1  UNL1        0.1326
     35 C           8.7573   -7.4719   23.5323 C.3     1  UNL1        0.0067
     36 C           8.2132   -6.1187   23.8825 C.3     1  UNL1        0.0475
@<TRIPOS>BOND
     1    35    36    1
     2    36    25    1
     3    25    26   ar
     4    26    27   ar
     5    27    28   ar
     6    28    29   ar
     7    29    30    1
     8    29    31   ar
     9    31    32   ar
    10    32    33   ar
    11    33    34   ar
    12    34    21    1
    13    21    22    2
    14    21    23   am
    15    23    20    1
    16    20     1    1
    17     1     2   ar
    18     2     3   ar
    19     3     4   ar
    20     4     7    1
    21     7     8    1
    22     8     9    1
    23     9    10    1
    24    10    13    1
    25    13    14   ar
    26    14    15   ar
    27    15    16   ar
    28    16    17    1
    29    16    18   ar
    30    18    19   ar
    31    10    11    1
    32    11    12    1
    33     4     5   ar
    34     5     6   ar
    35    34    25   ar
    36     6     1   ar
    37    33    27   ar
    38    12     7    1
    39    19    13   ar
    40    23    24    1
@<TRIPOS>MOLECULE
*****
 36 40 0 0 0
SMALL
GASTEIGER

@<TRIPOS>ATOM
      1 C           1.6759    1.0895   26.6348 C.ar    1  UNL1       -0.0025
      2 C           1.1397    1.2181   25.2399 C.ar    1  UNL1       -0.0014
      3 C          -0.1756    1.8987   25.0017 C.ar    1  UNL1        0.0142
      4 C          -0.9548    2.4507   26.1585 C.ar    1  UNL1        0.0478
      5 C          -0.4186    2.3221   27.5534 C.ar    1  UNL1        0.0142
      6 C           0.8967    1.6415   27.7916 C.ar    1  UNL1       -0.0014
      7 N          -2.2701    3.1313   25.9203 N.pl3   1  UNL1       -0.3075
      8 C          -3.0945    3.5980   27.0832 C.3     1  UNL1        0.0911
      9 C          -4.4098    4.2786   26.8450 C.3     1  UNL1        0.0258
     10 C          -4.9007    4.4925   25.4438 C.3     1  UNL1        0.0257
     11 C          -4.0762    4.0258   24.2809 C.3     1  UNL1        0.0258
     12 C          -2.7610    3.3452   24.5191 C.3     1  UNL1        0.0911
     13 C          -6.2160    5.1731   25.2056 C.ar    1  UNL1       -0.0223
     14 C          -6.7870    6.0877   26.2485 C.ar    1  UNL1       -0.0034
     15 C          -8.1023    6.7683   26.0103 C.ar    1  UNL1        0.0111
     16 C          -8.8466    6.5344   24.7291 C.ar    1  UNL1        0.0577
     17 CL        -10.1619    7.2150   24.4909 Cl      1  UNL1       -0.0822
     18 C          -8.2756    5.6198   23.6863 C.ar    1  UNL1        0.0111
     19 C          -6.9603    4.9392   23.9245 C.ar    1  UNL1       -0.0034
     20 C           2.9912    0.4089   26.8730 C.3     1  UNL1        0.1166
     21 C           4.5126   -0.6607   25.0588 C.2     1  UNL1        0.2635
     22 O           5.2475    0.6385   24.9094 O.2     1  UNL1       -0.2685
     23 N           3.3845   -0.7754   26.0406 N.am    1  UNL1       -0.2957
     24 H           2.9021   -1.6280   26.1388 H       1  UNL1        0.1501
     25 C           5.8354   -2.9459   24.6432 C.ar    1  UNL1        0.0811
     26 N           5.9427   -3.9175   23.5054 N.ar    1  UNL1       -0.2306
     27 C           5.0794   -3.4170   22.3855 C.ar    1  UNL1        0.1483
     28 C           4.7940   -3.9621   21.0176 C.ar    1  UNL1        0.0488
     29 C           3.8679   -3.2263   20.0952 C.ar    1  UNL1        0.0622
     30 CL          3.5825   -3.7715   18.7272 Cl      1  UNL1       -0.0821
     31 C           3.2271   -1.9454   20.5408 C.ar    1  UNL1        0.0305
     32 C           3.5125   -1.4002   21.9088 C.ar    1  UNL1        0.0824
     33 N           4.4386   -2.1360   22.8311 N.ar    1  UNL1       -0.2853
     34 C           4.9059   -1.8449   24.2264 C.ar    1  UNL1        0.1326
     35 C           6.8636   -4.4062   26.5301 C.3     1  UNL1        0.0067
     36 C           6.5349   -3.0560   25.9656 C.3     1  UNL1        0.0475
@<TRIPOS>BOND
     1    35    36    1
     2    36    25    1
     3    25    26   ar
     4    26    27   ar
     5    27    28   ar
     6    28    29   ar
     7    29    30    1
     8    29    31   ar
     9    31    32   ar
    10    32    33   ar
    11    33    34   ar
    12    34    21    1
    13    21    22    2
    14    21    23   am
    15    23    20    1
    16    20     1    1
    17     1     2   ar
    18     2     3   ar
    19     3     4   ar
    20     4     7    1
    21     7     8    1
    22     8     9    1
    23     9    10    1
    24    10    13    1
    25    13    14   ar
    26    14    15   ar
    27    15    16   ar
    28    16    17    1
    29    16    18   ar
    30    18    19   ar
    31    10    11    1
    32    11    12    1
    33     4     5   ar
    34     5     6   ar
    35    34    25   ar
    36     6     1   ar
    37    33    27   ar
    38    12     7    1
    39    19    13   ar
    40    23    24    1
