@<TRIPOS>MOLECULE
*****
 43 48 0 0 0
SMALL
GASTEIGER

@<TRIPOS>ATOM
      1 C           3.1612   -0.2722   30.6510 C.2     1  UNL1        0.2252
      2 O           1.7395    0.1806   30.4971 O.2     1  UNL1       -0.2749
      3 N           3.8916   -0.8608   29.4805 N.am    1  UNL1       -0.2794
      4 C           3.2004   -0.9966   28.1562 C.3     1  UNL1        0.0953
      5 C           3.9308   -1.5852   26.9858 C.3     1  UNL1        0.0442
      6 C           5.3526   -2.0381   27.1396 C.3     1  UNL1        0.0933
      7 C           6.0438   -1.9023   28.4638 C.3     1  UNL1        0.0442
      8 C           5.3133   -1.3137   29.6343 C.3     1  UNL1        0.0953
      9 N           6.0830   -2.6267   25.9691 N.ar    1  UNL1       -0.2817
     10 C           6.4201   -1.9157   24.6921 C.ar    1  UNL1        0.3315
     11 O           6.0860   -0.4913   24.3612 O.2     1  UNL1       -0.2463
     12 N           7.1500   -2.8793   23.8039 N.ar    1  UNL1       -0.2784
     13 C           7.2641   -4.1857   24.5321 C.ar    1  UNL1        0.0820
     14 C           7.8831   -5.4973   24.1495 C.ar    1  UNL1        0.0484
     15 C           7.8428   -6.6528   25.1051 C.ar    1  UNL1        0.1417
     16 F           8.4619   -7.9644   24.7225 F       1  UNL1       -0.2041
     17 C           7.1833   -6.4967   26.4432 C.ar    1  UNL1        0.0312
     18 C           6.5642   -5.1851   26.8258 C.ar    1  UNL1        0.0211
     19 C           6.6046   -4.0296   25.8703 C.ar    1  UNL1        0.0798
     20 C           7.6740   -2.5876   22.4290 C.3     1  UNL1        0.1278
     21 C           7.1455   -3.3470   21.2482 C.3     1  UNL1        0.0972
     22 N           5.7734   -3.0510   20.7192 N.3     1  UNL1       -0.2668
     23 C           5.0776   -4.0475   19.8401 C.3     1  UNL1        0.1047
     24 C           3.7055   -3.7515   19.3111 C.3     1  UNL1        0.1595
     25 O           3.0295   -2.4590   19.6610 O.3     1  UNL1       -0.3508
     26 C           3.7253   -1.4625   20.5400 C.3     1  UNL1        0.1595
     27 C           5.0974   -1.7585   21.0691 C.3     1  UNL1        0.1047
     28 N           5.2349    0.1350   34.6238 N.3     1  UNL1       -0.2689
     29 C           5.0619    1.3358   33.7415 C.3     1  UNL1        0.0729
     30 C           4.3706    1.2000   32.4173 C.3     1  UNL1        0.0264
     31 C           3.8524   -0.1365   31.9753 C.3     1  UNL1        0.0795
     32 C           4.0255   -1.3372   32.8575 C.3     1  UNL1        0.0264
     33 C           4.7168   -1.2014   34.1818 C.3     1  UNL1        0.0729
     34 C           5.9262    0.2708   35.9481 C.3     1  UNL1        0.0993
     35 N           1.5971    1.1168   38.6946 N.pl3   1  UNL1       -0.3426
     36 C           3.0603    1.3580   38.4689 C.ar    1  UNL1        0.1251
     37 C           3.7617    0.6938   37.3213 C.ar    1  UNL1        0.0310
     38 C           5.2249    0.9350   37.0956 C.ar    1  UNL1       -0.0018
     39 C           5.9867    1.8405   38.0175 C.ar    1  UNL1        0.0179
     40 C           5.2853    2.5047   39.1650 C.ar    1  UNL1        0.1000
     41 N           3.8221    2.2635   39.3907 N.ar    1  UNL1       -0.2296
     42 H           1.0971    0.5226   38.0896 H       1  UNL1        0.1437
     43 H           1.1368    1.5528   39.4478 H       1  UNL1        0.1437
@<TRIPOS>BOND
     1    35    36    1
     2    36    37   ar
     3    37    38   ar
     4    38    34    1
     5    34    28    1
     6    28    29    1
     7    29    30    1
     8    30    31    1
     9    31     1    1
    10     1     2    2
    11     1     3   am
    12     3     4    1
    13     4     5    1
    14     5     6    1
    15     6     9    1
    16     9    10   ar
    17    10    11    2
    18    10    12   ar
    19    12    20    1
    20    20    21    1
    21    21    22    1
    22    22    23    1
    23    23    24    1
    24    24    25    1
    25    25    26    1
    26    26    27    1
    27    12    13   ar
    28    13    14   ar
    29    14    15   ar
    30    15    16    1
    31    15    17   ar
    32    17    18   ar
    33    18    19   ar
    34     6     7    1
    35     7     8    1
    36    31    32    1
    37    32    33    1
    38    38    39   ar
    39    39    40   ar
    40    40    41   ar
    41    41    36   ar
    42    33    28    1
    43     8     3    1
    44    19     9   ar
    45    27    22    1
    46    19    13   ar
    47    35    42    1
    48    35    43    1
@<TRIPOS>MOLECULE
*****
 43 48 0 0 0
SMALL
GASTEIGER

@<TRIPOS>ATOM
      1 C           6.6152   -3.8775   21.4869 C.2     1  UNL1        0.2252
      2 O           7.5119   -4.9117   20.8734 O.2     1  UNL1       -0.2749
      3 N           6.5748   -3.7087   22.9769 N.am    1  UNL1       -0.2794
      4 C           7.4311   -4.5740   23.8532 C.3     1  UNL1        0.0953
      5 C           7.3907   -4.4053   25.3431 C.3     1  UNL1        0.0442
      6 C           6.4940   -3.3710   25.9567 C.3     1  UNL1        0.0933
      7 C           5.6378   -2.5058   25.0804 C.3     1  UNL1        0.0442
      8 C           5.6782   -2.6745   23.5905 C.3     1  UNL1        0.0953
      9 N           6.4536   -3.2022   27.4467 N.ar    1  UNL1       -0.2817
     10 C           5.9872   -1.9817   28.1834 C.ar    1  UNL1        0.3315
     11 O           5.4794   -0.7156   27.5595 O.2     1  UNL1       -0.2463
     12 N           6.1179   -2.2495   29.6535 N.ar    1  UNL1       -0.2784
     13 C           6.6650   -3.6356   29.8253 C.ar    1  UNL1        0.0820
     14 C           7.0010   -4.4376   31.0475 C.ar    1  UNL1        0.0484
     15 C           7.5445   -5.8284   30.9058 C.ar    1  UNL1        0.1417
     16 F           7.8806   -6.6305   32.1281 F       1  UNL1       -0.2041
     17 C           7.7520   -6.4173   29.5419 C.ar    1  UNL1        0.0312
     18 C           7.4159   -5.6152   28.3197 C.ar    1  UNL1        0.0211
     19 C           6.8724   -4.2244   28.4614 C.ar    1  UNL1        0.0798
     20 C           5.7637   -1.2983   30.7579 C.3     1  UNL1        0.1278
     21 C           4.4823   -1.4747   31.5175 C.3     1  UNL1        0.0972
     22 N           3.3483   -0.5153   31.3086 N.3     1  UNL1       -0.2668
     23 C           2.4626   -0.6516   30.1058 C.3     1  UNL1        0.1047
     24 C           1.3287    0.3079   29.8969 C.3     1  UNL1        0.1595
     25 O           1.0805    1.4036   30.8908 O.3     1  UNL1       -0.3508
     26 C           1.9662    1.5399   32.0937 C.3     1  UNL1        0.1595
     27 C           3.1002    0.5804   32.3026 C.3     1  UNL1        0.1047
     28 N           4.0464   -1.2814   18.8579 N.3     1  UNL1       -0.2689
     29 C           3.5199   -2.5927   19.3615 C.3     1  UNL1        0.0729
     30 C           4.3761   -3.4581   20.2378 C.3     1  UNL1        0.0264
     31 C           5.7590   -3.0121   20.6106 C.3     1  UNL1        0.0795
     32 C           6.2855   -1.7010   20.1071 C.3     1  UNL1        0.0264
     33 C           5.4293   -0.8356   19.2308 C.3     1  UNL1        0.0729
     34 C           3.1902   -0.4161   17.9816 C.3     1  UNL1        0.0993
     35 N          -0.7062    1.7869   20.6208 N.pl3   1  UNL1       -0.3426
     36 C           0.5853    1.9092   19.8676 C.ar    1  UNL1        0.1251
     37 C           1.2421    0.6854   19.3012 C.ar    1  UNL1        0.0310
     38 C           2.5335    0.8078   18.5480 C.ar    1  UNL1       -0.0018
     39 C           3.1681    2.1540   18.3612 C.ar    1  UNL1        0.0179
     40 C           2.5113    3.3778   18.9276 C.ar    1  UNL1        0.1000
     41 N           1.2199    3.2554   19.6808 N.ar    1  UNL1       -0.2296
     42 H          -1.1227    0.9033   20.7434 H       1  UNL1        0.1437
     43 H          -1.1372    2.5901   20.9925 H       1  UNL1        0.1437
@<TRIPOS>BOND
     1    35    36    1
     2    36    37   ar
     3    37    38   ar
     4    38    34    1
     5    34    28    1
     6    28    29    1
     7    29    30    1
     8    30    31    1
     9    31     1    1
    10     1     2    2
    11     1     3   am
    12     3     4    1
    13     4     5    1
    14     5     6    1
    15     6     9    1
    16     9    10   ar
    17    10    11    2
    18    10    12   ar
    19    12    20    1
    20    20    21    1
    21    21    22    1
    22    22    23    1
    23    23    24    1
    24    24    25    1
    25    25    26    1
    26    26    27    1
    27    12    13   ar
    28    13    14   ar
    29    14    15   ar
    30    15    16    1
    31    15    17   ar
    32    17    18   ar
    33    18    19   ar
    34     6     7    1
    35     7     8    1
    36    31    32    1
    37    32    33    1
    38    38    39   ar
    39    39    40   ar
    40    40    41   ar
    41    41    36   ar
    42    33    28    1
    43     8     3    1
    44    19     9   ar
    45    27    22    1
    46    19    13   ar
    47    35    42    1
    48    35    43    1
@<TRIPOS>MOLECULE
*****
 43 48 0 0 0
SMALL
GASTEIGER

@<TRIPOS>ATOM
      1 C           3.8396   -2.7894   20.1479 C.2     1  UNL1        0.2252
      2 O           3.5649   -3.4458   18.8274 O.2     1  UNL1       -0.2749
      3 N           2.9773   -1.6543   20.6149 N.am    1  UNL1       -0.2794
      4 C           1.8404   -1.1757   19.7614 C.3     1  UNL1        0.0953
      5 C           0.9781   -0.0406   20.2284 C.3     1  UNL1        0.0442
      6 C           1.2527    0.6158   21.5490 C.3     1  UNL1        0.0933
      7 C           2.3895    0.1371   22.4024 C.3     1  UNL1        0.0442
      8 C           3.2518   -0.9979   21.9354 C.3     1  UNL1        0.0953
      9 N           0.3904    1.7509   22.0160 N.ar    1  UNL1       -0.2817
     10 C          -0.1850    2.8341   21.1526 C.ar    1  UNL1        0.3315
     11 O           0.0008    2.9725   19.6706 O.2     1  UNL1       -0.2463
     12 N          -0.9789    3.7546   22.0315 N.ar    1  UNL1       -0.2784
     13 C          -0.8941    3.2404   23.4380 C.ar    1  UNL1        0.0820
     14 C          -1.4781    3.7398   24.7262 C.ar    1  UNL1        0.0484
     15 C          -1.2159    3.0007   26.0048 C.ar    1  UNL1        0.1417
     16 F          -1.7999    3.5001   27.2931 F       1  UNL1       -0.2041
     17 C          -0.3696    1.7623   25.9953 C.ar    1  UNL1        0.0312
     18 C           0.2145    1.2629   24.7071 C.ar    1  UNL1        0.0211
     19 C          -0.0478    2.0020   23.4285 C.ar    1  UNL1        0.0798
     20 C          -1.7264    4.9752   21.5826 C.3     1  UNL1        0.1278
     21 C          -3.2222    4.9414   21.4750 C.3     1  UNL1        0.0972
     22 N          -3.8730    4.4028   20.2355 N.3     1  UNL1       -0.2668
     23 C          -3.1460    4.4531   18.9244 C.3     1  UNL1        0.1047
     24 C          -3.7968    3.9145   17.6849 C.3     1  UNL1        0.1595
     25 O          -5.1745    3.3257   17.7565 O.3     1  UNL1       -0.3508
     26 C          -5.9015    3.2753   19.0675 C.3     1  UNL1        0.1595
     27 C          -5.2507    3.8139   20.3071 C.3     1  UNL1        0.1047
     28 N           7.2501   -4.2254   22.7084 N.3     1  UNL1       -0.2689
     29 C           7.4762   -3.9288   21.2554 C.3     1  UNL1        0.0729
     30 C           6.3393   -3.4501   20.4019 C.3     1  UNL1        0.0264
     31 C           4.9764   -3.2681   21.0014 C.3     1  UNL1        0.0795
     32 C           4.7503   -3.5647   22.4543 C.3     1  UNL1        0.0264
     33 C           5.8872   -4.0433   23.3078 C.3     1  UNL1        0.0729
     34 C           8.3869   -4.7040   23.5619 C.3     1  UNL1        0.0993
     35 N           7.0240   -8.6397   26.6687 N.pl3   1  UNL1       -0.3426
     36 C           7.4370   -7.2088   26.4899 C.ar    1  UNL1        0.1251
     37 C           7.7055   -6.6718   25.1153 C.ar    1  UNL1        0.0310
     38 C           8.1185   -5.2409   24.9365 C.ar    1  UNL1       -0.0018
     39 C           8.2631   -4.3470   26.1323 C.ar    1  UNL1        0.0179
     40 C           7.9947   -4.8840   27.5069 C.ar    1  UNL1        0.1000
     41 N           7.5816   -6.3149   27.6857 N.ar    1  UNL1       -0.2296
     42 H           6.9291   -9.2265   25.8839 H       1  UNL1        0.1437
     43 H           6.8478   -8.9921   27.5710 H       1  UNL1        0.1437
@<TRIPOS>BOND
     1    35    36    1
     2    36    37   ar
     3    37    38   ar
     4    38    34    1
     5    34    28    1
     6    28    29    1
     7    29    30    1
     8    30    31    1
     9    31     1    1
    10     1     2    2
    11     1     3   am
    12     3     4    1
    13     4     5    1
    14     5     6    1
    15     6     9    1
    16     9    10   ar
    17    10    11    2
    18    10    12   ar
    19    12    20    1
    20    20    21    1
    21    21    22    1
    22    22    23    1
    23    23    24    1
    24    24    25    1
    25    25    26    1
    26    26    27    1
    27    12    13   ar
    28    13    14   ar
    29    14    15   ar
    30    15    16    1
    31    15    17   ar
    32    17    18   ar
    33    18    19   ar
    34     6     7    1
    35     7     8    1
    36    31    32    1
    37    32    33    1
    38    38    39   ar
    39    39    40   ar
    40    40    41   ar
    41    41    36   ar
    42    33    28    1
    43     8     3    1
    44    19     9   ar
    45    27    22    1
    46    19    13   ar
    47    35    42    1
    48    35    43    1
@<TRIPOS>MOLECULE
*****
 43 48 0 0 0
SMALL
GASTEIGER

@<TRIPOS>ATOM
      1 C           6.1927   -1.9579   18.8970 C.2     1  UNL1        0.2252
      2 O           6.6492   -2.4089   17.5412 O.2     1  UNL1       -0.2749
      3 N           5.0486   -0.9958   19.0214 N.am    1  UNL1       -0.2794
      4 C           4.3611   -0.4847   17.7901 C.3     1  UNL1        0.0953
      5 C           3.2170    0.4773   17.9146 C.3     1  UNL1        0.0442
      6 C           2.7604    0.9283   19.2704 C.3     1  UNL1        0.0933
      7 C           3.4479    0.4172   20.5016 C.3     1  UNL1        0.0442
      8 C           4.5920   -0.5449   20.3772 C.3     1  UNL1        0.0953
      9 N           1.6163    1.8904   19.3949 N.ar    1  UNL1       -0.2817
     10 C           0.3098    1.6226   20.0814 C.ar    1  UNL1        0.3315
     11 O          -0.0820    0.3457   20.7640 O.2     1  UNL1       -0.2463
     12 N          -0.5361    2.8559   19.9654 N.ar    1  UNL1       -0.2784
     13 C           0.2477    3.8860   19.2072 C.ar    1  UNL1        0.0820
     14 C          -0.0781    5.2901   18.7924 C.ar    1  UNL1        0.0484
     15 C           0.9263    6.0976   18.0249 C.ar    1  UNL1        0.1417
     16 F           0.6005    7.5018   17.6100 F       1  UNL1       -0.2041
     17 C           2.2566    5.5008   17.6723 C.ar    1  UNL1        0.0312
     18 C           2.5824    4.0967   18.0871 C.ar    1  UNL1        0.0211
     19 C           1.5779    3.2892   18.8546 C.ar    1  UNL1        0.0798
     20 C          -1.9223    3.0289   20.5117 C.3     1  UNL1        0.1278
     21 C          -2.1194    3.4420   21.9402 C.3     1  UNL1        0.0972
     22 N          -3.4200    4.0518   22.3720 N.3     1  UNL1       -0.2668
     23 C          -3.4612    5.4753   22.8430 C.3     1  UNL1        0.1047
     24 C          -4.7619    6.0851   23.2747 C.3     1  UNL1        0.1595
     25 O          -6.0213    5.2713   23.2355 O.3     1  UNL1       -0.3508
     26 C          -5.9802    3.8477   22.7646 C.3     1  UNL1        0.1595
     27 C          -4.6795    3.2380   22.3328 C.3     1  UNL1        0.1047
     28 N           8.2551   -3.4912   22.5909 N.3     1  UNL1       -0.2689
     29 C           7.2128   -4.3291   21.9114 C.3     1  UNL1        0.0729
     30 C           6.5253   -3.8180   20.6801 C.3     1  UNL1        0.0264
     31 C           6.8801   -2.4690   20.1283 C.3     1  UNL1        0.0795
     32 C           7.9224   -1.6312   20.8078 C.3     1  UNL1        0.0264
     33 C           8.6098   -2.1423   22.0391 C.3     1  UNL1        0.0729
     34 C           8.9426   -4.0023   23.8222 C.3     1  UNL1        0.0993
     35 N           5.8099   -5.7609   27.5764 N.pl3   1  UNL1       -0.3426
     36 C           6.7852   -6.0260   26.4679 C.ar    1  UNL1        0.1251
     37 C           7.3763   -4.8816   25.6992 C.ar    1  UNL1        0.0310
     38 C           8.3516   -5.1468   24.5909 C.ar    1  UNL1       -0.0018
     39 C           8.7358   -6.5564   24.2512 C.ar    1  UNL1        0.0179
     40 C           8.1447   -7.7008   25.0199 C.ar    1  UNL1        0.1000
     41 N           7.1694   -7.4356   26.1283 N.ar    1  UNL1       -0.2296
     42 H           5.5576   -4.8358   27.7993 H       1  UNL1        0.1437
     43 H           5.4220   -6.5121   28.0809 H       1  UNL1        0.1437
@<TRIPOS>BOND
     1    35    36    1
     2    36    37   ar
     3    37    38   ar
     4    38    34    1
     5    34    28    1
     6    28    29    1
     7    29    30    1
     8    30    31    1
     9    31     1    1
    10     1     2    2
    11     1     3   am
    12     3     4    1
    13     4     5    1
    14     5     6    1
    15     6     9    1
    16     9    10   ar
    17    10    11    2
    18    10    12   ar
    19    12    20    1
    20    20    21    1
    21    21    22    1
    22    22    23    1
    23    23    24    1
    24    24    25    1
    25    25    26    1
    26    26    27    1
    27    12    13   ar
    28    13    14   ar
    29    14    15   ar
    30    15    16    1
    31    15    17   ar
    32    17    18   ar
    33    18    19   ar
    34     6     7    1
    35     7     8    1
    36    31    32    1
    37    32    33    1
    38    38    39   ar
    39    39    40   ar
    40    40    41   ar
    41    41    36   ar
    42    33    28    1
    43     8     3    1
    44    19     9   ar
    45    27    22    1
    46    19    13   ar
    47    35    42    1
    48    35    43    1
@<TRIPOS>MOLECULE
*****
 43 48 0 0 0
SMALL
GASTEIGER

@<TRIPOS>ATOM
      1 C           1.7215    1.3163   28.5726 C.2     1  UNL1        0.2252
      2 O           0.5566    2.1655   28.9869 O.2     1  UNL1       -0.2749
      3 N           1.9105    0.9552   27.1291 N.am    1  UNL1       -0.2794
      4 C           0.9347    1.4434   26.0998 C.3     1  UNL1        0.0953
      5 C           1.1238    1.0823   24.6562 C.3     1  UNL1        0.0442
      6 C           2.2888    0.2330   24.2419 C.3     1  UNL1        0.0933
      7 C           3.2645   -0.2552   25.2712 C.3     1  UNL1        0.0442
      8 C           3.0755    0.1059   26.7147 C.3     1  UNL1        0.0953
      9 N           2.4778   -0.1281   22.7983 N.ar    1  UNL1       -0.2817
     10 C           1.9302    0.6247   21.6222 C.ar    1  UNL1        0.3315
     11 O           1.0974    1.8708   21.6830 O.2     1  UNL1       -0.2463
     12 N           2.3617   -0.0873   20.3745 N.ar    1  UNL1       -0.2784
     13 C           3.1759   -1.2802   20.7795 C.ar    1  UNL1        0.0820
     14 C           3.8612   -2.3467   19.9777 C.ar    1  UNL1        0.0484
     15 C           4.6184   -3.4384   20.6740 C.ar    1  UNL1        0.1417
     16 F           5.3038   -4.5050   19.8723 F       1  UNL1       -0.2041
     17 C           4.6902   -3.4636   22.1721 C.ar    1  UNL1        0.0312
     18 C           4.0048   -2.3971   22.9739 C.ar    1  UNL1        0.0211
     19 C           3.2477   -1.3054   22.2775 C.ar    1  UNL1        0.0798
     20 C           2.0360    0.3217   18.9685 C.3     1  UNL1        0.1278
     21 C           2.9765   -0.0204   17.8510 C.3     1  UNL1        0.0972
     22 N           4.3371    0.6088   17.7967 N.3     1  UNL1       -0.2668
     23 C           5.4889   -0.1456   17.2016 C.3     1  UNL1        0.1047
     24 C           6.8495    0.4836   17.1473 C.3     1  UNL1        0.1595
     25 O           7.0582    1.8671   17.6880 O.3     1  UNL1       -0.3508
     26 C           5.9063    2.6215   18.2831 C.3     1  UNL1        0.1595
     27 C           4.5457    1.9923   18.3374 C.3     1  UNL1        0.1047
     28 N           4.6490   -0.1483   31.6604 N.3     1  UNL1       -0.2689
     29 C           4.9384    1.1041   30.8870 C.3     1  UNL1        0.0729
     30 C           3.9625    1.5923   29.8578 C.3     1  UNL1        0.0264
     31 C           2.6973    0.8281   29.6019 C.3     1  UNL1        0.0795
     32 C           2.4080   -0.4242   30.3752 C.3     1  UNL1        0.0264
     33 C           3.3839   -0.9124   31.4044 C.3     1  UNL1        0.0729
     34 C           5.6249   -0.6365   32.6896 C.3     1  UNL1        0.0993
     35 N           6.5752   -5.7102   32.0941 N.pl3   1  UNL1       -0.3426
     36 C           7.0478   -4.2870   32.0581 C.ar    1  UNL1        0.1251
     37 C           6.1001   -3.1733   32.3919 C.ar    1  UNL1        0.0310
     38 C           6.5727   -1.7501   32.3559 C.ar    1  UNL1       -0.0018
     39 C           7.9931   -1.4407   31.9861 C.ar    1  UNL1        0.0179
     40 C           8.9408   -2.5544   31.6523 C.ar    1  UNL1        0.1000
     41 N           8.4682   -3.9776   31.6884 N.ar    1  UNL1       -0.2296
     42 H           5.6430   -5.9133   32.3368 H       1  UNL1        0.1437
     43 H           7.1973   -6.4411   31.8751 H       1  UNL1        0.1437
@<TRIPOS>BOND
     1    35    36    1
     2    36    37   ar
     3    37    38   ar
     4    38    34    1
     5    34    28    1
     6    28    29    1
     7    29    30    1
     8    30    31    1
     9    31     1    1
    10     1     2    2
    11     1     3   am
    12     3     4    1
    13     4     5    1
    14     5     6    1
    15     6     9    1
    16     9    10   ar
    17    10    11    2
    18    10    12   ar
    19    12    20    1
    20    20    21    1
    21    21    22    1
    22    22    23    1
    23    23    24    1
    24    24    25    1
    25    25    26    1
    26    26    27    1
    27    12    13   ar
    28    13    14   ar
    29    14    15   ar
    30    15    16    1
    31    15    17   ar
    32    17    18   ar
    33    18    19   ar
    34     6     7    1
    35     7     8    1
    36    31    32    1
    37    32    33    1
    38    38    39   ar
    39    39    40   ar
    40    40    41   ar
    41    41    36   ar
    42    33    28    1
    43     8     3    1
    44    19     9   ar
    45    27    22    1
    46    19    13   ar
    47    35    42    1
    48    35    43    1
@<TRIPOS>MOLECULE
*****
 43 48 0 0 0
SMALL
GASTEIGER

@<TRIPOS>ATOM
      1 C           1.4831    1.2871   28.3619 C.2     1  UNL1        0.2252
      2 O           0.2568    2.0678   28.7316 O.2     1  UNL1       -0.2749
      3 N           1.7475    0.9413   26.9265 N.am    1  UNL1       -0.2794
      4 C           0.7856    1.3762   25.8608 C.3     1  UNL1        0.0953
      5 C           1.0500    1.0303   24.4254 C.3     1  UNL1        0.0442
      6 C           2.2764    0.2496   24.0556 C.3     1  UNL1        0.0933
      7 C           3.2382   -0.1852   25.1212 C.3     1  UNL1        0.0442
      8 C           2.9738    0.1606   26.5567 C.3     1  UNL1        0.0953
      9 N           2.5408   -0.0962   22.6201 N.ar    1  UNL1       -0.2817
     10 C           2.0938    0.6940   21.4261 C.ar    1  UNL1        0.3315
     11 O           1.3039    1.9688   21.4578 O.2     1  UNL1       -0.2463
     12 N           2.5754   -0.0144   20.1947 N.ar    1  UNL1       -0.2784
     13 C           3.3200   -1.2424   20.6277 C.ar    1  UNL1        0.0820
     14 C           4.0147   -2.3211   19.8508 C.ar    1  UNL1        0.0484
     15 C           4.6881   -3.4503   20.5728 C.ar    1  UNL1        0.1417
     16 F           5.3829   -4.5291   19.7958 F       1  UNL1       -0.2041
     17 C           4.6668   -3.5009   22.0717 C.ar    1  UNL1        0.0312
     18 C           3.9720   -2.4222   22.8487 C.ar    1  UNL1        0.0211
     19 C           3.2986   -1.2930   22.1267 C.ar    1  UNL1        0.0798
     20 C           2.3516    0.4276   18.7789 C.3     1  UNL1        0.1278
     21 C           1.0607    1.0879   18.3944 C.3     1  UNL1        0.0972
     22 N           1.0042    2.5759   18.2134 N.3     1  UNL1       -0.2668
     23 C           2.2465    3.3995   18.3814 C.3     1  UNL1        0.1047
     24 C           2.1899    4.8874   18.2003 C.3     1  UNL1        0.1595
     25 O           0.8912    5.5517   17.8512 O.3     1  UNL1       -0.3508
     26 C          -0.3511    4.7281   17.6832 C.3     1  UNL1        0.1595
     27 C          -0.2946    3.2401   17.8643 C.3     1  UNL1        0.1047
     28 N           4.3688   -0.0175   31.5589 N.3     1  UNL1       -0.2689
     29 C           4.5761    1.2874   30.8485 C.3     1  UNL1        0.0729
     30 C           3.6142    1.7222   29.7829 C.3     1  UNL1        0.0264
     31 C           2.4450    0.8522   29.4276 C.3     1  UNL1        0.0795
     32 C           2.2377   -0.4525   30.1379 C.3     1  UNL1        0.0264
     33 C           3.1996   -0.8874   31.2036 C.3     1  UNL1        0.0729
     34 C           5.3307   -0.4523   32.6246 C.3     1  UNL1        0.0993
     35 N           6.5069   -5.5007   32.2630 N.pl3   1  UNL1       -0.3426
     36 C           6.9148   -4.0610   32.1580 C.ar    1  UNL1        0.1251
     37 C           5.9188   -2.9764   32.4438 C.ar    1  UNL1        0.0310
     38 C           6.3267   -1.5368   32.3388 C.ar    1  UNL1       -0.0018
     39 C           7.7307   -1.1817   31.9479 C.ar    1  UNL1        0.0179
     40 C           8.7267   -2.2663   31.6621 C.ar    1  UNL1        0.1000
     41 N           8.3187   -3.7059   31.7671 N.ar    1  UNL1       -0.2296
     42 H           5.5854   -5.7338   32.5195 H       1  UNL1        0.1437
     43 H           7.1606   -6.2125   32.0754 H       1  UNL1        0.1437
@<TRIPOS>BOND
     1    35    36    1
     2    36    37   ar
     3    37    38   ar
     4    38    34    1
     5    34    28    1
     6    28    29    1
     7    29    30    1
     8    30    31    1
     9    31     1    1
    10     1     2    2
    11     1     3   am
    12     3     4    1
    13     4     5    1
    14     5     6    1
    15     6     9    1
    16     9    10   ar
    17    10    11    2
    18    10    12   ar
    19    12    20    1
    20    20    21    1
    21    21    22    1
    22    22    23    1
    23    23    24    1
    24    24    25    1
    25    25    26    1
    26    26    27    1
    27    12    13   ar
    28    13    14   ar
    29    14    15   ar
    30    15    16    1
    31    15    17   ar
    32    17    18   ar
    33    18    19   ar
    34     6     7    1
    35     7     8    1
    36    31    32    1
    37    32    33    1
    38    38    39   ar
    39    39    40   ar
    40    40    41   ar
    41    41    36   ar
    42    33    28    1
    43     8     3    1
    44    19     9   ar
    45    27    22    1
    46    19    13   ar
    47    35    42    1
    48    35    43    1
@<TRIPOS>MOLECULE
*****
 43 48 0 0 0
SMALL
GASTEIGER

@<TRIPOS>ATOM
      1 C          -0.1545    2.4372   23.0039 C.2     1  UNL1        0.2252
      2 O          -1.4200    3.2087   22.7736 O.2     1  UNL1       -0.2749
      3 N           0.2793    2.1079   24.4015 N.am    1  UNL1       -0.2794
      4 C          -0.5525    2.5501   25.5688 C.3     1  UNL1        0.0953
      5 C          -0.1187    2.2209   26.9665 C.3     1  UNL1        0.0442
      6 C           1.1469    1.4493   27.1969 C.3     1  UNL1        0.0933
      7 C           1.9786    1.0071   26.0296 C.3     1  UNL1        0.0442
      8 C           1.5449    1.3364   24.6319 C.3     1  UNL1        0.0953
      9 N           1.5807    1.1200   28.5945 N.ar    1  UNL1       -0.2817
     10 C           2.3205   -0.1133   29.0206 C.ar    1  UNL1        0.3315
     11 O           2.7565   -1.2339   28.1238 O.2     1  UNL1       -0.2463
     12 N           2.5478   -0.0292   30.5009 N.ar    1  UNL1       -0.2784
     13 C           1.9484    1.2560   30.9897 C.ar    1  UNL1        0.0820
     14 C           1.8697    1.8713   32.3554 C.ar    1  UNL1        0.0484
     15 C           1.1932    3.1969   32.5429 C.ar    1  UNL1        0.1417
     16 F           1.1145    3.8122   33.9086 F       1  UNL1       -0.2041
     17 C           0.5955    3.9072   31.3646 C.ar    1  UNL1        0.0312
     18 C           0.6742    3.2919   29.9989 C.ar    1  UNL1        0.0211
     19 C           1.3507    1.9663   29.8115 C.ar    1  UNL1        0.0798
     20 C           3.2510   -1.0510   31.3443 C.3     1  UNL1        0.1278
     21 C           4.7334   -0.9583   31.5546 C.3     1  UNL1        0.0972
     22 N           5.6227   -2.0912   31.1352 N.3     1  UNL1       -0.2668
     23 C           6.0336   -3.1315   32.1347 C.3     1  UNL1        0.1047
     24 C           6.9228   -4.2644   31.7154 C.3     1  UNL1        0.1595
     25 O           7.4011   -4.3569   30.2967 O.3     1  UNL1       -0.3508
     26 C           6.9902   -3.3167   29.2973 C.3     1  UNL1        0.1595
     27 C           6.1010   -2.1838   29.7166 C.3     1  UNL1        0.1047
     28 N           2.3410    1.1105   19.5021 N.3     1  UNL1       -0.2689
     29 C           1.2170    0.2465   19.9923 C.3     1  UNL1        0.0729
     30 C           0.3852    0.6887   21.1596 C.3     1  UNL1        0.0264
     31 C           0.6774    1.9950   21.8366 C.3     1  UNL1        0.0795
     32 C           1.8012    2.8590   21.3464 C.3     1  UNL1        0.0264
     33 C           2.6330    2.4168   20.1791 C.3     1  UNL1        0.0729
     34 C           3.1728    0.6683   18.3348 C.3     1  UNL1        0.0993
     35 N           4.5258   -4.3482   18.3973 N.pl3   1  UNL1       -0.3426
     36 C           4.8930   -2.9017   18.5482 C.ar    1  UNL1        0.1251
     37 C           3.8493   -1.8399   18.3660 C.ar    1  UNL1        0.0310
     38 C           4.2166   -0.3934   18.5170 C.ar    1  UNL1       -0.0018
     39 C           5.6276   -0.0087   18.8502 C.ar    1  UNL1        0.0179
     40 C           6.6713   -1.0705   19.0324 C.ar    1  UNL1        0.1000
     41 N           6.3040   -2.5170   18.8814 N.ar    1  UNL1       -0.2296
     42 H           3.5997   -4.6008   18.1786 H       1  UNL1        0.1437
     43 H           5.2109   -5.0451   18.5168 H       1  UNL1        0.1437
@<TRIPOS>BOND
     1    35    36    1
     2    36    37   ar
     3    37    38   ar
     4    38    34    1
     5    34    28    1
     6    28    29    1
     7    29    30    1
     8    30    31    1
     9    31     1    1
    10     1     2    2
    11     1     3   am
    12     3     4    1
    13     4     5    1
    14     5     6    1
    15     6     9    1
    16     9    10   ar
    17    10    11    2
    18    10    12   ar
    19    12    20    1
    20    20    21    1
    21    21    22    1
    22    22    23    1
    23    23    24    1
    24    24    25    1
    25    25    26    1
    26    26    27    1
    27    12    13   ar
    28    13    14   ar
    29    14    15   ar
    30    15    16    1
    31    15    17   ar
    32    17    18   ar
    33    18    19   ar
    34     6     7    1
    35     7     8    1
    36    31    32    1
    37    32    33    1
    38    38    39   ar
    39    39    40   ar
    40    40    41   ar
    41    41    36   ar
    42    33    28    1
    43     8     3    1
    44    19     9   ar
    45    27    22    1
    46    19    13   ar
    47    35    42    1
    48    35    43    1
@<TRIPOS>MOLECULE
*****
 43 48 0 0 0
SMALL
GASTEIGER

@<TRIPOS>ATOM
      1 C          -0.1103    2.2932   22.7738 C.2     1  UNL1        0.2252
      2 O          -1.3658    3.0783   22.5350 O.2     1  UNL1       -0.2749
      3 N           0.3177    1.9711   24.1749 N.am    1  UNL1       -0.2794
      4 C          -0.5098    2.4342   25.3371 C.3     1  UNL1        0.0953
      5 C          -0.0818    2.1122   26.7382 C.3     1  UNL1        0.0442
      6 C           1.1738    1.3269   26.9771 C.3     1  UNL1        0.0933
      7 C           2.0012    0.8639   25.8150 C.3     1  UNL1        0.0442
      8 C           1.5732    1.1859   24.4139 C.3     1  UNL1        0.0953
      9 N           1.6018    1.0049   28.3783 N.ar    1  UNL1       -0.2817
     10 C           2.3491   -0.2212   28.8120 C.ar    1  UNL1        0.3315
     11 O           2.7997   -1.3405   27.9209 O.2     1  UNL1       -0.2463
     12 N           2.5668   -0.1314   30.2934 N.ar    1  UNL1       -0.2784
     13 C           1.9539    1.1501   30.7752 C.ar    1  UNL1        0.0820
     14 C           1.8619    1.7683   32.1388 C.ar    1  UNL1        0.0484
     15 C           1.1735    3.0887   32.3187 C.ar    1  UNL1        0.1417
     16 F           1.0814    3.7070   33.6823 F       1  UNL1       -0.2041
     17 C           0.5770    3.7910   31.1350 C.ar    1  UNL1        0.0312
     18 C           0.6691    3.1728   29.7714 C.ar    1  UNL1        0.0211
     19 C           1.3575    1.8524   29.5915 C.ar    1  UNL1        0.0798
     20 C           3.2732   -1.1452   31.1438 C.3     1  UNL1        0.1278
     21 C           4.7501   -1.0283   31.3793 C.3     1  UNL1        0.0972
     22 N           5.2725   -0.7984   32.7664 N.3     1  UNL1       -0.2668
     23 C           4.3401   -0.8643   33.9395 C.3     1  UNL1        0.1047
     24 C           4.8625   -0.6344   35.3266 C.3     1  UNL1        0.1595
     25 O           6.3174   -0.3387   35.5407 O.3     1  UNL1       -0.3508
     26 C           7.2499   -0.2727   34.3676 C.3     1  UNL1        0.1595
     27 C           6.7274   -0.5026   32.9805 C.3     1  UNL1        0.1047
     28 N           2.3723    0.9038   19.2873 N.3     1  UNL1       -0.2689
     29 C           2.7711    2.1327   20.0496 C.3     1  UNL1        0.0729
     30 C           1.9436    2.5958   21.2117 C.3     1  UNL1        0.0264
     31 C           0.7173    1.8301   21.6116 C.3     1  UNL1        0.0795
     32 C           0.3185    0.6013   20.8494 C.3     1  UNL1        0.0264
     33 C           1.1461    0.1381   19.6872 C.3     1  UNL1        0.0729
     34 C           3.1999    0.4407   18.1251 C.3     1  UNL1        0.0993
     35 N           4.6789   -4.5281   18.4771 N.pl3   1  UNL1       -0.3426
     36 C           5.0165   -3.0668   18.5077 C.ar    1  UNL1        0.1251
     37 C           3.9394   -2.0436   18.3011 C.ar    1  UNL1        0.0310
     38 C           4.2771   -0.5824   18.3318 C.ar    1  UNL1       -0.0018
     39 C           5.6919   -0.1445   18.5691 C.ar    1  UNL1        0.0179
     40 C           6.7691   -1.1677   18.7758 C.ar    1  UNL1        0.1000
     41 N           6.4314   -2.6289   18.7451 N.ar    1  UNL1       -0.2296
     42 H           3.7503   -4.8155   18.3213 H       1  UNL1        0.1437
     43 H           5.3859   -5.1996   18.6127 H       1  UNL1        0.1437
@<TRIPOS>BOND
     1    35    36    1
     2    36    37   ar
     3    37    38   ar
     4    38    34    1
     5    34    28    1
     6    28    29    1
     7    29    30    1
     8    30    31    1
     9    31     1    1
    10     1     2    2
    11     1     3   am
    12     3     4    1
    13     4     5    1
    14     5     6    1
    15     6     9    1
    16     9    10   ar
    17    10    11    2
    18    10    12   ar
    19    12    20    1
    20    20    21    1
    21    21    22    1
    22    22    23    1
    23    23    24    1
    24    24    25    1
    25    25    26    1
    26    26    27    1
    27    12    13   ar
    28    13    14   ar
    29    14    15   ar
    30    15    16    1
    31    15    17   ar
    32    17    18   ar
    33    18    19   ar
    34     6     7    1
    35     7     8    1
    36    31    32    1
    37    32    33    1
    38    38    39   ar
    39    39    40   ar
    40    40    41   ar
    41    41    36   ar
    42    33    28    1
    43     8     3    1
    44    19     9   ar
    45    27    22    1
    46    19    13   ar
    47    35    42    1
    48    35    43    1
@<TRIPOS>MOLECULE
*****
 43 48 0 0 0
SMALL
GASTEIGER

@<TRIPOS>ATOM
      1 C           1.2324    1.3141   28.3662 C.2     1  UNL1        0.2252
      2 O          -0.0166    1.9841   28.8574 O.2     1  UNL1       -0.2749
      3 N           1.4153    1.0503   26.9010 N.am    1  UNL1       -0.2794
      4 C           0.3493    1.4563   25.9270 C.3     1  UNL1        0.0953
      5 C           0.5322    1.1925   24.4617 C.3     1  UNL1        0.0442
      6 C           1.7812    0.5225   23.9705 C.3     1  UNL1        0.0933
      7 C           2.8472    0.1165   24.9445 C.3     1  UNL1        0.0442
      8 C           2.6642    0.3803   26.4097 C.3     1  UNL1        0.0953
      9 N           1.9641    0.2586   22.5052 N.ar    1  UNL1       -0.2817
     10 C           2.7879   -0.8410   21.9035 C.ar    1  UNL1        0.3315
     11 O           3.5735   -1.8699   22.6614 O.2     1  UNL1       -0.2463
     12 N           2.6883   -0.7311   20.4109 N.ar    1  UNL1       -0.2784
     13 C           1.8029    0.4364   20.0901 C.ar    1  UNL1        0.0820
     14 C           1.3464    1.0216   18.7866 C.ar    1  UNL1        0.0484
     15 C           0.4423    2.2185   18.7775 C.ar    1  UNL1        0.1417
     16 F          -0.0142    2.8037   17.4740 F       1  UNL1       -0.2041
     17 C          -0.0052    2.8302   20.0719 C.ar    1  UNL1        0.0312
     18 C           0.4513    2.2450   21.3754 C.ar    1  UNL1        0.0211
     19 C           1.3553    1.0482   21.3845 C.ar    1  UNL1        0.0798
     20 C           3.3566   -1.6308   19.4140 C.3     1  UNL1        0.1278
     21 C           4.7891   -1.3971   19.0349 C.3     1  UNL1        0.0972
     22 N           5.8894   -1.8291   19.9583 N.3     1  UNL1       -0.2668
     23 C           6.4599   -0.8595   20.9504 C.3     1  UNL1        0.1047
     24 C           7.5602   -1.2915   21.8738 C.3     1  UNL1        0.1595
     25 O           8.0899   -2.6931   21.8051 O.3     1  UNL1       -0.3508
     26 C           7.5195   -3.6628   20.8130 C.3     1  UNL1        0.1595
     27 C           6.4191   -3.2308   19.8896 C.3     1  UNL1        0.1047
     28 N           4.4305    0.0959   31.2882 N.3     1  UNL1       -0.2689
     29 C           4.5288    1.4114   30.5740 C.3     1  UNL1        0.0729
     30 C           3.4628    1.8174   29.6000 C.3     1  UNL1        0.0264
     31 C           2.2984    0.9081   29.3402 C.3     1  UNL1        0.0795
     32 C           2.2001   -0.4073   30.0544 C.3     1  UNL1        0.0264
     33 C           3.2661   -0.8134   31.0284 C.3     1  UNL1        0.0729
     34 C           5.4965   -0.3102   32.2622 C.3     1  UNL1        0.0993
     35 N           6.4280   -5.4202   32.4024 N.pl3   1  UNL1       -0.3426
     36 C           6.8534   -4.0320   32.0255 C.ar    1  UNL1        0.1251
     37 C           5.9622   -2.8651   32.3323 C.ar    1  UNL1        0.0310
     38 C           6.3877   -1.4770   31.9554 C.ar    1  UNL1       -0.0018
     39 C           7.7044   -1.2557   31.2718 C.ar    1  UNL1        0.0179
     40 C           8.5956   -2.4226   30.9650 C.ar    1  UNL1        0.1000
     41 N           8.1701   -3.8107   31.3419 N.ar    1  UNL1       -0.2296
     42 H           5.5638   -5.5655   32.8510 H       1  UNL1        0.1437
     43 H           7.0130   -6.1860   32.2010 H       1  UNL1        0.1437
@<TRIPOS>BOND
     1    35    36    1
     2    36    37   ar
     3    37    38   ar
     4    38    34    1
     5    34    28    1
     6    28    29    1
     7    29    30    1
     8    30    31    1
     9    31     1    1
    10     1     2    2
    11     1     3   am
    12     3     4    1
    13     4     5    1
    14     5     6    1
    15     6     9    1
    16     9    10   ar
    17    10    11    2
    18    10    12   ar
    19    12    20    1
    20    20    21    1
    21    21    22    1
    22    22    23    1
    23    23    24    1
    24    24    25    1
    25    25    26    1
    26    26    27    1
    27    12    13   ar
    28    13    14   ar
    29    14    15   ar
    30    15    16    1
    31    15    17   ar
    32    17    18   ar
    33    18    19   ar
    34     6     7    1
    35     7     8    1
    36    31    32    1
    37    32    33    1
    38    38    39   ar
    39    39    40   ar
    40    40    41   ar
    41    41    36   ar
    42    33    28    1
    43     8     3    1
    44    19     9   ar
    45    27    22    1
    46    19    13   ar
    47    35    42    1
    48    35    43    1
