@<TRIPOS>MOLECULE
*****
 29 32 0 0 0
SMALL
GASTEIGER

@<TRIPOS>ATOM
      1 N           0.0270    3.4763   18.5944 N.pl3   1  UNL1       -0.2740
      2 C           0.9704    4.6409   18.5331 C.3     1  UNL1        0.1257
      3 C           2.4521    4.4073   18.5460 C.3     1  UNL1        0.1640
      4 O           2.9903    3.0092   18.6203 O.3     1  UNL1       -0.3482
      5 C           2.0469    1.8446   18.6816 C.3     1  UNL1        0.1594
      6 C           0.5652    2.0782   18.6686 C.3     1  UNL1        0.1277
      7 C          -1.3775    4.0572   16.0079 C.3     1  UNL1        0.1363
      8 N          -2.1569    4.0003   17.2882 N.ar    1  UNL1       -0.2667
      9 C          -1.4547    3.7099   18.5814 C.ar    1  UNL1        0.2036
     10 N          -2.2341    3.6530   19.8618 N.ar    1  UNL1       -0.2133
     11 C          -3.7157    3.8865   19.8489 C.ar    1  UNL1        0.1065
     12 C          -4.4179    4.1769   18.5556 C.ar    1  UNL1        0.0815
     13 C          -3.6385    4.2339   17.2753 C.ar    1  UNL1        0.2646
     14 O          -4.3408    4.5243   15.9820 O.2     1  UNL1       -0.2668
     15 C          -4.4951    3.8296   21.1292 C.ar    1  UNL1        0.1024
     16 C          -5.8932    4.3705   21.1808 C.ar    1  UNL1        0.0414
     17 C          -6.6727    4.3136   22.4612 C.ar    1  UNL1        0.1023
     18 N          -6.0540    3.7158   23.6899 N.ar    1  UNL1       -0.2224
     19 C          -4.6559    3.1749   23.6383 C.ar    1  UNL1        0.1989
     20 N          -3.8765    3.2318   22.3579 N.ar    1  UNL1       -0.2224
     21 C           2.5851    0.4465   18.7559 C.ar    1  UNL1        0.0337
     22 C           3.4298   -0.0923   17.6395 C.ar    1  UNL1        0.0010
     23 C           3.9680   -1.4904   17.7137 C.ar    1  UNL1        0.0102
     24 C           3.6616   -2.3498   18.9044 C.ar    1  UNL1        0.0707
     25 C           2.8169   -1.8111   20.0207 C.ar    1  UNL1        0.0397
     26 C           2.2786   -0.4129   19.9464 C.ar    1  UNL1        0.1391
     27 F           1.4339    0.1258   21.0628 F       1  UNL1       -0.2044
     28 C           4.1998   -3.7480   18.9786 C.1     1  UNL1        0.1005
     29 N           4.7380   -5.1461   19.0529 N.1     1  UNL1       -0.1908
@<TRIPOS>BOND
     1     7     8    1
     2     8     9   ar
     3     9     1    1
     4     1     2    1
     5     2     3    1
     6     3     4    1
     7     4     5    1
     8     5    21    1
     9    21    22   ar
    10    22    23   ar
    11    23    24   ar
    12    24    28    1
    13    28    29    3
    14    24    25   ar
    15    25    26   ar
    16    26    27    1
    17     5     6    1
    18     9    10   ar
    19    10    11   ar
    20    11    15    1
    21    15    16   ar
    22    16    17   ar
    23    17    18   ar
    24    18    19   ar
    25    19    20   ar
    26    11    12   ar
    27    12    13   ar
    28    13    14    2
    29    13     8   ar
    30     6     1    1
    31    20    15   ar
    32    26    21   ar
@<TRIPOS>MOLECULE
*****
 29 32 0 0 0
SMALL
GASTEIGER

@<TRIPOS>ATOM
      1 N           6.8127   -1.8311   22.4272 N.pl3   1  UNL1       -0.2740
      2 C           7.4483   -0.6573   23.1115 C.3     1  UNL1        0.1257
      3 C           8.1128   -0.8358   24.4444 C.3     1  UNL1        0.1640
      4 O           8.1418   -2.1880   25.0929 O.3     1  UNL1       -0.3482
      5 C           7.5062   -3.3618   24.4085 C.3     1  UNL1        0.1594
      6 C           6.8417   -3.1833   23.0757 C.3     1  UNL1        0.1277
      7 C           8.2200   -2.6932   19.9219 C.3     1  UNL1        0.1363
      8 N           6.8518   -2.0836   19.8417 N.ar    1  UNL1       -0.2667
      9 C           6.1481   -1.6526   21.0943 C.ar    1  UNL1        0.2036
     10 N           4.7799   -1.0431   21.0141 N.ar    1  UNL1       -0.2133
     11 C           4.1153   -0.8646   19.6813 C.ar    1  UNL1        0.1065
     12 C           4.8189   -1.2956   18.4287 C.ar    1  UNL1        0.0815
     13 C           6.1872   -1.9052   18.5089 C.ar    1  UNL1        0.2646
     14 O           6.8908   -2.3362   17.2562 O.2     1  UNL1       -0.2668
     15 C           2.7471   -0.2551   19.6010 C.ar    1  UNL1        0.1024
     16 C           1.7377   -0.5339   20.6750 C.ar    1  UNL1        0.0414
     17 C           0.3694    0.0756   20.5948 C.ar    1  UNL1        0.1023
     18 N           0.0106    0.9639   19.4406 N.ar    1  UNL1       -0.2224
     19 C           1.0200    1.2428   18.3667 C.ar    1  UNL1        0.1989
     20 N           2.3882    0.6333   18.4469 N.ar    1  UNL1       -0.2224
     21 C           7.5352   -4.7141   25.0570 C.ar    1  UNL1        0.0337
     22 C           8.1333   -5.8819   24.3299 C.ar    1  UNL1        0.0010
     23 C           8.1623   -7.2342   24.9784 C.ar    1  UNL1        0.0102
     24 C           7.5932   -7.4186   26.3540 C.ar    1  UNL1        0.0707
     25 C           6.9951   -6.2508   27.0810 C.ar    1  UNL1        0.0397
     26 C           6.9662   -4.8986   26.4325 C.ar    1  UNL1        0.1391
     27 F           6.3681   -3.7307   27.1596 F       1  UNL1       -0.2044
     28 C           7.6222   -8.7709   27.0025 C.1     1  UNL1        0.1005
     29 N           7.6511  -10.1231   27.6511 N.1     1  UNL1       -0.1908
@<TRIPOS>BOND
     1     7     8    1
     2     8     9   ar
     3     9     1    1
     4     1     2    1
     5     2     3    1
     6     3     4    1
     7     4     5    1
     8     5    21    1
     9    21    22   ar
    10    22    23   ar
    11    23    24   ar
    12    24    28    1
    13    28    29    3
    14    24    25   ar
    15    25    26   ar
    16    26    27    1
    17     5     6    1
    18     9    10   ar
    19    10    11   ar
    20    11    15    1
    21    15    16   ar
    22    16    17   ar
    23    17    18   ar
    24    18    19   ar
    25    19    20   ar
    26    11    12   ar
    27    12    13   ar
    28    13    14    2
    29    13     8   ar
    30     6     1    1
    31    20    15   ar
    32    26    21   ar
@<TRIPOS>MOLECULE
*****
 29 32 0 0 0
SMALL
GASTEIGER

@<TRIPOS>ATOM
      1 N           0.9318    2.8476   20.9223 N.pl3   1  UNL1       -0.2740
      2 C           1.9725    3.9109   21.1131 C.3     1  UNL1        0.1257
      3 C           3.4279    3.5637   21.0060 C.3     1  UNL1        0.1640
      4 O           3.8425    2.1533   20.7081 O.3     1  UNL1       -0.3482
      5 C           2.8017    1.0900   20.5173 C.3     1  UNL1        0.1594
      6 C           1.3464    1.4372   20.6244 C.3     1  UNL1        0.1277
      7 C          -0.6759    3.3552   18.4408 C.3     1  UNL1        0.1363
      8 N          -1.3274    3.4486   19.7887 N.ar    1  UNL1       -0.2667
      9 C          -0.5236    3.1948   21.0295 C.ar    1  UNL1        0.2036
     10 N          -1.1751    3.2881   22.3773 N.ar    1  UNL1       -0.2133
     11 C          -2.6304    3.6353   22.4845 C.ar    1  UNL1        0.1065
     12 C          -3.4342    3.8891   21.2438 C.ar    1  UNL1        0.0815
     13 C          -2.7827    3.7957   19.8959 C.ar    1  UNL1        0.2646
     14 O          -3.5865    4.0495   18.6551 O.2     1  UNL1       -0.2668
     15 C          -3.2819    3.7286   23.8324 C.ar    1  UNL1        0.1024
     16 C          -2.4587    3.5686   25.0760 C.ar    1  UNL1        0.0414
     17 C          -3.1102    3.6620   26.4239 C.ar    1  UNL1        0.1023
     18 N          -4.5849    3.9153   26.5282 N.ar    1  UNL1       -0.2224
     19 C          -5.4081    4.0753   25.2846 C.ar    1  UNL1        0.1989
     20 N          -4.7566    3.9820   23.9367 N.ar    1  UNL1       -0.2224
     21 C           3.2164   -0.3204   20.2194 C.ar    1  UNL1        0.0337
     22 C           3.4710   -1.2806   21.3434 C.ar    1  UNL1        0.0010
     23 C           3.8856   -2.6911   21.0455 C.ar    1  UNL1        0.0102
     24 C           4.0456   -3.1413   19.6236 C.ar    1  UNL1        0.0707
     25 C           3.7909   -2.1812   18.4997 C.ar    1  UNL1        0.0397
     26 C           3.3763   -0.7707   18.7976 C.ar    1  UNL1        0.1391
     27 F           3.1217    0.1894   17.6736 F       1  UNL1       -0.2044
     28 C           4.4602   -4.5518   19.3257 C.1     1  UNL1        0.1005
     29 N           4.8748   -5.9622   19.0278 N.1     1  UNL1       -0.1908
@<TRIPOS>BOND
     1     7     8    1
     2     8     9   ar
     3     9     1    1
     4     1     2    1
     5     2     3    1
     6     3     4    1
     7     4     5    1
     8     5    21    1
     9    21    22   ar
    10    22    23   ar
    11    23    24   ar
    12    24    28    1
    13    28    29    3
    14    24    25   ar
    15    25    26   ar
    16    26    27    1
    17     5     6    1
    18     9    10   ar
    19    10    11   ar
    20    11    15    1
    21    15    16   ar
    22    16    17   ar
    23    17    18   ar
    24    18    19   ar
    25    19    20   ar
    26    11    12   ar
    27    12    13   ar
    28    13    14    2
    29    13     8   ar
    30     6     1    1
    31    20    15   ar
    32    26    21   ar
@<TRIPOS>MOLECULE
*****
 29 32 0 0 0
SMALL
GASTEIGER

@<TRIPOS>ATOM
      1 N           7.4683   -4.4004   24.2176 N.pl3   1  UNL1       -0.2740
      2 C           8.7010   -4.3223   23.3666 C.3     1  UNL1        0.1257
      3 C           8.6756   -3.5546   22.0781 C.3     1  UNL1        0.1640
      4 O           7.4173   -2.8650   21.6407 O.3     1  UNL1       -0.3482
      5 C           6.1845   -2.9432   22.4918 C.3     1  UNL1        0.1594
      6 C           6.2100   -3.7108   23.7801 C.3     1  UNL1        0.1277
      7 C           8.1269   -7.3273   24.2070 C.3     1  UNL1        0.1363
      8 N           7.8230   -6.6315   25.5007 N.ar    1  UNL1       -0.2667
      9 C           7.4937   -5.1682   25.5060 C.ar    1  UNL1        0.2036
     10 N           7.1898   -4.4724   26.7997 N.ar    1  UNL1       -0.2133
     11 C           7.2152   -5.2401   28.0881 C.ar    1  UNL1        0.1065
     12 C           7.5445   -6.7034   28.0828 C.ar    1  UNL1        0.0815
     13 C           7.8484   -7.3992   26.7891 C.ar    1  UNL1        0.2646
     14 O           8.1777   -8.8626   26.7839 O.2     1  UNL1       -0.2668
     15 C           6.9113   -4.5444   29.3818 C.ar    1  UNL1        0.1024
     16 C           7.0448   -5.2834   30.6802 C.ar    1  UNL1        0.0414
     17 C           6.7409   -4.5877   31.9739 C.ar    1  UNL1        0.1023
     18 N           6.3035   -3.1529   31.9692 N.ar    1  UNL1       -0.2224
     19 C           6.1700   -2.4139   30.6707 C.ar    1  UNL1        0.1989
     20 N           6.4739   -3.1096   29.3770 N.ar    1  UNL1       -0.2224
     21 C           4.9263   -2.2536   22.0544 C.ar    1  UNL1        0.0337
     22 C           4.1855   -1.3670   23.0111 C.ar    1  UNL1        0.0010
     23 C           2.9273   -0.6774   22.5737 C.ar    1  UNL1        0.0102
     24 C           2.4099   -0.8744   21.1795 C.ar    1  UNL1        0.0707
     25 C           3.1507   -1.7609   20.2229 C.ar    1  UNL1        0.0397
     26 C           4.4089   -2.4505   20.6603 C.ar    1  UNL1        0.1391
     27 F           5.1497   -3.3371   19.7036 F       1  UNL1       -0.2044
     28 C           1.1517   -0.1848   20.7421 C.1     1  UNL1        0.1005
     29 N          -0.1066    0.5048   20.3047 N.1     1  UNL1       -0.1908
@<TRIPOS>BOND
     1     7     8    1
     2     8     9   ar
     3     9     1    1
     4     1     2    1
     5     2     3    1
     6     3     4    1
     7     4     5    1
     8     5    21    1
     9    21    22   ar
    10    22    23   ar
    11    23    24   ar
    12    24    28    1
    13    28    29    3
    14    24    25   ar
    15    25    26   ar
    16    26    27    1
    17     5     6    1
    18     9    10   ar
    19    10    11   ar
    20    11    15    1
    21    15    16   ar
    22    16    17   ar
    23    17    18   ar
    24    18    19   ar
    25    19    20   ar
    26    11    12   ar
    27    12    13   ar
    28    13    14    2
    29    13     8   ar
    30     6     1    1
    31    20    15   ar
    32    26    21   ar
@<TRIPOS>MOLECULE
*****
 29 32 0 0 0
SMALL
GASTEIGER

@<TRIPOS>ATOM
      1 N          -6.6361  -17.4961   22.8203 N.pl3   1  UNL1       -0.2740
      2 C          -6.1123  -16.3073   23.5700 C.3     1  UNL1        0.1257
      3 C          -7.0418  -15.4792   24.4069 C.3     1  UNL1        0.1640
      4 O          -8.4952  -15.8400   24.4939 O.3     1  UNL1       -0.3482
      5 C          -9.0190  -17.0289   23.7441 C.3     1  UNL1        0.1594
      6 C          -8.0895  -17.8569   22.9073 C.3     1  UNL1        0.1277
      7 C          -7.5587  -20.1253   21.7083 C.3     1  UNL1        0.1363
      8 N          -6.1679  -19.6387   21.4274 N.ar    1  UNL1       -0.2667
      9 C          -5.7066  -18.3242   21.9834 C.ar    1  UNL1        0.2036
     10 N          -4.3157  -17.8377   21.7025 N.ar    1  UNL1       -0.2133
     11 C          -3.3862  -18.6657   20.8657 C.ar    1  UNL1        0.1065
     12 C          -3.8475  -19.9802   20.3097 C.ar    1  UNL1        0.0815
     13 C          -5.2383  -20.4667   20.5906 C.ar    1  UNL1        0.2646
     14 O          -5.6996  -21.7814   20.0346 O.2     1  UNL1       -0.2668
     15 C          -1.9954  -18.1791   20.5848 C.ar    1  UNL1        0.1024
     16 C          -1.6450  -16.7383   20.8106 C.ar    1  UNL1        0.0414
     17 C          -0.2541  -16.2517   20.5297 C.ar    1  UNL1        0.1023
     18 N           0.7863  -17.2061   20.0231 N.ar    1  UNL1       -0.2224
     19 C           0.4358  -18.6470   19.7973 C.ar    1  UNL1        0.1989
     20 N          -0.9550  -19.1335   20.0782 N.ar    1  UNL1       -0.2224
     21 C         -10.4724  -17.3897   23.8311 C.ar    1  UNL1        0.0337
     22 C         -11.4848  -16.6218   23.0340 C.ar    1  UNL1        0.0010
     23 C         -12.9382  -16.9827   23.1211 C.ar    1  UNL1        0.0102
     24 C         -13.3791  -18.1114   24.0052 C.ar    1  UNL1        0.0707
     25 C         -12.3666  -18.8792   24.8023 C.ar    1  UNL1        0.0397
     26 C         -10.9133  -18.5184   24.7152 C.ar    1  UNL1        0.1391
     27 F          -9.9008  -19.2863   25.5123 F       1  UNL1       -0.2044
     28 C         -14.8324  -18.4722   24.0922 C.1     1  UNL1        0.1005
     29 N         -16.2858  -18.8331   24.1793 N.1     1  UNL1       -0.1908
@<TRIPOS>BOND
     1     7     8    1
     2     8     9   ar
     3     9     1    1
     4     1     2    1
     5     2     3    1
     6     3     4    1
     7     4     5    1
     8     5    21    1
     9    21    22   ar
    10    22    23   ar
    11    23    24   ar
    12    24    28    1
    13    28    29    3
    14    24    25   ar
    15    25    26   ar
    16    26    27    1
    17     5     6    1
    18     9    10   ar
    19    10    11   ar
    20    11    15    1
    21    15    16   ar
    22    16    17   ar
    23    17    18   ar
    24    18    19   ar
    25    19    20   ar
    26    11    12   ar
    27    12    13   ar
    28    13    14    2
    29    13     8   ar
    30     6     1    1
    31    20    15   ar
    32    26    21   ar
@<TRIPOS>MOLECULE
*****
 29 32 0 0 0
SMALL
GASTEIGER

@<TRIPOS>ATOM
      1 N           2.9939    0.6997   26.0788 N.pl3   1  UNL1       -0.2740
      2 C           3.1906    2.1210   25.6415 C.3     1  UNL1        0.1257
      3 C           3.5989    2.4217   24.2298 C.3     1  UNL1        0.1640
      4 O           3.8105    1.3011   23.2554 O.3     1  UNL1       -0.3482
      5 C           3.6137   -0.1203   23.6928 C.3     1  UNL1        0.1594
      6 C           3.2054   -0.4209   25.1044 C.3     1  UNL1        0.1277
      7 C           0.1745    1.2128   26.9666 C.3     1  UNL1        0.1363
      8 N           1.1759    0.6556   27.9344 N.ar    1  UNL1       -0.2667
      9 C           2.5856    0.3990   27.4906 C.ar    1  UNL1        0.2036
     10 N           3.5870   -0.1582   28.4584 N.ar    1  UNL1       -0.2133
     11 C           3.1788   -0.4589   29.8701 C.ar    1  UNL1        0.1065
     12 C           1.7691   -0.2024   30.3139 C.ar    1  UNL1        0.0815
     13 C           0.7677    0.3549   29.3461 C.ar    1  UNL1        0.2646
     14 O          -0.6420    0.6114   29.7900 O.2     1  UNL1       -0.2668
     15 C           4.1802   -1.0161   30.8379 C.ar    1  UNL1        0.1024
     16 C           5.6381   -1.0268   30.4856 C.ar    1  UNL1        0.0414
     17 C           6.6396   -1.5840   31.4534 C.ar    1  UNL1        0.1023
     18 N           6.1830   -2.1305   32.7736 N.ar    1  UNL1       -0.2224
     19 C           4.7250   -2.1198   33.1259 C.ar    1  UNL1        0.1989
     20 N           3.7236   -1.5626   32.1581 N.ar    1  UNL1       -0.2224
     21 C           3.8253   -1.2409   22.7184 C.ar    1  UNL1        0.0337
     22 C           3.3390   -1.1081   21.3056 C.ar    1  UNL1        0.0010
     23 C           3.5506   -2.2288   20.3312 C.ar    1  UNL1        0.0102
     24 C           4.2484   -3.4821   20.7696 C.ar    1  UNL1        0.0707
     25 C           4.7346   -3.6148   22.1824 C.ar    1  UNL1        0.0397
     26 C           4.5231   -2.4942   23.1567 C.ar    1  UNL1        0.1391
     27 F           5.0093   -2.6270   24.5696 F       1  UNL1       -0.2044
     28 C           4.4599   -4.6028   19.7952 C.1     1  UNL1        0.1005
     29 N           4.6715   -5.7234   18.8208 N.1     1  UNL1       -0.1908
@<TRIPOS>BOND
     1     7     8    1
     2     8     9   ar
     3     9     1    1
     4     1     2    1
     5     2     3    1
     6     3     4    1
     7     4     5    1
     8     5    21    1
     9    21    22   ar
    10    22    23   ar
    11    23    24   ar
    12    24    28    1
    13    28    29    3
    14    24    25   ar
    15    25    26   ar
    16    26    27    1
    17     5     6    1
    18     9    10   ar
    19    10    11   ar
    20    11    15    1
    21    15    16   ar
    22    16    17   ar
    23    17    18   ar
    24    18    19   ar
    25    19    20   ar
    26    11    12   ar
    27    12    13   ar
    28    13    14    2
    29    13     8   ar
    30     6     1    1
    31    20    15   ar
    32    26    21   ar
@<TRIPOS>MOLECULE
*****
 29 32 0 0 0
SMALL
GASTEIGER

@<TRIPOS>ATOM
      1 N           0.8104    2.8884   21.5944 N.pl3   1  UNL1       -0.2740
      2 C           1.7944    4.0175   21.5116 C.3     1  UNL1        0.1257
      3 C           3.2067    3.7516   21.0817 C.3     1  UNL1        0.1640
      4 O           3.6349    2.3565   20.7347 O.3     1  UNL1       -0.3482
      5 C           2.6508    1.2274   20.8175 C.3     1  UNL1        0.1594
      6 C           1.2386    1.4934   21.2474 C.3     1  UNL1        0.1277
      7 C           0.1425    3.0858   24.5125 C.3     1  UNL1        0.1363
      8 N          -0.9359    3.2530   23.4833 N.ar    1  UNL1       -0.2667
      9 C          -0.6019    3.1544   22.0243 C.ar    1  UNL1        0.2036
     10 N          -1.6803    3.3217   20.9951 N.ar    1  UNL1       -0.2133
     11 C          -3.0925    3.5876   21.4249 C.ar    1  UNL1        0.1065
     12 C          -3.4264    3.6863   22.8839 C.ar    1  UNL1        0.0815
     13 C          -2.3481    3.5190   23.9131 C.ar    1  UNL1        0.2646
     14 O          -2.6821    3.6177   25.3722 O.2     1  UNL1       -0.2668
     15 C          -4.1709    3.7549   20.3958 C.ar    1  UNL1        0.1024
     16 C          -5.5870    3.9982   20.8260 C.ar    1  UNL1        0.0414
     17 C          -6.6654    4.1655   19.7968 C.ar    1  UNL1        0.1023
     18 N          -6.3275    4.0895   18.3374 N.ar    1  UNL1       -0.2224
     19 C          -4.9113    3.8462   17.9071 C.ar    1  UNL1        0.1989
     20 N          -3.8330    3.6789   18.9363 N.ar    1  UNL1       -0.2224
     21 C           3.0790   -0.1677   20.4705 C.ar    1  UNL1        0.0337
     22 C           3.4005   -1.1466   21.5606 C.ar    1  UNL1        0.0010
     23 C           3.8287   -2.5417   21.2136 C.ar    1  UNL1        0.0102
     24 C           3.9355   -2.9578   19.7764 C.ar    1  UNL1        0.0707
     25 C           3.6140   -1.9788   18.6863 C.ar    1  UNL1        0.0397
     26 C           3.1858   -0.5838   19.0333 C.ar    1  UNL1        0.1391
     27 F           2.8643    0.3952   17.9432 F       1  UNL1       -0.2044
     28 C           4.3637   -4.3528   19.4293 C.1     1  UNL1        0.1005
     29 N           4.7919   -5.7479   19.0823 N.1     1  UNL1       -0.1908
@<TRIPOS>BOND
     1     7     8    1
     2     8     9   ar
     3     9     1    1
     4     1     2    1
     5     2     3    1
     6     3     4    1
     7     4     5    1
     8     5    21    1
     9    21    22   ar
    10    22    23   ar
    11    23    24   ar
    12    24    28    1
    13    28    29    3
    14    24    25   ar
    15    25    26   ar
    16    26    27    1
    17     5     6    1
    18     9    10   ar
    19    10    11   ar
    20    11    15    1
    21    15    16   ar
    22    16    17   ar
    23    17    18   ar
    24    18    19   ar
    25    19    20   ar
    26    11    12   ar
    27    12    13   ar
    28    13    14    2
    29    13     8   ar
    30     6     1    1
    31    20    15   ar
    32    26    21   ar
@<TRIPOS>MOLECULE
*****
 29 32 0 0 0
SMALL
GASTEIGER

@<TRIPOS>ATOM
      1 N           6.8561   -2.3042   23.0012 N.pl3   1  UNL1       -0.2740
      2 C           8.1392   -1.5871   22.7021 C.3     1  UNL1        0.1257
      3 C           9.2290   -1.5388   23.7317 C.3     1  UNL1        0.1640
      4 O           9.0356   -2.2075   25.0604 O.3     1  UNL1       -0.3482
      5 C           7.7524   -2.9245   25.3595 C.3     1  UNL1        0.1594
      6 C           6.6627   -2.9729   24.3299 C.3     1  UNL1        0.1277
      7 C           7.0310   -4.2469   20.7219 C.3     1  UNL1        0.1363
      8 N           5.8537   -3.3239   20.8319 N.ar    1  UNL1       -0.2667
      9 C           5.7663   -2.3525   21.9716 C.ar    1  UNL1        0.2036
     10 N           4.5890   -1.4295   22.0816 N.ar    1  UNL1       -0.2133
     11 C           3.4993   -1.4778   21.0521 C.ar    1  UNL1        0.1065
     12 C           3.5867   -2.4491   19.9124 C.ar    1  UNL1        0.0815
     13 C           4.7640   -3.3722   19.8024 C.ar    1  UNL1        0.2646
     14 O           4.8514   -4.3435   18.6627 O.2     1  UNL1       -0.2668
     15 C           2.3220   -0.5547   21.1621 C.ar    1  UNL1        0.1024
     16 C           1.3773   -0.4030   20.0069 C.ar    1  UNL1        0.0414
     17 C           0.2001    0.5200   20.1170 C.ar    1  UNL1        0.1023
     18 N          -0.0324    1.2914   21.3823 N.ar    1  UNL1       -0.2224
     19 C           0.9122    1.1397   22.5374 C.ar    1  UNL1        0.1989
     20 N           2.0895    0.2166   22.4274 N.ar    1  UNL1       -0.2224
     21 C           7.5590   -3.5933   26.6882 C.ar    1  UNL1        0.0337
     22 C           7.5057   -2.7704   27.9413 C.ar    1  UNL1        0.0010
     23 C           7.3123   -3.4391   29.2700 C.ar    1  UNL1        0.0102
     24 C           7.1723   -4.9307   29.3456 C.ar    1  UNL1        0.0707
     25 C           7.2256   -5.7535   28.0926 C.ar    1  UNL1        0.0397
     26 C           7.4190   -5.0848   26.7639 C.ar    1  UNL1        0.1391
     27 F           7.4723   -5.9076   25.5108 F       1  UNL1       -0.2044
     28 C           6.9789   -5.5994   30.6743 C.1     1  UNL1        0.1005
     29 N           6.7855   -6.2681   32.0030 N.1     1  UNL1       -0.1908
@<TRIPOS>BOND
     1     7     8    1
     2     8     9   ar
     3     9     1    1
     4     1     2    1
     5     2     3    1
     6     3     4    1
     7     4     5    1
     8     5    21    1
     9    21    22   ar
    10    22    23   ar
    11    23    24   ar
    12    24    28    1
    13    28    29    3
    14    24    25   ar
    15    25    26   ar
    16    26    27    1
    17     5     6    1
    18     9    10   ar
    19    10    11   ar
    20    11    15    1
    21    15    16   ar
    22    16    17   ar
    23    17    18   ar
    24    18    19   ar
    25    19    20   ar
    26    11    12   ar
    27    12    13   ar
    28    13    14    2
    29    13     8   ar
    30     6     1    1
    31    20    15   ar
    32    26    21   ar
@<TRIPOS>MOLECULE
*****
 29 32 0 0 0
SMALL
GASTEIGER

@<TRIPOS>ATOM
      1 N           8.2607   -9.3504   27.7667 N.pl3   1  UNL1       -0.2740
      2 C           9.5359  -10.1387   27.8149 C.3     1  UNL1        0.1257
      3 C           9.4896  -11.6342   27.9223 C.3     1  UNL1        0.1640
      4 O           8.1681  -12.3413   27.9815 O.3     1  UNL1       -0.3482
      5 C           6.8928  -11.5529   27.9333 C.3     1  UNL1        0.1594
      6 C           6.9392  -10.0575   27.8259 C.3     1  UNL1        0.1277
      7 C           8.6607   -8.0502   25.0928 C.3     1  UNL1        0.1363
      8 N           8.5070   -7.2049   26.3223 N.ar    1  UNL1       -0.2667
      9 C           8.3070   -7.8549   27.6593 C.ar    1  UNL1        0.2036
     10 N           8.1533   -7.0096   28.8888 N.ar    1  UNL1       -0.2133
     11 C           8.1996   -5.5142   28.7814 C.ar    1  UNL1        0.1065
     12 C           8.3996   -4.8641   27.4445 C.ar    1  UNL1        0.0815
     13 C           8.5533   -5.7095   26.2150 C.ar    1  UNL1        0.2646
     14 O           8.7533   -5.0593   24.8780 O.2     1  UNL1       -0.2668
     15 C           8.0459   -4.6688   30.0109 C.ar    1  UNL1        0.1024
     16 C           9.2530   -4.0512   30.6522 C.ar    1  UNL1        0.0414
     17 C           9.0993   -3.2058   31.8817 C.ar    1  UNL1        0.1023
     18 N           7.7384   -2.9781   32.4700 N.ar    1  UNL1       -0.2224
     19 C           6.5313   -3.5958   31.8288 C.ar    1  UNL1        0.1989
     20 N           6.6850   -4.4412   30.5993 N.ar    1  UNL1       -0.2224
     21 C           5.5713  -12.2600   27.9925 C.ar    1  UNL1        0.0337
     22 C           4.5711  -11.8933   29.0486 C.ar    1  UNL1        0.0010
     23 C           3.2495  -12.6004   29.1078 C.ar    1  UNL1        0.0102
     24 C           2.9282  -13.6742   28.1109 C.ar    1  UNL1        0.0707
     25 C           3.9284  -14.0410   27.0550 C.ar    1  UNL1        0.0397
     26 C           5.2499  -13.3339   26.9958 C.ar    1  UNL1        0.1391
     27 F           6.2501  -13.7006   25.9397 F       1  UNL1       -0.2044
     28 C           1.6066  -14.3814   28.1701 C.1     1  UNL1        0.1005
     29 N           0.2851  -15.0885   28.2293 N.1     1  UNL1       -0.1908
@<TRIPOS>BOND
     1     7     8    1
     2     8     9   ar
     3     9     1    1
     4     1     2    1
     5     2     3    1
     6     3     4    1
     7     4     5    1
     8     5    21    1
     9    21    22   ar
    10    22    23   ar
    11    23    24   ar
    12    24    28    1
    13    28    29    3
    14    24    25   ar
    15    25    26   ar
    16    26    27    1
    17     5     6    1
    18     9    10   ar
    19    10    11   ar
    20    11    15    1
    21    15    16   ar
    22    16    17   ar
    23    17    18   ar
    24    18    19   ar
    25    19    20   ar
    26    11    12   ar
    27    12    13   ar
    28    13    14    2
    29    13     8   ar
    30     6     1    1
    31    20    15   ar
    32    26    21   ar
