@<TRIPOS>MOLECULE
*****
 26 29 0 0 0
SMALL
GASTEIGER

@<TRIPOS>ATOM
      1 N         -12.8937  -17.1806   23.1696 N.pl3   1  UNL1       -0.3380
      2 C         -11.6440  -17.6499   22.4855 C.2     1  UNL1        0.1482
      3 N         -10.3090  -17.4416   23.1368 N.2     1  UNL1       -0.2484
      4 C          -9.0593  -17.9109   22.4526 C.3     1  UNL1        0.1352
      5 C          -7.7242  -17.7026   23.1040 C.3     1  UNL1        0.1692
      6 O          -6.4746  -18.1719   22.4198 O.3     1  UNL1       -0.3446
      7 C          -6.5600  -18.8495   21.0842 C.3     1  UNL1        0.1910
      8 C          -7.8950  -19.0578   20.4329 C.3     1  UNL1        0.0423
      9 C          -9.1447  -18.5885   21.1171 C.3     1  UNL1        0.0412
     10 C         -10.4797  -18.7967   20.4658 C.3     1  UNL1        0.0672
     11 S         -11.7294  -18.3274   21.1500 S.3     1  UNL1       -0.0807
     12 H         -12.8376  -16.7358   24.0462 H       1  UNL1        0.1442
     13 H         -13.7699  -17.3172   22.7421 H       1  UNL1        0.1442
     14 C          -8.9739  -17.2333   23.7882 C.ar    1  UNL1        0.0278
     15 C          -8.6336  -15.7747   23.8687 C.ar    1  UNL1        0.0021
     16 C          -8.5481  -15.0971   25.2043 C.ar    1  UNL1        0.0295
     17 C          -8.8031  -15.8782   26.4592 C.ar    1  UNL1        0.1424
     18 F          -8.7176  -15.2007   27.7948 F       1  UNL1       -0.2041
     19 C          -9.1434  -17.3369   26.3786 C.ar    1  UNL1        0.0590
     20 C          -9.2288  -18.0144   25.0431 C.ar    1  UNL1        0.1402
     21 F          -9.5692  -19.4731   24.9625 F       1  UNL1       -0.2044
     22 C          -5.3103  -19.3188   20.4001 C.ar    1  UNL1        0.2331
     23 N          -4.2341  -18.4421   19.8314 N.ar    1  UNL1       -0.2083
     24 C          -3.1761  -19.3287   19.2443 C.ar    1  UNL1        0.1424
     25 C          -3.5984  -20.7533   19.4501 C.ar    1  UNL1        0.2019
     26 O          -4.9175  -20.7471   20.1643 O.2     1  UNL1       -0.4327
@<TRIPOS>BOND
     1     1     2    1
     2     2     3    2
     3     3     4    1
     4     4    14    1
     5    14    15   ar
     6    15    16   ar
     7    16    17   ar
     8    17    18    1
     9    17    19   ar
    10    19    20   ar
    11    20    21    1
    12     4     5    1
    13     5     6    1
    14     6     7    1
    15     7    22    1
    16    22    23   ar
    17    23    24   ar
    18    24    25   ar
    19    25    26   ar
    20     7     8    1
    21     9     8    1
    22     9    10    1
    23    10    11    1
    24    11     2    1
    25     9     4    1
    26    20    14   ar
    27    26    22   ar
    28     1    12    1
    29     1    13    1
@<TRIPOS>MOLECULE
*****
 26 29 0 0 0
SMALL
GASTEIGER

@<TRIPOS>ATOM
      1 N          -9.9474   -3.2320   18.9955 N.pl3   1  UNL1       -0.3380
      2 C         -10.8875   -4.3958   18.8871 C.2     1  UNL1        0.1482
      3 N         -12.3683   -4.1617   18.8367 N.2     1  UNL1       -0.2484
      4 C         -13.3084   -5.3255   18.7282 C.3     1  UNL1        0.1352
      5 C         -14.7892   -5.0913   18.6779 C.3     1  UNL1        0.1692
      6 O         -15.7293   -6.2551   18.5694 O.3     1  UNL1       -0.3446
      7 C         -15.1886   -7.6531   18.5113 C.3     1  UNL1        0.1910
      8 C         -13.7078   -7.8872   18.5616 C.3     1  UNL1        0.0423
      9 C         -12.7677   -6.7234   18.6701 C.3     1  UNL1        0.0412
     10 C         -11.2870   -6.9576   18.7204 C.3     1  UNL1        0.0672
     11 S         -10.3469   -5.7938   18.8289 S.3     1  UNL1       -0.0807
     12 H         -10.3023   -2.3145   19.0337 H       1  UNL1        0.1442
     13 H          -8.9756   -3.3857   19.0286 H       1  UNL1        0.1442
     14 C         -13.8491   -3.9275   18.7864 C.ar    1  UNL1        0.0278
     15 C         -14.0354   -3.1422   17.5220 C.ar    1  UNL1        0.0021
     16 C         -14.5761   -1.7442   17.5802 C.ar    1  UNL1        0.0295
     17 C         -14.9304   -1.1316   18.9027 C.ar    1  UNL1        0.1424
     18 F         -15.4711    0.2664   18.9609 F       1  UNL1       -0.2041
     19 C         -14.7441   -1.9169   20.1671 C.ar    1  UNL1        0.0590
     20 C         -14.2034   -3.3148   20.1089 C.ar    1  UNL1        0.1402
     21 F         -14.0170   -4.1001   21.3733 F       1  UNL1       -0.2044
     22 C         -16.1287   -8.8169   18.4028 C.ar    1  UNL1        0.2331
     23 N         -17.5024   -8.7875   17.8009 N.ar    1  UNL1       -0.2083
     24 C         -18.0828  -10.1669   17.9033 C.ar    1  UNL1        0.1424
     25 C         -17.0679  -11.0488   18.5683 C.ar    1  UNL1        0.2019
     26 O         -15.8602  -10.2144   18.8770 O.2     1  UNL1       -0.4327
@<TRIPOS>BOND
     1     1     2    1
     2     2     3    2
     3     3     4    1
     4     4    14    1
     5    14    15   ar
     6    15    16   ar
     7    16    17   ar
     8    17    18    1
     9    17    19   ar
    10    19    20   ar
    11    20    21    1
    12     4     5    1
    13     5     6    1
    14     6     7    1
    15     7    22    1
    16    22    23   ar
    17    23    24   ar
    18    24    25   ar
    19    25    26   ar
    20     7     8    1
    21     9     8    1
    22     9    10    1
    23    10    11    1
    24    11     2    1
    25     9     4    1
    26    20    14   ar
    27    26    22   ar
    28     1    12    1
    29     1    13    1
@<TRIPOS>MOLECULE
*****
 26 29 0 0 0
SMALL
GASTEIGER

@<TRIPOS>ATOM
      1 N         -12.5239  -17.8803   22.8120 N.pl3   1  UNL1       -0.3380
      2 C         -11.1854  -18.2018   22.2161 C.2     1  UNL1        0.1482
      3 N          -9.9307  -17.7487   22.9019 N.2     1  UNL1       -0.2484
      4 C          -8.5922  -18.0702   22.3059 C.3     1  UNL1        0.1352
      5 C          -7.3375  -17.6171   22.9918 C.3     1  UNL1        0.1692
      6 O          -5.9990  -17.9386   22.3958 O.3     1  UNL1       -0.3446
      7 C          -5.9153  -18.7133   21.1140 C.3     1  UNL1        0.1910
      8 C          -7.1700  -19.1664   20.4282 C.3     1  UNL1        0.0423
      9 C          -8.5085  -18.8448   21.0242 C.3     1  UNL1        0.0412
     10 C          -9.7632  -19.2979   20.3384 C.3     1  UNL1        0.0672
     11 S         -11.1017  -18.9764   20.9343 S.3     1  UNL1       -0.0807
     12 H         -12.5788  -17.3719   23.6533 H       1  UNL1        0.1442
     13 H         -13.3474  -18.1777   22.3619 H       1  UNL1        0.1442
     14 C          -8.6759  -17.2956   23.5877 C.ar    1  UNL1        0.0278
     15 C          -8.9942  -18.0024   24.8718 C.ar    1  UNL1        0.0021
     16 C          -9.0779  -17.2278   26.1536 C.ar    1  UNL1        0.0295
     17 C          -8.8433  -15.7462   26.1512 C.ar    1  UNL1        0.1424
     18 F          -8.9270  -14.9716   27.4330 F       1  UNL1       -0.2041
     19 C          -8.5250  -15.0394   24.8670 C.ar    1  UNL1        0.0590
     20 C          -8.4413  -15.8140   23.5853 C.ar    1  UNL1        0.1402
     21 F          -8.1230  -15.1071   22.3011 F       1  UNL1       -0.2044
     22 C          -4.5769  -19.0348   20.5180 C.ar    1  UNL1        0.2331
     23 N          -3.6283  -20.0924   20.9997 N.ar    1  UNL1       -0.2083
     24 C          -2.4172  -20.0663   20.1151 C.ar    1  UNL1        0.1424
     25 C          -2.6172  -18.9928   19.0868 C.ar    1  UNL1        0.2019
     26 O          -3.9519  -18.3552   19.3358 O.2     1  UNL1       -0.4327
@<TRIPOS>BOND
     1     1     2    1
     2     2     3    2
     3     3     4    1
     4     4    14    1
     5    14    15   ar
     6    15    16   ar
     7    16    17   ar
     8    17    18    1
     9    17    19   ar
    10    19    20   ar
    11    20    21    1
    12     4     5    1
    13     5     6    1
    14     6     7    1
    15     7    22    1
    16    22    23   ar
    17    23    24   ar
    18    24    25   ar
    19    25    26   ar
    20     7     8    1
    21     9     8    1
    22     9    10    1
    23    10    11    1
    24    11     2    1
    25     9     4    1
    26    20    14   ar
    27    26    22   ar
    28     1    12    1
    29     1    13    1
@<TRIPOS>MOLECULE
*****
 26 29 0 0 0
SMALL
GASTEIGER

@<TRIPOS>ATOM
      1 N           4.1087   -3.2630   18.2334 N.pl3   1  UNL1       -0.3380
      2 C           4.1454   -2.9683   19.7037 C.2     1  UNL1        0.1482
      3 N           3.4695   -1.7414   20.2398 N.2     1  UNL1       -0.2484
      4 C           3.5062   -1.4467   21.7101 C.3     1  UNL1        0.1352
      5 C           2.8302   -0.2196   22.2463 C.3     1  UNL1        0.1692
      6 O           2.8670    0.0750   23.7166 O.3     1  UNL1       -0.3446
      7 C           3.5797   -0.8574   24.6508 C.3     1  UNL1        0.1910
      8 C           4.2557   -2.0844   24.1146 C.3     1  UNL1        0.0423
      9 C           4.2190   -2.3790   22.6443 C.3     1  UNL1        0.0412
     10 C           4.8949   -3.6060   22.1082 C.3     1  UNL1        0.0672
     11 S           4.8582   -3.9007   20.6378 S.3     1  UNL1       -0.0807
     12 H           3.6409   -2.6511   17.6202 H       1  UNL1        0.1442
     13 H           4.5524   -4.0683   17.8815 H       1  UNL1        0.1442
     14 C           2.7934   -0.5143   20.7760 C.ar    1  UNL1        0.0278
     15 C           1.3130   -0.6436   20.5722 C.ar    1  UNL1        0.0021
     16 C           0.6002    0.2888   19.6380 C.ar    1  UNL1        0.0295
     17 C           1.3679    1.3505   18.9077 C.ar    1  UNL1        0.1424
     18 F           0.6552    2.2829   17.9735 F       1  UNL1       -0.2041
     19 C           2.8484    1.4798   19.1115 C.ar    1  UNL1        0.0590
     20 C           3.5611    0.5474   20.0456 C.ar    1  UNL1        0.1402
     21 F           5.0416    0.6767   20.2495 F       1  UNL1       -0.2044
     22 C           3.6165   -0.5627   26.1211 C.ar    1  UNL1        0.2331
     23 N           3.4713   -1.5674   27.2256 N.ar    1  UNL1       -0.2083
     24 C           3.5700   -0.8372   28.5322 C.ar    1  UNL1        0.1424
     25 C           3.7762    0.6186   28.2353 C.ar    1  UNL1        0.2019
     26 O           3.8050    0.7882   26.7451 O.2     1  UNL1       -0.4327
@<TRIPOS>BOND
     1     1     2    1
     2     2     3    2
     3     3     4    1
     4     4    14    1
     5    14    15   ar
     6    15    16   ar
     7    16    17   ar
     8    17    18    1
     9    17    19   ar
    10    19    20   ar
    11    20    21    1
    12     4     5    1
    13     5     6    1
    14     6     7    1
    15     7    22    1
    16    22    23   ar
    17    23    24   ar
    18    24    25   ar
    19    25    26   ar
    20     7     8    1
    21     9     8    1
    22     9    10    1
    23    10    11    1
    24    11     2    1
    25     9     4    1
    26    20    14   ar
    27    26    22   ar
    28     1    12    1
    29     1    13    1
@<TRIPOS>MOLECULE
*****
 26 29 0 0 0
SMALL
GASTEIGER

@<TRIPOS>ATOM
      1 N           5.1468    0.6850   17.5334 N.pl3   1  UNL1       -0.3380
      2 C           4.8241    0.7230   18.9978 C.2     1  UNL1        0.1482
      3 N           4.6306   -0.5564   19.7566 N.2     1  UNL1       -0.2484
      4 C           4.3079   -0.5184   21.2210 C.3     1  UNL1        0.1352
      5 C           4.1144   -1.7978   21.9797 C.3     1  UNL1        0.1692
      6 O           3.7917   -1.7599   23.4441 O.3     1  UNL1       -0.3446
      7 C           3.6624   -0.4425   24.1497 C.3     1  UNL1        0.1910
      8 C           3.8559    0.8369   23.3909 C.3     1  UNL1        0.0423
      9 C           4.1786    0.7989   21.9266 C.3     1  UNL1        0.0412
     10 C           4.3721    2.0783   21.1678 C.3     1  UNL1        0.0672
     11 S           4.6948    2.0403   19.7034 S.3     1  UNL1       -0.0807
     12 H           5.2316   -0.1796   17.0703 H       1  UNL1        0.1442
     13 H           5.2738    1.5247   17.0354 H       1  UNL1        0.1442
     14 C           4.4371   -1.8358   20.5153 C.ar    1  UNL1        0.0278
     15 C           5.7613   -2.5393   20.4769 C.ar    1  UNL1        0.0021
     16 C           5.8906   -3.8567   19.7713 C.ar    1  UNL1        0.0295
     17 C           4.6955   -4.4706   19.1042 C.ar    1  UNL1        0.1424
     18 F           4.8247   -5.7879   18.3986 F       1  UNL1       -0.2041
     19 C           3.3713   -3.7670   19.1426 C.ar    1  UNL1        0.0590
     20 C           3.2421   -2.4497   19.8482 C.ar    1  UNL1        0.1402
     21 F           1.9178   -1.7461   19.8867 F       1  UNL1       -0.2044
     22 C           3.3397   -0.4045   25.6141 C.ar    1  UNL1        0.2331
     23 N           3.8180   -1.3805   26.6480 N.ar    1  UNL1       -0.2083
     24 C           3.2559   -0.9630   27.9746 C.ar    1  UNL1        0.1424
     25 C           2.4303    0.2709   27.7606 C.ar    1  UNL1        0.2019
     26 O           2.4821    0.6160   26.3018 O.2     1  UNL1       -0.4327
@<TRIPOS>BOND
     1     1     2    1
     2     2     3    2
     3     3     4    1
     4     4    14    1
     5    14    15   ar
     6    15    16   ar
     7    16    17   ar
     8    17    18    1
     9    17    19   ar
    10    19    20   ar
    11    20    21    1
    12     4     5    1
    13     5     6    1
    14     6     7    1
    15     7    22    1
    16    22    23   ar
    17    23    24   ar
    18    24    25   ar
    19    25    26   ar
    20     7     8    1
    21     9     8    1
    22     9    10    1
    23    10    11    1
    24    11     2    1
    25     9     4    1
    26    20    14   ar
    27    26    22   ar
    28     1    12    1
    29     1    13    1
@<TRIPOS>MOLECULE
*****
 26 29 0 0 0
SMALL
GASTEIGER

@<TRIPOS>ATOM
      1 N           3.2230   -0.9308   25.5502 N.pl3   1  UNL1       -0.3380
      2 C           3.5466   -0.8382   27.0119 C.2     1  UNL1        0.1482
      3 N           2.5983   -0.1494   27.9479 N.2     1  UNL1       -0.2484
      4 C           2.9219   -0.0567   29.4096 C.3     1  UNL1        0.1352
      5 C           1.9735    0.6321   30.3456 C.3     1  UNL1        0.1692
      6 O           2.2971    0.7248   31.8073 O.3     1  UNL1       -0.3446
      7 C           3.5692    0.1285   32.3331 C.3     1  UNL1        0.1910
      8 C           4.5176   -0.5603   31.3971 C.3     1  UNL1        0.0423
      9 C           4.1939   -0.6529   29.9354 C.3     1  UNL1        0.0412
     10 C           5.1423   -1.3418   28.9994 C.3     1  UNL1        0.0672
     11 S           4.8186   -1.4344   27.5377 S.3     1  UNL1       -0.0807
     12 H           2.3881   -0.5395   25.2051 H       1  UNL1        0.1442
     13 H           3.8454   -1.3829   24.9358 H       1  UNL1        0.1442
     14 C           1.6498    0.5395   28.8838 C.ar    1  UNL1        0.0278
     15 C           0.3882   -0.2717   28.8766 C.ar    1  UNL1        0.0021
     16 C          -0.8839    0.3245   28.3508 C.ar    1  UNL1        0.0295
     17 C          -0.8943    1.7320   27.8323 C.ar    1  UNL1        0.1424
     18 F          -2.1663    2.3283   27.3066 F       1  UNL1       -0.2041
     19 C           0.3675    2.5433   27.8396 C.ar    1  UNL1        0.0590
     20 C           1.6395    1.9470   28.3654 C.ar    1  UNL1        0.1402
     21 F           2.9012    2.7583   28.3727 F       1  UNL1       -0.2044
     22 C           3.8929    0.2211   33.7948 C.ar    1  UNL1        0.2331
     23 N           4.6255   -0.8088   34.6026 N.ar    1  UNL1       -0.2083
     24 C           4.7262   -0.3065   36.0125 C.ar    1  UNL1        0.1424
     25 C           4.0557    1.0339   36.0760 C.ar    1  UNL1        0.2019
     26 O           3.5407    1.3599   34.7054 O.2     1  UNL1       -0.4327
@<TRIPOS>BOND
     1     1     2    1
     2     2     3    2
     3     3     4    1
     4     4    14    1
     5    14    15   ar
     6    15    16   ar
     7    16    17   ar
     8    17    18    1
     9    17    19   ar
    10    19    20   ar
    11    20    21    1
    12     4     5    1
    13     5     6    1
    14     6     7    1
    15     7    22    1
    16    22    23   ar
    17    23    24   ar
    18    24    25   ar
    19    25    26   ar
    20     7     8    1
    21     9     8    1
    22     9    10    1
    23    10    11    1
    24    11     2    1
    25     9     4    1
    26    20    14   ar
    27    26    22   ar
    28     1    12    1
    29     1    13    1
@<TRIPOS>MOLECULE
*****
 26 29 0 0 0
SMALL
GASTEIGER

@<TRIPOS>ATOM
      1 N           4.2902   -2.3254   17.5772 N.pl3   1  UNL1       -0.3380
      2 C           4.2239   -2.2140   19.0715 C.2     1  UNL1        0.1482
      3 N           3.5733   -1.0209   19.7066 N.2     1  UNL1       -0.2484
      4 C           3.5070   -0.9096   21.2010 C.3     1  UNL1        0.1352
      5 C           2.8564    0.2836   21.8360 C.3     1  UNL1        0.1692
      6 O           2.7900    0.3949   23.3304 O.3     1  UNL1       -0.3446
      7 C           3.3743   -0.6869   24.1897 C.3     1  UNL1        0.1910
      8 C           4.0248   -1.8799   23.5547 C.3     1  UNL1        0.0423
      9 C           4.0912   -1.9913   22.0603 C.3     1  UNL1        0.0412
     10 C           4.7417   -3.1844   21.4253 C.3     1  UNL1        0.0672
     11 S           4.8081   -3.2957   19.9309 S.3     1  UNL1       -0.0807
     12 H           3.9068   -1.6154   17.0131 H       1  UNL1        0.1442
     13 H           4.7172   -3.1084   17.1604 H       1  UNL1        0.1442
     14 C           2.9227    0.1722   20.3416 C.ar    1  UNL1        0.0278
     15 C           3.7645    1.3463   19.9381 C.ar    1  UNL1        0.0021
     16 C           3.1803    2.4281   19.0787 C.ar    1  UNL1        0.0295
     17 C           1.7542    2.3357   18.6229 C.ar    1  UNL1        0.1424
     18 F           1.1699    3.4174   17.7636 F       1  UNL1       -0.2041
     19 C           0.9123    1.1616   19.0265 C.ar    1  UNL1        0.0590
     20 C           1.4966    0.0799   19.8858 C.ar    1  UNL1        0.1402
     21 F           0.6548   -1.0943   20.2894 F       1  UNL1       -0.2044
     22 C           3.3079   -0.5755   25.6841 C.ar    1  UNL1        0.2331
     23 N           4.0168   -1.4602   26.6665 N.ar    1  UNL1       -0.2083
     24 C           3.6680   -0.9913   28.0481 C.ar    1  UNL1        0.1424
     25 C           2.7436    0.1830   27.9195 C.ar    1  UNL1        0.2019
     26 O           2.5211    0.4400   26.4585 O.2     1  UNL1       -0.4327
@<TRIPOS>BOND
     1     1     2    1
     2     2     3    2
     3     3     4    1
     4     4    14    1
     5    14    15   ar
     6    15    16   ar
     7    16    17   ar
     8    17    18    1
     9    17    19   ar
    10    19    20   ar
    11    20    21    1
    12     4     5    1
    13     5     6    1
    14     6     7    1
    15     7    22    1
    16    22    23   ar
    17    23    24   ar
    18    24    25   ar
    19    25    26   ar
    20     7     8    1
    21     9     8    1
    22     9    10    1
    23    10    11    1
    24    11     2    1
    25     9     4    1
    26    20    14   ar
    27    26    22   ar
    28     1    12    1
    29     1    13    1
@<TRIPOS>MOLECULE
*****
 26 29 0 0 0
SMALL
GASTEIGER

@<TRIPOS>ATOM
      1 N           6.6370   -0.0836   35.9115 N.pl3   1  UNL1       -0.3380
      2 C           5.5608    0.1902   34.9031 C.2     1  UNL1        0.1482
      3 N           5.5407   -0.5610   33.6049 N.2     1  UNL1       -0.2484
      4 C           4.4645   -0.2871   32.5966 C.3     1  UNL1        0.1352
      5 C           4.4444   -1.0384   31.2983 C.3     1  UNL1        0.1692
      6 O           3.3682   -0.7646   30.2900 O.3     1  UNL1       -0.3446
      7 C           2.3121    0.2605   30.5798 C.3     1  UNL1        0.1910
      8 C           2.3322    1.0117   31.8780 C.3     1  UNL1        0.0423
      9 C           3.4084    0.7379   32.8863 C.3     1  UNL1        0.0412
     10 C           3.4285    1.4890   34.1845 C.3     1  UNL1        0.0672
     11 S           4.5047    1.2152   35.1929 S.3     1  UNL1       -0.0807
     12 H           7.3301   -0.7564   35.7212 H       1  UNL1        0.1442
     13 H           6.6502    0.4094   36.7635 H       1  UNL1        0.1442
     14 C           5.5206   -1.3122   32.3067 C.ar    1  UNL1        0.0278
     15 C           6.7731   -0.9148   31.5834 C.ar    1  UNL1        0.0021
     16 C           7.8292   -1.9398   31.2936 C.ar    1  UNL1        0.0295
     17 C           7.6327   -3.3623   31.7270 C.ar    1  UNL1        0.1424
     18 F           8.6888   -4.3874   31.4372 F       1  UNL1       -0.2041
     19 C           6.3801   -3.7598   32.4503 C.ar    1  UNL1        0.0590
     20 C           5.3241   -2.7347   32.7401 C.ar    1  UNL1        0.1402
     21 F           4.0715   -3.1321   33.4634 F       1  UNL1       -0.2044
     22 C           1.2359    0.5343   29.5714 C.ar    1  UNL1        0.2331
     23 N          -0.0581   -0.2128   29.4380 N.ar    1  UNL1       -0.2083
     24 C          -0.8290    0.3945   28.3035 C.ar    1  UNL1        0.1424
     25 C          -0.0116    1.5169   27.7359 C.ar    1  UNL1        0.2019
     26 O           1.2646    1.6032   28.5195 O.2     1  UNL1       -0.4327
@<TRIPOS>BOND
     1     1     2    1
     2     2     3    2
     3     3     4    1
     4     4    14    1
     5    14    15   ar
     6    15    16   ar
     7    16    17   ar
     8    17    18    1
     9    17    19   ar
    10    19    20   ar
    11    20    21    1
    12     4     5    1
    13     5     6    1
    14     6     7    1
    15     7    22    1
    16    22    23   ar
    17    23    24   ar
    18    24    25   ar
    19    25    26   ar
    20     7     8    1
    21     9     8    1
    22     9    10    1
    23    10    11    1
    24    11     2    1
    25     9     4    1
    26    20    14   ar
    27    26    22   ar
    28     1    12    1
    29     1    13    1
@<TRIPOS>MOLECULE
*****
 26 29 0 0 0
SMALL
GASTEIGER

@<TRIPOS>ATOM
      1 N           8.3729   -1.7850   32.7245 N.pl3   1  UNL1       -0.3380
      2 C           7.1188   -1.5057   31.9506 C.2     1  UNL1        0.1482
      3 N           5.9803   -0.7797   32.6038 N.2     1  UNL1       -0.2484
      4 C           4.7261   -0.5004   31.8298 C.3     1  UNL1        0.1352
      5 C           3.5876    0.2257   32.4831 C.3     1  UNL1        0.1692
      6 O           2.3335    0.5049   31.7091 O.3     1  UNL1       -0.3446
      7 C           2.2178    0.0581   30.2818 C.3     1  UNL1        0.1910
      8 C           3.3562   -0.6679   29.6286 C.3     1  UNL1        0.0423
      9 C           4.6104   -0.9472   30.4026 C.3     1  UNL1        0.0412
     10 C           5.7489   -1.6732   29.7494 C.3     1  UNL1        0.0672
     11 S           7.0030   -1.9525   30.5234 S.3     1  UNL1       -0.0807
     12 H           8.4489   -1.4917   33.6613 H       1  UNL1        0.1442
     13 H           9.1202   -2.2615   32.2958 H       1  UNL1        0.1442
     14 C           4.8418   -0.0536   33.2570 C.ar    1  UNL1        0.0278
     15 C           5.3122    1.3354   33.5723 C.ar    1  UNL1        0.0021
     16 C           5.4279    1.7822   34.9996 C.ar    1  UNL1        0.0295
     17 C           5.0731    0.8400   36.1115 C.ar    1  UNL1        0.1424
     18 F           5.1888    1.2867   37.5387 F       1  UNL1       -0.2041
     19 C           4.6027   -0.5490   35.7962 C.ar    1  UNL1        0.0590
     20 C           4.4871   -0.9958   34.3690 C.ar    1  UNL1        0.1402
     21 F           4.0166   -2.3848   34.0536 F       1  UNL1       -0.2044
     22 C           0.9636    0.3374   29.5078 C.ar    1  UNL1        0.2331
     23 N           0.7589    1.4621   28.5366 N.ar    1  UNL1       -0.2083
     24 C          -0.6373    1.3608   27.9977 C.ar    1  UNL1        0.1424
     25 C          -1.2955    0.1735   28.6357 C.ar    1  UNL1        0.2019
     26 O          -0.3060   -0.4590   29.5690 O.2     1  UNL1       -0.4327
@<TRIPOS>BOND
     1     1     2    1
     2     2     3    2
     3     3     4    1
     4     4    14    1
     5    14    15   ar
     6    15    16   ar
     7    16    17   ar
     8    17    18    1
     9    17    19   ar
    10    19    20   ar
    11    20    21    1
    12     4     5    1
    13     5     6    1
    14     6     7    1
    15     7    22    1
    16    22    23   ar
    17    23    24   ar
    18    24    25   ar
    19    25    26   ar
    20     7     8    1
    21     9     8    1
    22     9    10    1
    23    10    11    1
    24    11     2    1
    25     9     4    1
    26    20    14   ar
    27    26    22   ar
    28     1    12    1
    29     1    13    1
