@<TRIPOS>MOLECULE
*****
 22 24 0 0 0
SMALL
GASTEIGER

@<TRIPOS>ATOM
      1 C          -8.0496  -18.3259   22.0479 C.ar    1  UNL1        0.0050
      2 S          -9.1702  -19.2461   21.6639 S.2     1  UNL1       -0.0915
      3 C         -10.4632  -18.5164   21.8776 C.ar    1  UNL1        0.0288
      4 C         -11.8918  -18.9233   21.6690 C.ar    1  UNL1        0.0065
      5 C         -12.9988  -17.9590   21.9763 C.ar    1  UNL1        0.0005
      6 C         -12.6773  -16.5877   22.4923 C.ar    1  UNL1        0.0000
      7 C         -11.2487  -16.1808   22.7010 C.ar    1  UNL1        0.0002
      8 C         -10.1417  -17.1451   22.3936 C.ar    1  UNL1        0.0025
      9 C          -8.6500  -17.0274   22.4988 C.ar    1  UNL1       -0.0144
     10 C          -7.8919  -15.8227   22.9720 C.3     1  UNL1        0.0627
     11 C          -7.5144  -14.7445   21.9997 C.3     1  UNL1        0.0110
     12 C          -7.5112  -15.6960   24.4172 C.ar    1  UNL1        0.0627
     13 C          -8.5742  -15.6974   25.4757 C.ar    1  UNL1        0.0151
     14 C          -8.1936  -15.5707   26.9211 C.ar    1  UNL1        0.0028
     15 C          -6.7500  -15.4425   27.3080 C.ar    1  UNL1        0.0207
     16 C          -5.6871  -15.4411   26.2496 C.ar    1  UNL1        0.0985
     17 N          -6.0677  -15.5678   24.8042 N.ar    1  UNL1       -0.2478
     18 C          -6.5856  -18.6477   21.9909 C.3     1  UNL1        0.0497
     19 C          -6.0203  -19.3606   20.7983 C.3     1  UNL1        0.0739
     20 C          -3.8184  -18.8373   19.5225 C.3     1  UNL1        0.0859
     21 N          -5.2811  -18.5901   19.7448 N.3     1  UNL1       -0.2960
     22 H          -5.7497  -18.7790   18.8587 H       1  UNL1        0.1233
@<TRIPOS>BOND
     1    20    21    1
     2    21    19    1
     3    19    18    1
     4    18     1    1
     5     1     2   ar
     6     2     3   ar
     7     3     4   ar
     8     4     5   ar
     9     5     6   ar
    10     6     7   ar
    11     7     8   ar
    12     8     9   ar
    13     9    10    1
    14    10    11    1
    15    10    12    1
    16    12    13   ar
    17    13    14   ar
    18    14    15   ar
    19    15    16   ar
    20    16    17   ar
    21     9     1   ar
    22    17    12   ar
    23     8     3   ar
    24    21    22    1
@<TRIPOS>MOLECULE
*****
 22 24 0 0 0
SMALL
GASTEIGER

@<TRIPOS>ATOM
      1 C          -7.2379  -17.0633   22.8272 C.ar    1  UNL1        0.0050
      2 S          -8.4758  -16.2446   22.6096 S.2     1  UNL1       -0.0915
      3 C          -9.3637  -16.9907   21.6582 C.ar    1  UNL1        0.0288
      4 C         -10.7106  -16.6700   21.0814 C.ar    1  UNL1        0.0065
      5 C         -11.3684  -17.6291   20.1341 C.ar    1  UNL1        0.0005
      6 C         -10.6792  -18.9088   19.7637 C.ar    1  UNL1        0.0000
      7 C          -9.3323  -19.2295   20.3405 C.ar    1  UNL1        0.0002
      8 C          -8.6745  -18.2704   21.2878 C.ar    1  UNL1        0.0025
      9 C          -7.3607  -18.3153   22.0103 C.ar    1  UNL1       -0.0144
     10 C          -6.3476  -19.4186   21.9299 C.3     1  UNL1        0.0627
     11 C          -6.6996  -20.7964   22.4074 C.3     1  UNL1        0.0110
     12 C          -4.9826  -19.1443   21.3721 C.ar    1  UNL1        0.0627
     13 C          -3.7732  -19.2763   22.2497 C.ar    1  UNL1        0.0151
     14 C          -2.4081  -19.0020   21.6919 C.ar    1  UNL1        0.0028
     15 C          -2.2523  -18.5955   20.2564 C.ar    1  UNL1        0.0207
     16 C          -3.4616  -18.4635   19.3788 C.ar    1  UNL1        0.0985
     17 N          -4.8267  -18.7378   19.9366 N.ar    1  UNL1       -0.2478
     18 C          -6.0804  -16.6947   23.7072 C.3     1  UNL1        0.0497
     19 C          -5.7567  -15.2513   23.9553 C.3     1  UNL1        0.0739
     20 C          -6.1702  -15.4633   26.5115 C.3     1  UNL1        0.0859
     21 N          -6.1010  -14.6210   25.2721 N.3     1  UNL1       -0.2960
     22 H          -5.4011  -13.8994   25.4452 H       1  UNL1        0.1233
@<TRIPOS>BOND
     1    20    21    1
     2    21    19    1
     3    19    18    1
     4    18     1    1
     5     1     2   ar
     6     2     3   ar
     7     3     4   ar
     8     4     5   ar
     9     5     6   ar
    10     6     7   ar
    11     7     8   ar
    12     8     9   ar
    13     9    10    1
    14    10    11    1
    15    10    12    1
    16    12    13   ar
    17    13    14   ar
    18    14    15   ar
    19    15    16   ar
    20    16    17   ar
    21     9     1   ar
    22    17    12   ar
    23     8     3   ar
    24    21    22    1
@<TRIPOS>MOLECULE
*****
 22 24 0 0 0
SMALL
GASTEIGER

@<TRIPOS>ATOM
      1 C          -7.1427  -17.4300   23.2213 C.ar    1  UNL1        0.0050
      2 S          -5.6948  -17.4052   22.8303 S.2     1  UNL1       -0.0915
      3 C          -5.4371  -18.5780   21.9313 C.ar    1  UNL1        0.0288
      4 C          -4.1956  -19.0601   21.2414 C.ar    1  UNL1        0.0065
      5 C          -4.2427  -20.2920   20.3869 C.ar    1  UNL1        0.0005
      6 C          -5.5315  -21.0417   20.2223 C.ar    1  UNL1        0.0000
      7 C          -6.7730  -20.5596   20.9122 C.ar    1  UNL1        0.0002
      8 C          -6.7258  -19.3277   21.7667 C.ar    1  UNL1        0.0025
      9 C          -7.7799  -18.6182   22.5640 C.ar    1  UNL1       -0.0144
     10 C          -9.2187  -19.0255   22.6830 C.3     1  UNL1        0.0627
     11 C          -9.5854  -20.2747   23.4281 C.3     1  UNL1        0.0110
     12 C         -10.2907  -18.1837   22.0569 C.ar    1  UNL1        0.0627
     13 C         -11.7300  -18.4192   22.4079 C.ar    1  UNL1        0.0151
     14 C         -12.8021  -17.5774   21.7819 C.ar    1  UNL1        0.0028
     15 C         -12.4350  -16.5001   20.8048 C.ar    1  UNL1        0.0207
     16 C         -10.9958  -16.2646   20.4539 C.ar    1  UNL1        0.0985
     17 N          -9.9237  -17.1064   21.0799 N.ar    1  UNL1       -0.2478
     18 C          -7.8323  -16.4404   24.1130 C.3     1  UNL1        0.0497
     19 C          -7.4699  -14.9867   24.0415 C.3     1  UNL1        0.0739
     20 C          -5.7476  -15.3047   25.9605 C.3     1  UNL1        0.0859
     21 N          -6.5114  -14.4028   25.0367 N.3     1  UNL1       -0.2960
     22 H          -5.8209  -13.8731   24.5048 H       1  UNL1        0.1233
@<TRIPOS>BOND
     1    20    21    1
     2    21    19    1
     3    19    18    1
     4    18     1    1
     5     1     2   ar
     6     2     3   ar
     7     3     4   ar
     8     4     5   ar
     9     5     6   ar
    10     6     7   ar
    11     7     8   ar
    12     8     9   ar
    13     9    10    1
    14    10    11    1
    15    10    12    1
    16    12    13   ar
    17    13    14   ar
    18    14    15   ar
    19    15    16   ar
    20    16    17   ar
    21     9     1   ar
    22    17    12   ar
    23     8     3   ar
    24    21    22    1
@<TRIPOS>MOLECULE
*****
 22 24 0 0 0
SMALL
GASTEIGER

@<TRIPOS>ATOM
      1 C          -6.3997  -17.5519   22.9025 C.ar    1  UNL1        0.0050
      2 S          -4.9062  -17.5198   23.0375 S.2     1  UNL1       -0.0915
      3 C          -4.3351  -18.5579   22.1176 C.ar    1  UNL1        0.0288
      4 C          -2.9239  -18.9767   21.8297 C.ar    1  UNL1        0.0065
      5 C          -2.6533  -20.0693   20.8382 C.ar    1  UNL1        0.0005
      6 C          -3.7940  -20.7431   20.1347 C.ar    1  UNL1        0.0000
      7 C          -5.2052  -20.3242   20.4226 C.ar    1  UNL1        0.0002
      8 C          -5.4758  -19.2316   21.4141 C.ar    1  UNL1        0.0025
      9 C          -6.7518  -18.6099   21.8992 C.ar    1  UNL1       -0.0144
     10 C          -8.1367  -18.9810   21.4583 C.3     1  UNL1        0.0627
     11 C          -8.4083  -19.2834   20.0144 C.3     1  UNL1        0.0110
     12 C          -9.2499  -19.0497   22.4612 C.ar    1  UNL1        0.0627
     13 C          -9.2202  -20.0865   23.5449 C.ar    1  UNL1        0.0151
     14 C         -10.3335  -20.1553   24.5478 C.ar    1  UNL1        0.0028
     15 C         -11.4764  -19.1872   24.4672 C.ar    1  UNL1        0.0207
     16 C         -11.5061  -18.1504   23.3836 C.ar    1  UNL1        0.0985
     17 N         -10.3929  -18.0817   22.3806 N.ar    1  UNL1       -0.2478
     18 C          -7.3707  -16.6792   23.6412 C.3     1  UNL1        0.0497
     19 C          -7.1974  -15.1893   23.6319 C.3     1  UNL1        0.0739
     20 C          -5.7787  -15.1579   25.8083 C.3     1  UNL1        0.0859
     21 N          -6.7328  -14.4806   24.8697 N.3     1  UNL1       -0.2960
     22 H          -6.2824  -13.6182   24.5636 H       1  UNL1        0.1233
@<TRIPOS>BOND
     1    20    21    1
     2    21    19    1
     3    19    18    1
     4    18     1    1
     5     1     2   ar
     6     2     3   ar
     7     3     4   ar
     8     4     5   ar
     9     5     6   ar
    10     6     7   ar
    11     7     8   ar
    12     8     9   ar
    13     9    10    1
    14    10    11    1
    15    10    12    1
    16    12    13   ar
    17    13    14   ar
    18    14    15   ar
    19    15    16   ar
    20    16    17   ar
    21     9     1   ar
    22    17    12   ar
    23     8     3   ar
    24    21    22    1
@<TRIPOS>MOLECULE
*****
 22 24 0 0 0
SMALL
GASTEIGER

@<TRIPOS>ATOM
      1 C         -10.6077  -18.3962   21.7959 C.ar    1  UNL1        0.0050
      2 S         -10.0647  -18.6191   20.4156 S.2     1  UNL1       -0.0915
      3 C          -8.7205  -19.2720   20.5460 C.ar    1  UNL1        0.0288
      4 C          -7.7214  -19.7253   19.5232 C.ar    1  UNL1        0.0065
      5 C          -6.4345  -20.3593   19.9615 C.ar    1  UNL1        0.0005
      6 C          -6.1469  -20.5400   21.4225 C.ar    1  UNL1        0.0000
      7 C          -7.1460  -20.0867   22.4453 C.ar    1  UNL1        0.0002
      8 C          -8.4328  -19.4527   22.0071 C.ar    1  UNL1        0.0025
      9 C          -9.5992  -18.9114   22.7795 C.ar    1  UNL1       -0.0144
     10 C          -9.7334  -18.8893   24.2733 C.3     1  UNL1        0.0627
     11 C         -10.3625  -20.0491   24.9871 C.3     1  UNL1        0.0110
     12 C          -9.2387  -17.7076   25.0534 C.ar    1  UNL1        0.0627
     13 C          -8.9812  -16.4039   24.3574 C.ar    1  UNL1        0.0151
     14 C          -8.4864  -15.2221   25.1375 C.ar    1  UNL1        0.0028
     15 C          -8.2492  -15.3439   26.6137 C.ar    1  UNL1        0.0207
     16 C          -8.5067  -16.6475   27.3096 C.ar    1  UNL1        0.0985
     17 N          -9.0015  -17.8293   26.5295 N.ar    1  UNL1       -0.2478
     18 C         -11.9276  -17.7685   22.1334 C.3     1  UNL1        0.0497
     19 C         -12.8854  -17.4018   21.0389 C.3     1  UNL1        0.0739
     20 C         -11.7070  -15.7209   19.4464 C.3     1  UNL1        0.0859
     21 N         -12.8152  -16.0445   20.4043 N.3     1  UNL1       -0.2960
     22 H         -13.6905  -15.9104   19.8981 H       1  UNL1        0.1233
@<TRIPOS>BOND
     1    20    21    1
     2    21    19    1
     3    19    18    1
     4    18     1    1
     5     1     2   ar
     6     2     3   ar
     7     3     4   ar
     8     4     5   ar
     9     5     6   ar
    10     6     7   ar
    11     7     8   ar
    12     8     9   ar
    13     9    10    1
    14    10    11    1
    15    10    12    1
    16    12    13   ar
    17    13    14   ar
    18    14    15   ar
    19    15    16   ar
    20    16    17   ar
    21     9     1   ar
    22    17    12   ar
    23     8     3   ar
    24    21    22    1
@<TRIPOS>MOLECULE
*****
 22 24 0 0 0
SMALL
GASTEIGER

@<TRIPOS>ATOM
      1 C          -7.3317  -17.3281   22.9669 C.ar    1  UNL1        0.0050
      2 S          -6.1635  -16.5594   23.5094 S.2     1  UNL1       -0.0915
      3 C          -6.5459  -16.0252   24.8579 C.ar    1  UNL1        0.0288
      4 C          -5.7966  -15.1961   25.8584 C.ar    1  UNL1        0.0065
      5 C          -6.4520  -14.8057   27.1500 C.ar    1  UNL1        0.0005
      6 C          -7.8566  -15.2444   27.4409 C.ar    1  UNL1        0.0000
      7 C          -8.6058  -16.0735   26.4404 C.ar    1  UNL1        0.0002
      8 C          -7.9505  -16.4639   25.1489 C.ar    1  UNL1        0.0025
      9 C          -8.4362  -17.2691   23.9802 C.ar    1  UNL1       -0.0144
     10 C          -9.7888  -17.9039   23.8480 C.3     1  UNL1        0.0627
     11 C         -10.2007  -18.9949   24.7916 C.3     1  UNL1        0.0110
     12 C         -10.7295  -17.4478   22.7725 C.ar    1  UNL1        0.0627
     13 C         -12.0495  -18.1363   22.5890 C.ar    1  UNL1        0.0151
     14 C         -12.9903  -17.6802   21.5135 C.ar    1  UNL1        0.0028
     15 C         -12.6111  -16.5355   20.6213 C.ar    1  UNL1        0.0207
     16 C         -11.2912  -15.8469   20.8048 C.ar    1  UNL1        0.0985
     17 N         -10.3504  -16.3030   21.8804 N.ar    1  UNL1       -0.2478
     18 C          -7.3860  -18.0322   21.6436 C.3     1  UNL1        0.0497
     19 C          -6.2505  -18.9143   21.2162 C.3     1  UNL1        0.0739
     20 C          -4.1547  -19.0355   19.6856 C.3     1  UNL1        0.0859
     21 N          -5.6070  -18.7122   19.8764 N.3     1  UNL1       -0.2960
     22 H          -6.1261  -19.2850   19.2110 H       1  UNL1        0.1233
@<TRIPOS>BOND
     1    20    21    1
     2    21    19    1
     3    19    18    1
     4    18     1    1
     5     1     2   ar
     6     2     3   ar
     7     3     4   ar
     8     4     5   ar
     9     5     6   ar
    10     6     7   ar
    11     7     8   ar
    12     8     9   ar
    13     9    10    1
    14    10    11    1
    15    10    12    1
    16    12    13   ar
    17    13    14   ar
    18    14    15   ar
    19    15    16   ar
    20    16    17   ar
    21     9     1   ar
    22    17    12   ar
    23     8     3   ar
    24    21    22    1
@<TRIPOS>MOLECULE
*****
 22 24 0 0 0
SMALL
GASTEIGER

@<TRIPOS>ATOM
      1 C          -7.5420  -19.0605   22.1971 C.ar    1  UNL1        0.0050
      2 S          -6.5011  -20.0609   21.7900 S.2     1  UNL1       -0.0915
      3 C          -5.1525  -19.4397   22.0033 C.ar    1  UNL1        0.0288
      4 C          -3.7625  -19.9558   21.7764 C.ar    1  UNL1        0.0065
      5 C          -2.5799  -19.0875   22.0885 C.ar    1  UNL1        0.0005
      6 C          -2.7873  -17.7031   22.6274 C.ar    1  UNL1        0.0000
      7 C          -4.1773  -17.1871   22.8543 C.ar    1  UNL1        0.0002
      8 C          -5.3599  -18.0554   22.5423 C.ar    1  UNL1        0.0025
      9 C          -6.8366  -17.8210   22.6621 C.ar    1  UNL1       -0.0144
     10 C          -7.4928  -16.5672   23.1595 C.3     1  UNL1        0.0627
     11 C          -8.2914  -15.7145   22.2185 C.3     1  UNL1        0.0110
     12 C          -7.3505  -16.1660   24.5977 C.ar    1  UNL1        0.0627
     13 C          -8.4909  -16.3720   25.5502 C.ar    1  UNL1        0.0151
     14 C          -8.3487  -15.9708   26.9886 C.ar    1  UNL1        0.0028
     15 C          -7.0660  -15.3635   27.4744 C.ar    1  UNL1        0.0207
     16 C          -5.9257  -15.1576   26.5220 C.ar    1  UNL1        0.0985
     17 N          -6.0679  -15.5588   25.0837 N.ar    1  UNL1       -0.2478
     18 C          -9.0273  -19.2639   22.1480 C.3     1  UNL1        0.0497
     19 C          -9.7262  -19.3711   20.8251 C.3     1  UNL1        0.0739
     20 C         -11.2169  -17.4456   19.9193 C.3     1  UNL1        0.0859
     21 N          -9.8953  -18.1537   19.9653 N.3     1  UNL1       -0.2960
     22 H          -9.2066  -17.4714   20.2823 H       1  UNL1        0.1233
@<TRIPOS>BOND
     1    20    21    1
     2    21    19    1
     3    19    18    1
     4    18     1    1
     5     1     2   ar
     6     2     3   ar
     7     3     4   ar
     8     4     5   ar
     9     5     6   ar
    10     6     7   ar
    11     7     8   ar
    12     8     9   ar
    13     9    10    1
    14    10    11    1
    15    10    12    1
    16    12    13   ar
    17    13    14   ar
    18    14    15   ar
    19    15    16   ar
    20    16    17   ar
    21     9     1   ar
    22    17    12   ar
    23     8     3   ar
    24    21    22    1
@<TRIPOS>MOLECULE
*****
 22 24 0 0 0
SMALL
GASTEIGER

@<TRIPOS>ATOM
      1 C          -9.8369  -17.9491   24.6185 C.ar    1  UNL1        0.0050
      2 S          -9.5920  -17.7166   26.0800 S.2     1  UNL1       -0.0915
      3 C          -8.4273  -16.7806   26.2117 C.ar    1  UNL1        0.0288
      4 C          -7.7378  -16.1986   27.4099 C.ar    1  UNL1        0.0065
      5 C          -6.5734  -15.2707   27.2281 C.ar    1  UNL1        0.0005
      6 C          -6.0985  -14.9247   25.8480 C.ar    1  UNL1        0.0000
      7 C          -6.7880  -15.5066   24.6497 C.ar    1  UNL1        0.0002
      8 C          -7.9524  -16.4346   24.8315 C.ar    1  UNL1        0.0025
      9 C          -8.8236  -17.1568   23.8469 C.ar    1  UNL1       -0.0144
     10 C          -8.7027  -17.0971   22.3530 C.3     1  UNL1        0.0627
     11 C          -9.3047  -15.9497   21.5970 C.3     1  UNL1        0.0110
     12 C          -7.9799  -18.1846   21.6150 C.ar    1  UNL1        0.0627
     13 C          -6.7156  -18.7619   22.1794 C.ar    1  UNL1        0.0151
     14 C          -5.9927  -19.8494   21.4414 C.ar    1  UNL1        0.0028
     15 C          -6.5341  -20.3597   20.1389 C.ar    1  UNL1        0.0207
     16 C          -7.7982  -19.7824   19.5744 C.ar    1  UNL1        0.0985
     17 N          -8.5211  -18.6949   20.3124 N.ar    1  UNL1       -0.2478
     18 C         -10.9073  -18.8208   24.0317 C.3     1  UNL1        0.0497
     19 C         -12.2902  -18.2766   23.8285 C.3     1  UNL1        0.0739
     20 C         -12.5331  -17.7406   21.2979 C.3     1  UNL1        0.0859
     21 N         -12.5543  -17.2912   22.7289 N.3     1  UNL1       -0.2960
     22 H         -13.4803  -16.8994   22.9007 H       1  UNL1        0.1233
@<TRIPOS>BOND
     1    20    21    1
     2    21    19    1
     3    19    18    1
     4    18     1    1
     5     1     2   ar
     6     2     3   ar
     7     3     4   ar
     8     4     5   ar
     9     5     6   ar
    10     6     7   ar
    11     7     8   ar
    12     8     9   ar
    13     9    10    1
    14    10    11    1
    15    10    12    1
    16    12    13   ar
    17    13    14   ar
    18    14    15   ar
    19    15    16   ar
    20    16    17   ar
    21     9     1   ar
    22    17    12   ar
    23     8     3   ar
    24    21    22    1
@<TRIPOS>MOLECULE
*****
 22 24 0 0 0
SMALL
GASTEIGER

@<TRIPOS>ATOM
      1 C          -9.3593  -17.4831   24.9293 C.ar    1  UNL1        0.0050
      2 S         -10.7756  -17.9696   24.8434 S.2     1  UNL1       -0.0915
      3 C         -11.2297  -17.8261   23.4210 C.ar    1  UNL1        0.0288
      4 C         -12.5305  -18.1448   22.7457 C.ar    1  UNL1        0.0065
      5 C         -12.6957  -17.8883   21.2771 C.ar    1  UNL1        0.0005
      6 C         -11.5601  -17.3130   20.4838 C.ar    1  UNL1        0.0000
      7 C         -10.2592  -16.9942   21.1591 C.ar    1  UNL1        0.0002
      8 C         -10.0940  -17.2507   22.6277 C.ar    1  UNL1        0.0025
      9 C          -8.9381  -17.0388   23.5599 C.ar    1  UNL1       -0.0144
     10 C          -7.5965  -16.4805   23.1879 C.3     1  UNL1        0.0627
     11 C          -7.4008  -14.9960   23.0971 C.3     1  UNL1        0.0110
     12 C          -6.4505  -17.4066   22.9068 C.ar    1  UNL1        0.0627
     13 C          -6.7015  -18.7344   22.2556 C.ar    1  UNL1        0.0151
     14 C          -5.5555  -19.6605   21.9745 C.ar    1  UNL1        0.0028
     15 C          -4.1585  -19.2588   22.3446 C.ar    1  UNL1        0.0207
     16 C          -3.9075  -17.9311   22.9958 C.ar    1  UNL1        0.0985
     17 N          -5.0534  -17.0049   23.2769 N.ar    1  UNL1       -0.2478
     18 C          -8.5129  -17.4472   26.1671 C.3     1  UNL1        0.0497
     19 C          -8.4419  -16.1958   26.9911 C.3     1  UNL1        0.0739
     20 C          -5.9885  -15.5085   26.4827 C.3     1  UNL1        0.0859
     21 N          -7.4308  -15.1377   26.6624 N.3     1  UNL1       -0.2960
     22 H          -7.7335  -14.7016   25.7914 H       1  UNL1        0.1233
@<TRIPOS>BOND
     1    20    21    1
     2    21    19    1
     3    19    18    1
     4    18     1    1
     5     1     2   ar
     6     2     3   ar
     7     3     4   ar
     8     4     5   ar
     9     5     6   ar
    10     6     7   ar
    11     7     8   ar
    12     8     9   ar
    13     9    10    1
    14    10    11    1
    15    10    12    1
    16    12    13   ar
    17    13    14   ar
    18    14    15   ar
    19    15    16   ar
    20    16    17   ar
    21     9     1   ar
    22    17    12   ar
    23     8     3   ar
    24    21    22    1
