@<TRIPOS>MOLECULE
*****
 27 30 0 0 0
SMALL
GASTEIGER

@<TRIPOS>ATOM
      1 O          -8.4896  -14.9977   24.5214 O.2     1  UNL1       -0.2203
      2 C          -7.8583  -16.0376   23.6439 C.ar    1  UNL1        0.4472
      3 O          -6.3899  -16.3226   23.5311 O.2     1  UNL1       -0.2950
      4 N          -6.2085  -17.4362   22.5426 N.ar    1  UNL1       -0.0545
      5 C          -7.5647  -17.8393   22.0445 C.ar    1  UNL1        0.2069
      6 N          -8.5843  -16.9749   22.7252 N.ar    1  UNL1       -0.2242
      7 C         -10.0422  -17.1530   22.4204 C.ar    1  UNL1        0.0768
      8 C         -11.0618  -16.2887   23.1010 C.ar    1  UNL1        0.0182
      9 C         -12.5196  -16.4668   22.7963 C.ar    1  UNL1        0.0015
     10 C         -12.9579  -17.5093   21.8108 C.ar    1  UNL1        0.0006
     11 C         -11.9383  -18.3737   21.1302 C.ar    1  UNL1        0.0077
     12 C         -10.4805  -18.1956   21.4350 C.ar    1  UNL1        0.0443
     13 S          -9.4609  -19.0600   20.7543 S.3     1  UNL1       -0.0753
     14 C          -8.0030  -18.8818   21.0591 C.3     1  UNL1        0.2085
     15 C          -6.5183  -19.0910   21.0165 C.ar    1  UNL1        0.0190
     16 C          -5.8111  -19.6896   22.1962 C.ar    1  UNL1       -0.0002
     17 C          -4.3264  -19.8987   22.1536 C.ar    1  UNL1        0.0065
     18 C          -3.5489  -19.5093   20.9314 C.ar    1  UNL1        0.0345
     19 BR         -2.0640  -19.7185   20.8889 Br      1  UNL1       -0.0490
     20 C          -4.2560  -18.9107   19.7518 C.ar    1  UNL1        0.0065
     21 C          -5.7407  -18.7016   19.7943 C.ar    1  UNL1       -0.0002
     22 O          -7.9257  -19.9970   20.0589 O.3     1  UNL1       -0.3293
     23 C          -8.9244  -20.0737   18.9423 C.3     1  UNL1        0.2470
     24 C          -8.8391  -21.1813   17.9345 C.3     1  UNL1        0.4249
     25 F          -8.7538  -22.2890   16.9266 F       1  UNL1       -0.1674
     26 F         -10.0097  -20.6011   17.1976 F       1  UNL1       -0.1674
     27 F          -7.6685  -21.7615   18.6713 F       1  UNL1       -0.1674
@<TRIPOS>BOND
     1     1     2    2
     2     2     3   ar
     3     3     4   ar
     4     4     5   ar
     5     5     6   ar
     6     6     7    1
     7     7     8   ar
     8     8     9   ar
     9     9    10   ar
    10    10    11   ar
    11    11    12   ar
    12    12    13    1
    13    13    14    1
    14    14    22    1
    15    22    23    1
    16    23    24    1
    17    24    25    1
    18    24    26    1
    19    24    27    1
    20    14    15    1
    21    15    16   ar
    22    16    17   ar
    23    17    18   ar
    24    18    19    1
    25    18    20   ar
    26    20    21   ar
    27     6     2   ar
    28    12     7   ar
    29    21    15   ar
    30    14     5    1
@<TRIPOS>MOLECULE
*****
 27 30 0 0 0
SMALL
GASTEIGER

@<TRIPOS>ATOM
      1 O         -16.3524  -11.1964   18.6083 O.2     1  UNL1       -0.2203
      2 C         -15.6626   -9.8688   18.5009 C.ar    1  UNL1        0.4472
      3 O         -14.2273   -9.6489   18.1246 O.2     1  UNL1       -0.2950
      4 N         -13.9645   -8.1722   18.1421 N.ar    1  UNL1       -0.0545
      5 C         -15.2373   -7.4795   18.5293 C.ar    1  UNL1        0.2069
      6 N         -16.2868   -8.5280   18.7511 N.ar    1  UNL1       -0.2242
      7 C         -17.6753   -8.1265   19.1521 C.ar    1  UNL1        0.0768
      8 C         -18.7247   -9.1750   19.3739 C.ar    1  UNL1        0.0182
      9 C         -20.1132   -8.7734   19.7749 C.ar    1  UNL1        0.0015
     10 C         -20.4522   -7.3233   19.9542 C.ar    1  UNL1        0.0006
     11 C         -19.4028   -6.2748   19.7325 C.ar    1  UNL1        0.0077
     12 C         -18.0143   -6.6763   19.3315 C.ar    1  UNL1        0.0443
     13 S         -16.9648   -5.6278   19.1097 S.3     1  UNL1       -0.0753
     14 C         -15.5764   -6.0293   18.7087 C.3     1  UNL1        0.2085
     15 C         -14.1314   -5.9133   18.3234 C.ar    1  UNL1        0.0190
     16 C         -13.0612   -6.1297   19.3521 C.ar    1  UNL1       -0.0002
     17 C         -11.6162   -6.0137   18.9668 C.ar    1  UNL1        0.0065
     18 C         -11.2413   -5.6813   17.5530 C.ar    1  UNL1        0.0345
     19 BR         -9.7962   -5.5652   17.1678 Br      1  UNL1       -0.0490
     20 C         -12.3113   -5.4648   16.5244 C.ar    1  UNL1        0.0065
     21 C         -13.7564   -5.5809   16.9096 C.ar    1  UNL1       -0.0002
     22 O         -15.4136   -4.5389   18.7542 O.3     1  UNL1       -0.3293
     23 C         -15.6493   -3.7975   20.0366 C.3     1  UNL1        0.2470
     24 C         -14.4849   -3.2949   20.8374 C.3     1  UNL1        0.4249
     25 F         -13.3203   -2.7924   21.6383 F       1  UNL1       -0.1674
     26 F         -14.5073   -4.5503   21.6580 F       1  UNL1       -0.1674
     27 F         -14.4624   -2.0395   20.0169 F       1  UNL1       -0.1674
@<TRIPOS>BOND
     1     1     2    2
     2     2     3   ar
     3     3     4   ar
     4     4     5   ar
     5     5     6   ar
     6     6     7    1
     7     7     8   ar
     8     8     9   ar
     9     9    10   ar
    10    10    11   ar
    11    11    12   ar
    12    12    13    1
    13    13    14    1
    14    14    22    1
    15    22    23    1
    16    23    24    1
    17    24    25    1
    18    24    26    1
    19    24    27    1
    20    14    15    1
    21    15    16   ar
    22    16    17   ar
    23    17    18   ar
    24    18    19    1
    25    18    20   ar
    26    20    21   ar
    27     6     2   ar
    28    12     7   ar
    29    21    15   ar
    30    14     5    1
@<TRIPOS>MOLECULE
*****
 27 30 0 0 0
SMALL
GASTEIGER

@<TRIPOS>ATOM
      1 O          -7.3934  -14.9736   24.5331 O.2     1  UNL1       -0.2203
      2 C          -6.6505  -15.9951   23.7241 C.ar    1  UNL1        0.4472
      3 O          -5.2407  -15.8708   23.2270 O.2     1  UNL1       -0.2950
      4 N          -4.9058  -17.1191   22.4658 N.ar    1  UNL1       -0.0545
      5 C          -6.1086  -18.0150   22.4924 C.ar    1  UNL1        0.2069
      6 N          -7.1868  -17.3203   23.2700 N.ar    1  UNL1       -0.2242
      7 C          -8.5178  -17.9842   23.4643 C.ar    1  UNL1        0.0768
      8 C          -9.5961  -17.2895   24.2420 C.ar    1  UNL1        0.0182
      9 C         -10.9270  -17.9534   24.4362 C.ar    1  UNL1        0.0015
     10 C         -11.1797  -19.3120   23.8528 C.ar    1  UNL1        0.0006
     11 C         -10.1015  -20.0067   23.0751 C.ar    1  UNL1        0.0077
     12 C          -8.7706  -19.3428   22.8809 C.ar    1  UNL1        0.0443
     13 S          -7.6922  -20.0375   22.1032 S.3     1  UNL1       -0.0753
     14 C          -6.3613  -19.3736   21.9090 C.3     1  UNL1        0.2085
     15 C          -4.9476  -19.1552   21.4577 C.ar    1  UNL1        0.0190
     16 C          -3.8070  -19.5224   22.3601 C.ar    1  UNL1       -0.0002
     17 C          -2.3933  -19.3040   21.9088 C.ar    1  UNL1        0.0065
     18 C          -2.1201  -18.7183   20.5552 C.ar    1  UNL1        0.0345
     19 BR         -0.7063  -18.4999   20.1039 Br      1  UNL1       -0.0490
     20 C          -3.2606  -18.3511   19.6528 C.ar    1  UNL1        0.0065
     21 C          -4.6743  -18.5695   20.1041 C.ar    1  UNL1       -0.0002
     22 O          -6.1231  -20.6563   21.1689 O.3     1  UNL1       -0.3293
     23 C          -6.1971  -20.6829   19.6709 C.3     1  UNL1        0.2470
     24 C          -7.5268  -20.8050   18.9877 C.3     1  UNL1        0.4249
     25 F          -8.8566  -20.9270   18.3044 F       1  UNL1       -0.1674
     26 F          -7.7176  -19.3209   19.0938 F       1  UNL1       -0.1674
     27 F          -7.3360  -22.2889   18.8816 F       1  UNL1       -0.1674
@<TRIPOS>BOND
     1     1     2    2
     2     2     3   ar
     3     3     4   ar
     4     4     5   ar
     5     5     6   ar
     6     6     7    1
     7     7     8   ar
     8     8     9   ar
     9     9    10   ar
    10    10    11   ar
    11    11    12   ar
    12    12    13    1
    13    13    14    1
    14    14    22    1
    15    22    23    1
    16    23    24    1
    17    24    25    1
    18    24    26    1
    19    24    27    1
    20    14    15    1
    21    15    16   ar
    22    16    17   ar
    23    17    18   ar
    24    18    19    1
    25    18    20   ar
    26    20    21   ar
    27     6     2   ar
    28    12     7   ar
    29    21    15   ar
    30    14     5    1
@<TRIPOS>MOLECULE
*****
 27 30 0 0 0
SMALL
GASTEIGER

@<TRIPOS>ATOM
      1 O           0.8463    1.3903   24.4009 O.2     1  UNL1       -0.2203
      2 C           1.9117    0.5237   23.7976 C.ar    1  UNL1        0.4472
      3 O           2.8849   -0.3320   24.5531 O.2     1  UNL1       -0.2950
      4 N           3.7656   -1.0238   23.5553 N.ar    1  UNL1       -0.0545
      5 C           3.3368   -0.5957   22.1831 C.ar    1  UNL1        0.2069
      6 N           2.1911    0.3607   22.3329 N.ar    1  UNL1       -0.2242
      7 C           1.5501    0.9597   21.1162 C.ar    1  UNL1        0.0768
      8 C           0.4043    1.9161   21.2660 C.ar    1  UNL1        0.0182
      9 C          -0.2366    2.5151   20.0493 C.ar    1  UNL1        0.0015
     10 C           0.2682    2.1576   18.6827 C.ar    1  UNL1        0.0006
     11 C           1.4140    1.2011   18.5329 C.ar    1  UNL1        0.0077
     12 C           2.0549    0.6022   19.7497 C.ar    1  UNL1        0.0443
     13 S           3.2007   -0.3543   19.5999 S.3     1  UNL1       -0.0753
     14 C           3.8416   -0.9532   20.8166 C.3     1  UNL1        0.2085
     15 C           4.7698   -1.7755   21.6606 C.ar    1  UNL1        0.0190
     16 C           6.1179   -1.2358   22.0366 C.ar    1  UNL1       -0.0002
     17 C           7.0462   -2.0581   22.8806 C.ar    1  UNL1        0.0065
     18 C           6.6263   -3.4200   23.3485 C.ar    1  UNL1        0.0345
     19 BR          7.5546   -4.2423   24.1925 Br      1  UNL1       -0.0490
     20 C           5.2782   -3.9597   22.9725 C.ar    1  UNL1        0.0065
     21 C           4.3500   -3.1374   22.1285 C.ar    1  UNL1       -0.0002
     22 O           4.6687   -1.5963   19.7432 O.3     1  UNL1       -0.3293
     23 C           4.0088   -2.4336   18.6881 C.3     1  UNL1        0.2470
     24 C           4.3901   -3.8753   18.5274 C.3     1  UNL1        0.4249
     25 F           4.7715   -5.3171   18.3666 F       1  UNL1       -0.1674
     26 F           2.9972   -4.2858   18.9033 F       1  UNL1       -0.1674
     27 F           5.7830   -3.4649   18.1514 F       1  UNL1       -0.1674
@<TRIPOS>BOND
     1     1     2    2
     2     2     3   ar
     3     3     4   ar
     4     4     5   ar
     5     5     6   ar
     6     6     7    1
     7     7     8   ar
     8     8     9   ar
     9     9    10   ar
    10    10    11   ar
    11    11    12   ar
    12    12    13    1
    13    13    14    1
    14    14    22    1
    15    22    23    1
    16    23    24    1
    17    24    25    1
    18    24    26    1
    19    24    27    1
    20    14    15    1
    21    15    16   ar
    22    16    17   ar
    23    17    18   ar
    24    18    19    1
    25    18    20   ar
    26    20    21   ar
    27     6     2   ar
    28    12     7   ar
    29    21    15   ar
    30    14     5    1
@<TRIPOS>MOLECULE
*****
 27 30 0 0 0
SMALL
GASTEIGER

@<TRIPOS>ATOM
      1 O           1.8618    2.9195   34.5089 O.2     1  UNL1       -0.2203
      2 C           1.6027    2.4846   33.0970 C.ar    1  UNL1        0.4472
      3 O           0.6414    3.1246   32.1396 O.2     1  UNL1       -0.2950
      4 N           0.7040    2.3689   30.8454 N.ar    1  UNL1       -0.0545
      5 C           1.7040    1.2619   31.0028 C.ar    1  UNL1        0.2069
      6 N           2.2593    1.3335   32.3944 N.ar    1  UNL1       -0.2242
      7 C           3.2913    0.3412   32.8420 C.ar    1  UNL1        0.0768
      8 C           3.8467    0.4127   34.2335 C.ar    1  UNL1        0.0182
      9 C           4.8786   -0.5796   34.6811 C.ar    1  UNL1        0.0015
     10 C           5.3552   -1.6435   33.7372 C.ar    1  UNL1        0.0006
     11 C           4.7998   -1.7150   32.3456 C.ar    1  UNL1        0.0077
     12 C           3.7679   -0.7227   31.8981 C.ar    1  UNL1        0.0443
     13 S           3.2125   -0.7943   30.5065 S.3     1  UNL1       -0.0753
     14 C           2.1805    0.1981   30.0589 C.3     1  UNL1        0.2085
     15 C           1.1952    0.9064   29.1771 C.ar    1  UNL1        0.0190
     16 C           1.6010    2.1542   28.4502 C.ar    1  UNL1       -0.0002
     17 C           0.6157    2.8624   27.5684 C.ar    1  UNL1        0.0065
     18 C          -0.7753    2.3230   27.4136 C.ar    1  UNL1        0.0345
     19 BR         -1.7606    3.0313   26.5318 Br      1  UNL1       -0.0490
     20 C          -1.1811    1.0752   28.1405 C.ar    1  UNL1        0.0065
     21 C          -0.1958    0.3670   29.0222 C.ar    1  UNL1       -0.0002
     22 O           2.3149   -0.6198   28.8087 O.3     1  UNL1       -0.3293
     23 C           3.6700   -0.8617   28.2127 C.3     1  UNL1        0.2470
     24 C           3.7948   -1.2716   26.7753 C.3     1  UNL1        0.4249
     25 F           3.9196   -1.6814   25.3377 F       1  UNL1       -0.1674
     26 F           2.7440   -0.2698   26.3983 F       1  UNL1       -0.1674
     27 F           4.8456   -2.2734   27.1521 F       1  UNL1       -0.1674
@<TRIPOS>BOND
     1     1     2    2
     2     2     3   ar
     3     3     4   ar
     4     4     5   ar
     5     5     6   ar
     6     6     7    1
     7     7     8   ar
     8     8     9   ar
     9     9    10   ar
    10    10    11   ar
    11    11    12   ar
    12    12    13    1
    13    13    14    1
    14    14    22    1
    15    22    23    1
    16    23    24    1
    17    24    25    1
    18    24    26    1
    19    24    27    1
    20    14    15    1
    21    15    16   ar
    22    16    17   ar
    23    17    18   ar
    24    18    19    1
    25    18    20   ar
    26    20    21   ar
    27     6     2   ar
    28    12     7   ar
    29    21    15   ar
    30    14     5    1
@<TRIPOS>MOLECULE
*****
 27 30 0 0 0
SMALL
GASTEIGER

@<TRIPOS>ATOM
      1 O           3.6323   -0.3667   26.6639 O.2     1  UNL1       -0.2203
      2 C           3.5641   -0.4268   25.1666 C.ar    1  UNL1        0.4472
      3 O           2.6893    0.4187   24.2892 O.2     1  UNL1       -0.2950
      4 N           2.9434    0.0252   22.8643 N.ar    1  UNL1       -0.0545
      5 C           3.9752   -1.0635   22.8610 C.ar    1  UNL1        0.2069
      6 N           4.3588   -1.3428   24.2839 N.ar    1  UNL1       -0.2242
      7 C           5.3824   -2.3952   24.5920 C.ar    1  UNL1        0.0768
      8 C           5.7660   -2.6745   26.0150 C.ar    1  UNL1        0.0182
      9 C           6.7894   -3.7269   26.3230 C.ar    1  UNL1        0.0015
     10 C           7.4293   -4.5000   25.2082 C.ar    1  UNL1        0.0006
     11 C           7.0456   -4.2207   23.7852 C.ar    1  UNL1        0.0077
     12 C           6.0222   -3.1683   23.4772 C.ar    1  UNL1        0.0443
     13 S           5.6385   -2.8890   22.0542 S.3     1  UNL1       -0.0753
     14 C           4.6150   -1.8366   21.7461 C.3     1  UNL1        0.2085
     15 C           3.7039   -0.9452   20.9555 C.ar    1  UNL1        0.0190
     16 C           4.2326    0.3226   20.3527 C.ar    1  UNL1       -0.0002
     17 C           3.3214    1.2140   19.5621 C.ar    1  UNL1        0.0065
     18 C           1.8816    0.8378   19.3743 C.ar    1  UNL1        0.0345
     19 BR          0.9704    1.7293   18.5836 Br      1  UNL1       -0.0490
     20 C           1.3529   -0.4299   19.9770 C.ar    1  UNL1        0.0065
     21 C           2.2640   -1.3214   20.7676 C.ar    1  UNL1       -0.0002
     22 O           4.9384   -2.3001   20.3567 O.3     1  UNL1       -0.3293
     23 C           4.8118   -3.7520   20.0018 C.3     1  UNL1        0.2470
     24 C           3.5770   -4.2505   19.3115 C.3     1  UNL1        0.4249
     25 F           2.3421   -4.7490   18.6211 F       1  UNL1       -0.1674
     26 F           3.5086   -5.4047   20.2670 F       1  UNL1       -0.1674
     27 F           3.6452   -3.0963   18.3559 F       1  UNL1       -0.1674
@<TRIPOS>BOND
     1     1     2    2
     2     2     3   ar
     3     3     4   ar
     4     4     5   ar
     5     5     6   ar
     6     6     7    1
     7     7     8   ar
     8     8     9   ar
     9     9    10   ar
    10    10    11   ar
    11    11    12   ar
    12    12    13    1
    13    13    14    1
    14    14    22    1
    15    22    23    1
    16    23    24    1
    17    24    25    1
    18    24    26    1
    19    24    27    1
    20    14    15    1
    21    15    16   ar
    22    16    17   ar
    23    17    18   ar
    24    18    19    1
    25    18    20   ar
    26    20    21   ar
    27     6     2   ar
    28    12     7   ar
    29    21    15   ar
    30    14     5    1
@<TRIPOS>MOLECULE
*****
 27 30 0 0 0
SMALL
GASTEIGER

@<TRIPOS>ATOM
      1 O           5.5981    3.2987   21.3485 O.2     1  UNL1       -0.2203
      2 C           5.5574    1.8068   21.4986 C.ar    1  UNL1        0.4472
      3 O           6.5379    0.9709   22.2666 O.2     1  UNL1       -0.2950
      4 N           6.1156   -0.4637   22.1497 N.ar    1  UNL1       -0.0545
      5 C           4.8741   -0.5144   21.3094 C.ar    1  UNL1        0.2069
      6 N           4.5292    0.8889   20.9070 N.ar    1  UNL1       -0.2242
      7 C           3.3232    1.1495   20.0538 C.ar    1  UNL1        0.0768
      8 C           2.9783    2.5527   19.6515 C.ar    1  UNL1        0.0182
      9 C           1.7724    2.8133   18.7983 C.ar    1  UNL1        0.0015
     10 C           0.9114    1.6707   18.3476 C.ar    1  UNL1        0.0006
     11 C           1.2564    0.2675   18.7500 C.ar    1  UNL1        0.0077
     12 C           2.4623    0.0069   19.6031 C.ar    1  UNL1        0.0443
     13 S           2.8073   -1.3964   20.0055 S.3     1  UNL1       -0.0753
     14 C           4.0132   -1.6570   20.8586 C.3     1  UNL1        0.2085
     15 C           5.0445   -2.4046   21.6508 C.ar    1  UNL1        0.0190
     16 C           6.3596   -2.7604   21.0230 C.ar    1  UNL1       -0.0002
     17 C           7.3909   -3.5080   21.8151 C.ar    1  UNL1        0.0065
     18 C           7.1072   -3.8997   23.2350 C.ar    1  UNL1        0.0345
     19 BR          8.1386   -4.6474   24.0271 Br      1  UNL1       -0.0490
     20 C           5.7922   -3.5439   23.8628 C.ar    1  UNL1        0.0065
     21 C           4.7609   -2.7964   23.0706 C.ar    1  UNL1       -0.0002
     22 O           3.5104   -3.0592   20.6830 O.3     1  UNL1       -0.3293
     23 C           3.3807   -3.6427   19.3073 C.3     1  UNL1        0.2470
     24 C           4.1810   -4.8531   18.9274 C.3     1  UNL1        0.4249
     25 F           4.9813   -6.0636   18.5474 F       1  UNL1       -0.1674
     26 F           3.2449   -5.7198   19.7163 F       1  UNL1       -0.1674
     27 F           5.1171   -3.9865   18.1384 F       1  UNL1       -0.1674
@<TRIPOS>BOND
     1     1     2    2
     2     2     3   ar
     3     3     4   ar
     4     4     5   ar
     5     5     6   ar
     6     6     7    1
     7     7     8   ar
     8     8     9   ar
     9     9    10   ar
    10    10    11   ar
    11    11    12   ar
    12    12    13    1
    13    13    14    1
    14    14    22    1
    15    22    23    1
    16    23    24    1
    17    24    25    1
    18    24    26    1
    19    24    27    1
    20    14    15    1
    21    15    16   ar
    22    16    17   ar
    23    17    18   ar
    24    18    19    1
    25    18    20   ar
    26    20    21   ar
    27     6     2   ar
    28    12     7   ar
    29    21    15   ar
    30    14     5    1
@<TRIPOS>MOLECULE
*****
 27 30 0 0 0
SMALL
GASTEIGER

@<TRIPOS>ATOM
      1 O         -18.3859   -8.3098   20.2647 O.2     1  UNL1       -0.2203
      2 C         -17.1142   -7.7203   19.7308 C.ar    1  UNL1        0.4472
      3 O         -15.8026   -8.4342   19.5895 O.2     1  UNL1       -0.2950
      4 N         -14.8085   -7.4684   19.0159 N.ar    1  UNL1       -0.0545
      5 C         -15.5058   -6.1576   18.8026 C.ar    1  UNL1        0.2069
      6 N         -16.9307   -6.3132   19.2445 N.ar    1  UNL1       -0.2242
      7 C         -17.8772   -5.1536   19.1469 C.ar    1  UNL1        0.0768
      8 C         -19.3021   -5.3092   19.5888 C.ar    1  UNL1        0.0182
      9 C         -20.2485   -4.1496   19.4912 C.ar    1  UNL1        0.0015
     10 C         -19.7699   -2.8343   18.9518 C.ar    1  UNL1        0.0006
     11 C         -18.3450   -2.6786   18.5099 C.ar    1  UNL1        0.0077
     12 C         -17.3986   -3.8383   18.6075 C.ar    1  UNL1        0.0443
     13 S         -15.9736   -3.6826   18.1656 S.3     1  UNL1       -0.0753
     14 C         -15.0272   -4.8423   18.2632 C.3     1  UNL1        0.2085
     15 C         -13.7620   -5.6416   18.1611 C.ar    1  UNL1        0.0190
     16 C         -12.8443   -5.7472   19.3429 C.ar    1  UNL1       -0.0002
     17 C         -11.5791   -6.5465   19.2408 C.ar    1  UNL1        0.0065
     18 C         -11.2316   -7.2401   17.9570 C.ar    1  UNL1        0.0345
     19 BR         -9.9663   -8.0394   17.8550 Br      1  UNL1       -0.0490
     20 C         -12.1493   -7.1344   16.7752 C.ar    1  UNL1        0.0065
     21 C         -13.4145   -6.3351   16.8773 C.ar    1  UNL1       -0.0002
     22 O         -14.1093   -3.8046   17.6883 O.3     1  UNL1       -0.3293
     23 C         -13.9548   -2.4784   18.3719 C.3     1  UNL1        0.2470
     24 C         -12.6075   -2.0415   18.8656 C.3     1  UNL1        0.4249
     25 F         -11.2601   -1.6046   19.3594 F       1  UNL1       -0.1674
     26 F         -12.3020   -1.4593   17.5174 F       1  UNL1       -0.1674
     27 F         -12.9128   -2.6237   20.2139 F       1  UNL1       -0.1674
@<TRIPOS>BOND
     1     1     2    2
     2     2     3   ar
     3     3     4   ar
     4     4     5   ar
     5     5     6   ar
     6     6     7    1
     7     7     8   ar
     8     8     9   ar
     9     9    10   ar
    10    10    11   ar
    11    11    12   ar
    12    12    13    1
    13    13    14    1
    14    14    22    1
    15    22    23    1
    16    23    24    1
    17    24    25    1
    18    24    26    1
    19    24    27    1
    20    14    15    1
    21    15    16   ar
    22    16    17   ar
    23    17    18   ar
    24    18    19    1
    25    18    20   ar
    26    20    21   ar
    27     6     2   ar
    28    12     7   ar
    29    21    15   ar
    30    14     5    1
@<TRIPOS>MOLECULE
*****
 27 30 0 0 0
SMALL
GASTEIGER

@<TRIPOS>ATOM
      1 O           6.9205   -2.0659   17.4968 O.2     1  UNL1       -0.2203
      2 C           5.8097   -1.5338   18.3530 C.ar    1  UNL1        0.4472
      3 O           4.7685   -0.5405   17.9295 O.2     1  UNL1       -0.2950
      4 N           3.8604   -0.2944   19.0977 N.ar    1  UNL1       -0.0545
      5 C           4.3403   -1.1355   20.2432 C.ar    1  UNL1        0.2069
      6 N           5.5450   -1.9015   19.7829 N.ar    1  UNL1       -0.2242
      7 C           6.2455   -2.8349   20.7254 C.ar    1  UNL1        0.0768
      8 C           7.4502   -3.6009   20.2651 C.ar    1  UNL1        0.0182
      9 C           8.1506   -4.5343   21.2075 C.ar    1  UNL1        0.0015
     10 C           7.6463   -4.7017   22.6102 C.ar    1  UNL1        0.0006
     11 C           6.4416   -3.9357   23.0705 C.ar    1  UNL1        0.0077
     12 C           5.7412   -3.0023   22.1281 C.ar    1  UNL1        0.0443
     13 S           4.5364   -2.2363   22.5884 S.3     1  UNL1       -0.0753
     14 C           3.8360   -1.3029   21.6459 C.3     1  UNL1        0.2085
     15 C           2.8404   -0.3076   21.1282 C.ar    1  UNL1        0.0190
     16 C           1.5720   -0.7818   20.4830 C.ar    1  UNL1       -0.0002
     17 C           0.5763    0.2135   19.9652 C.ar    1  UNL1        0.0065
     18 C           0.8491    1.6829   20.0927 C.ar    1  UNL1        0.0345
     19 BR         -0.1466    2.6783   19.5749 Br      1  UNL1       -0.0490
     20 C           2.1174    2.1572   20.7379 C.ar    1  UNL1        0.0065
     21 C           3.1130    1.1619   21.2556 C.ar    1  UNL1       -0.0002
     22 O           2.9859   -1.1246   22.8688 O.3     1  UNL1       -0.3293
     23 C           3.6293   -0.8551   24.1968 C.3     1  UNL1        0.2470
     24 C           2.9685    0.0685   25.1766 C.3     1  UNL1        0.4249
     25 F           2.3077    0.9922   26.1566 F       1  UNL1       -0.1674
     26 F           1.7764    0.1751   24.2724 F       1  UNL1       -0.1674
     27 F           4.1605   -0.0380   26.0809 F       1  UNL1       -0.1674
@<TRIPOS>BOND
     1     1     2    2
     2     2     3   ar
     3     3     4   ar
     4     4     5   ar
     5     5     6   ar
     6     6     7    1
     7     7     8   ar
     8     8     9   ar
     9     9    10   ar
    10    10    11   ar
    11    11    12   ar
    12    12    13    1
    13    13    14    1
    14    14    22    1
    15    22    23    1
    16    23    24    1
    17    24    25    1
    18    24    26    1
    19    24    27    1
    20    14    15    1
    21    15    16   ar
    22    16    17   ar
    23    17    18   ar
    24    18    19    1
    25    18    20   ar
    26    20    21   ar
    27     6     2   ar
    28    12     7   ar
    29    21    15   ar
    30    14     5    1
