@<TRIPOS>MOLECULE
*****
 22 24 0 0 0
SMALL
GASTEIGER

@<TRIPOS>ATOM
      1 C          -7.6151  -16.7285   23.3524 C.ar    1  UNL1        0.2035
      2 N          -6.4699  -17.4064   22.6603 N.ar    1  UNL1       -0.2147
      3 C          -5.0678  -17.1975   23.1504 C.ar    1  UNL1        0.0911
      4 C          -4.8107  -16.3107   24.3326 C.ar    1  UNL1        0.0801
      5 C          -5.9559  -15.6328   25.0247 C.ar    1  UNL1        0.2645
      6 O          -5.6990  -14.7460   26.2068 O.2     1  UNL1       -0.2668
      7 N          -7.3582  -15.8417   24.5345 N.ar    1  UNL1       -0.2667
      8 C          -8.5034  -15.1638   25.2266 C.3     1  UNL1        0.1363
      9 C          -9.3550  -18.8134   24.6276 C.3     1  UNL1        0.0242
     10 C          -9.8872  -17.9798   23.4998 C.3     1  UNL1        0.1052
     11 C         -11.2894  -18.1887   23.0097 C.3     1  UNL1        0.1619
     12 O         -11.8217  -17.3551   21.8819 O.3     1  UNL1       -0.3502
     13 C         -10.9518  -16.3127   21.2443 C.3     1  UNL1        0.1637
     14 C          -9.5497  -16.1038   21.7345 C.3     1  UNL1        0.1256
     15 N          -9.0174  -16.9374   22.8622 N.pl3   1  UNL1       -0.2760
     16 C          -3.9226  -17.8754   22.4583 C.ar    1  UNL1        0.0485
     17 C          -3.9434  -19.3612   22.2537 C.ar    1  UNL1        0.0244
     18 C          -2.7982  -20.0391   21.5616 C.ar    1  UNL1        0.0991
     19 N          -1.6322  -19.2312   21.0742 N.ar    1  UNL1       -0.2400
     20 C          -1.6113  -17.7453   21.2788 C.ar    1  UNL1        0.1285
     21 C          -2.7565  -17.0674   21.9709 C.ar    1  UNL1        0.1606
     22 F          -2.7357  -15.5816   22.1755 F       1  UNL1       -0.2025
@<TRIPOS>BOND
     1    10     9    1
     2    10    11    1
     3    11    12    1
     4    12    13    1
     5    13    14    1
     6    14    15    1
     7    15     1    1
     8     1     2   ar
     9     2     3   ar
    10     3    16    1
    11    16    17   ar
    12    17    18   ar
    13    18    19   ar
    14    19    20   ar
    15    20    21   ar
    16    21    22    1
    17     3     4   ar
    18     4     5   ar
    19     5     6    2
    20     5     7   ar
    21     7     8    1
    22    15    10    1
    23     7     1   ar
    24    21    16   ar
@<TRIPOS>MOLECULE
*****
 22 24 0 0 0
SMALL
GASTEIGER

@<TRIPOS>ATOM
      1 C         -12.5398   -4.3702   18.1206 C.ar    1  UNL1        0.2035
      2 N         -13.7112   -5.3059   18.1686 N.ar    1  UNL1       -0.2147
      3 C         -13.5085   -6.7424   18.5497 C.ar    1  UNL1        0.0911
      4 C         -12.1343   -7.2433   18.8829 C.ar    1  UNL1        0.0801
      5 C         -10.9630   -6.3075   18.8350 C.ar    1  UNL1        0.2645
      6 O          -9.5889   -6.8083   19.1682 O.2     1  UNL1       -0.2668
      7 N         -11.1658   -4.8710   18.4538 N.ar    1  UNL1       -0.2667
      8 C          -9.9944   -3.9352   18.4058 C.3     1  UNL1        0.1363
      9 C         -13.6821   -2.4371   20.1102 C.3     1  UNL1        0.0242
     10 C         -13.3137   -1.9671   18.7342 C.3     1  UNL1        0.1052
     11 C         -13.5165   -0.5307   18.3529 C.3     1  UNL1        0.1619
     12 O         -13.1481   -0.0607   16.9769 O.3     1  UNL1       -0.3502
     13 C         -12.5770   -1.0272   15.9821 C.3     1  UNL1        0.1637
     14 C         -12.3743   -2.4637   16.3633 C.3     1  UNL1        0.1256
     15 N         -12.7426   -2.9336   17.7394 N.pl3   1  UNL1       -0.2760
     16 C         -14.6799   -7.6782   18.5977 C.ar    1  UNL1        0.0485
     17 C         -14.5732   -9.0451   17.9894 C.ar    1  UNL1        0.0244
     18 C         -15.7446   -9.9808   18.0374 C.ar    1  UNL1        0.0991
     19 N         -17.0226   -9.5496   18.6937 N.ar    1  UNL1       -0.2400
     20 C         -17.1293   -8.1826   19.3021 C.ar    1  UNL1        0.1285
     21 C         -15.9579   -7.2469   19.2541 C.ar    1  UNL1        0.1606
     22 F         -16.0645   -5.8800   19.8624 F       1  UNL1       -0.2025
@<TRIPOS>BOND
     1    10     9    1
     2    10    11    1
     3    11    12    1
     4    12    13    1
     5    13    14    1
     6    14    15    1
     7    15     1    1
     8     1     2   ar
     9     2     3   ar
    10     3    16    1
    11    16    17   ar
    12    17    18   ar
    13    18    19   ar
    14    19    20   ar
    15    20    21   ar
    16    21    22    1
    17     3     4   ar
    18     4     5   ar
    19     5     6    2
    20     5     7   ar
    21     7     8    1
    22    15    10    1
    23     7     1   ar
    24    21    16   ar
@<TRIPOS>MOLECULE
*****
 22 24 0 0 0
SMALL
GASTEIGER

@<TRIPOS>ATOM
      1 C         -13.0769   -5.2024   18.4532 C.ar    1  UNL1        0.2035
      2 N         -13.3452   -3.7474   18.2062 N.ar    1  UNL1       -0.2147
      3 C         -12.2417   -2.7439   18.3643 C.ar    1  UNL1        0.0911
      4 C         -10.8697   -3.1953   18.7694 C.ar    1  UNL1        0.0801
      5 C         -10.6014   -4.6503   19.0163 C.ar    1  UNL1        0.2645
      6 O          -9.2295   -5.1018   19.4213 O.2     1  UNL1       -0.2668
      7 N         -11.7050   -5.6539   18.8582 N.ar    1  UNL1       -0.2667
      8 C         -11.4367   -7.1089   19.1052 C.3     1  UNL1        0.1363
      9 C         -13.2169   -6.9019   15.9849 C.3     1  UNL1        0.0242
     10 C         -14.2505   -7.0557   17.0610 C.3     1  UNL1        0.1052
     11 C         -15.3541   -8.0592   16.9029 C.3     1  UNL1        0.1619
     12 O         -16.3878   -8.2130   17.9790 O.3     1  UNL1       -0.3502
     13 C         -16.3178   -7.3633   19.2131 C.3     1  UNL1        0.1637
     14 C         -15.2142   -6.3598   19.3711 C.3     1  UNL1        0.1256
     15 N         -14.1806   -6.2060   18.2951 N.pl3   1  UNL1       -0.2760
     16 C         -12.5100   -1.2889   18.1174 C.ar    1  UNL1        0.0485
     17 C         -13.7422   -0.6470   18.6826 C.ar    1  UNL1        0.0244
     18 C         -14.0105    0.8080   18.4357 C.ar    1  UNL1        0.0991
     19 N         -13.0466    1.6211   17.6234 N.ar    1  UNL1       -0.2400
     20 C         -11.8144    0.9792   17.0581 C.ar    1  UNL1        0.1285
     21 C         -11.5460   -0.4758   17.3051 C.ar    1  UNL1        0.1606
     22 F         -10.3138   -1.1177   16.7398 F       1  UNL1       -0.2025
@<TRIPOS>BOND
     1    10     9    1
     2    10    11    1
     3    11    12    1
     4    12    13    1
     5    13    14    1
     6    14    15    1
     7    15     1    1
     8     1     2   ar
     9     2     3   ar
    10     3    16    1
    11    16    17   ar
    12    17    18   ar
    13    18    19   ar
    14    19    20   ar
    15    20    21   ar
    16    21    22    1
    17     3     4   ar
    18     4     5   ar
    19     5     6    2
    20     5     7   ar
    21     7     8    1
    22    15    10    1
    23     7     1   ar
    24    21    16   ar
@<TRIPOS>MOLECULE
*****
 22 24 0 0 0
SMALL
GASTEIGER

@<TRIPOS>ATOM
      1 C         -13.0975   -4.9871   18.0134 C.ar    1  UNL1        0.2035
      2 N         -13.3656   -3.5228   17.8292 N.ar    1  UNL1       -0.2147
      3 C         -12.3139   -2.5164   18.1910 C.ar    1  UNL1        0.0911
      4 C         -10.9939   -2.9743   18.7370 C.ar    1  UNL1        0.0801
      5 C         -10.7258   -4.4386   18.9213 C.ar    1  UNL1        0.2645
      6 O          -9.4059   -4.8965   19.4673 O.2     1  UNL1       -0.2668
      7 N         -11.7777   -5.4450   18.5595 N.ar    1  UNL1       -0.2667
      8 C         -11.5096   -6.9093   18.7437 C.3     1  UNL1        0.1363
      9 C         -15.3612   -5.5367   19.9039 C.3     1  UNL1        0.0242
     10 C         -15.2812   -6.2682   18.5968 C.3     1  UNL1        0.1052
     11 C         -16.3330   -7.2746   18.2350 C.3     1  UNL1        0.1619
     12 O         -16.2529   -8.0061   16.9279 O.3     1  UNL1       -0.3502
     13 C         -15.1212   -7.7313   15.9827 C.3     1  UNL1        0.1637
     14 C         -14.0694   -6.7250   16.3445 C.3     1  UNL1        0.1256
     15 N         -14.1494   -5.9934   17.6516 N.pl3   1  UNL1       -0.2760
     16 C         -12.5820   -1.0521   18.0067 C.ar    1  UNL1        0.0485
     17 C         -11.6534   -0.2185   17.1743 C.ar    1  UNL1        0.0244
     18 C         -11.9215    1.2458   16.9901 C.ar    1  UNL1        0.0991
     19 N         -13.1181    1.8765   17.6383 N.ar    1  UNL1       -0.2400
     20 C         -14.0468    1.0430   18.4707 C.ar    1  UNL1        0.1285
     21 C         -13.7787   -0.4213   18.6550 C.ar    1  UNL1        0.1606
     22 F         -14.7072   -1.2549   19.4874 F       1  UNL1       -0.2025
@<TRIPOS>BOND
     1    10     9    1
     2    10    11    1
     3    11    12    1
     4    12    13    1
     5    13    14    1
     6    14    15    1
     7    15     1    1
     8     1     2   ar
     9     2     3   ar
    10     3    16    1
    11    16    17   ar
    12    17    18   ar
    13    18    19   ar
    14    19    20   ar
    15    20    21   ar
    16    21    22    1
    17     3     4   ar
    18     4     5   ar
    19     5     6    2
    20     5     7   ar
    21     7     8    1
    22    15    10    1
    23     7     1   ar
    24    21    16   ar
@<TRIPOS>MOLECULE
*****
 22 24 0 0 0
SMALL
GASTEIGER

@<TRIPOS>ATOM
      1 C          -7.4646  -18.5289   21.9225 C.ar    1  UNL1        0.2035
      2 N          -8.7298  -18.3392   22.7056 N.ar    1  UNL1       -0.2147
      3 C         -10.0489  -18.7247   22.1046 C.ar    1  UNL1        0.0911
      4 C         -10.1029  -19.2999   20.7203 C.ar    1  UNL1        0.0801
      5 C          -8.8377  -19.4897   19.9371 C.ar    1  UNL1        0.2645
      6 O          -8.8917  -20.0649   18.5529 O.2     1  UNL1       -0.2668
      7 N          -7.5186  -19.1042   20.5382 N.ar    1  UNL1       -0.2667
      8 C          -6.2534  -19.2939   19.7550 C.3     1  UNL1        0.1363
      9 C          -7.1748  -15.9044   23.3465 C.3     1  UNL1        0.0242
     10 C          -6.0006  -16.8312   23.2356 C.3     1  UNL1        0.1052
     11 C          -4.6815  -16.4457   23.8366 C.3     1  UNL1        0.1619
     12 O          -3.5073  -17.3725   23.7258 O.3     1  UNL1       -0.3502
     13 C          -3.6522  -18.6847   23.0138 C.3     1  UNL1        0.1637
     14 C          -4.9713  -19.0702   22.4127 C.3     1  UNL1        0.1256
     15 N          -6.1455  -18.1434   22.5236 N.pl3   1  UNL1       -0.2760
     16 C         -11.3141  -18.5349   22.8877 C.ar    1  UNL1        0.0485
     17 C         -12.4774  -17.8167   22.2709 C.ar    1  UNL1        0.0244
     18 C         -13.7426  -17.6269   23.0540 C.ar    1  UNL1        0.0991
     19 N         -13.8444  -18.1554   24.4541 N.ar    1  UNL1       -0.2400
     20 C         -12.6810  -18.8738   25.0711 C.ar    1  UNL1        0.1285
     21 C         -11.4158  -19.0635   24.2879 C.ar    1  UNL1        0.1606
     22 F         -10.2524  -19.7818   24.9048 F       1  UNL1       -0.2025
@<TRIPOS>BOND
     1    10     9    1
     2    10    11    1
     3    11    12    1
     4    12    13    1
     5    13    14    1
     6    14    15    1
     7    15     1    1
     8     1     2   ar
     9     2     3   ar
    10     3    16    1
    11    16    17   ar
    12    17    18   ar
    13    18    19   ar
    14    19    20   ar
    15    20    21   ar
    16    21    22    1
    17     3     4   ar
    18     4     5   ar
    19     5     6    2
    20     5     7   ar
    21     7     8    1
    22    15    10    1
    23     7     1   ar
    24    21    16   ar
@<TRIPOS>MOLECULE
*****
 22 24 0 0 0
SMALL
GASTEIGER

@<TRIPOS>ATOM
      1 C         -16.3482   -6.4272   19.0499 C.ar    1  UNL1        0.2035
      2 N         -14.8841   -6.1428   18.8901 N.ar    1  UNL1       -0.2147
      3 C         -14.3543   -4.7648   19.1557 C.ar    1  UNL1        0.0911
      4 C         -15.2887   -3.6712   19.5810 C.ar    1  UNL1        0.0801
      5 C         -16.7528   -3.9555   19.7408 C.ar    1  UNL1        0.2645
      6 O         -17.6872   -2.8619   20.1661 O.2     1  UNL1       -0.2668
      7 N         -17.2826   -5.3336   19.4752 N.ar    1  UNL1       -0.2667
      8 C         -18.7467   -5.6179   19.6350 C.3     1  UNL1        0.1363
      9 C         -17.5760   -7.0755   16.3905 C.3     1  UNL1        0.0242
     10 C         -17.4918   -8.1293   17.4546 C.3     1  UNL1        0.1052
     11 C         -18.0215   -9.5073   17.1891 C.3     1  UNL1        0.1619
     12 O         -17.9373  -10.5612   18.2532 O.3     1  UNL1       -0.3502
     13 C         -17.3234  -10.2370   19.5828 C.3     1  UNL1        0.1637
     14 C         -16.7937   -8.8590   19.8484 C.3     1  UNL1        0.1256
     15 N         -16.8779   -7.8052   18.7843 N.pl3   1  UNL1       -0.2760
     16 C         -12.8902   -4.4805   18.9959 C.ar    1  UNL1        0.0485
     17 C         -12.4254   -3.0863   18.6958 C.ar    1  UNL1        0.0244
     18 C         -10.9613   -2.8019   18.5360 C.ar    1  UNL1        0.0991
     19 N          -9.9620   -3.9118   18.6763 N.ar    1  UNL1       -0.2400
     20 C         -10.4268   -5.3060   18.9765 C.ar    1  UNL1        0.1285
     21 C         -11.8910   -5.5904   19.1362 C.ar    1  UNL1        0.1606
     22 F         -12.3558   -6.9846   19.4364 F       1  UNL1       -0.2025
@<TRIPOS>BOND
     1    10     9    1
     2    10    11    1
     3    11    12    1
     4    12    13    1
     5    13    14    1
     6    14    15    1
     7    15     1    1
     8     1     2   ar
     9     2     3   ar
    10     3    16    1
    11    16    17   ar
    12    17    18   ar
    13    18    19   ar
    14    19    20   ar
    15    20    21   ar
    16    21    22    1
    17     3     4   ar
    18     4     5   ar
    19     5     6    2
    20     5     7   ar
    21     7     8    1
    22    15    10    1
    23     7     1   ar
    24    21    16   ar
@<TRIPOS>MOLECULE
*****
 22 24 0 0 0
SMALL
GASTEIGER

@<TRIPOS>ATOM
      1 C         -16.3997   -6.7065   18.5800 C.ar    1  UNL1        0.2035
      2 N         -14.9023   -6.7625   18.5126 N.ar    1  UNL1       -0.2147
      3 C         -14.0843   -5.6264   19.0511 C.ar    1  UNL1        0.0911
      4 C         -14.7638   -4.4342   19.6571 C.ar    1  UNL1        0.0801
      5 C         -16.2612   -4.3782   19.7245 C.ar    1  UNL1        0.2645
      6 O         -16.9407   -3.1862   20.3304 O.2     1  UNL1       -0.2668
      7 N         -17.0792   -5.5145   19.1859 N.ar    1  UNL1       -0.2667
      8 C         -18.5766   -5.4585   19.2534 C.3     1  UNL1        0.1363
      9 C         -16.7083   -9.2242   20.1820 C.3     1  UNL1        0.0242
     10 C         -17.3720   -9.1015   18.8424 C.3     1  UNL1        0.1052
     11 C         -18.1899  -10.2377   18.3039 C.3     1  UNL1        0.1619
     12 O         -18.8536  -10.1150   16.9643 O.3     1  UNL1       -0.3502
     13 C         -18.6993   -8.8563   16.1632 C.3     1  UNL1        0.1637
     14 C         -17.8814   -7.7201   16.7018 C.3     1  UNL1        0.1256
     15 N         -17.2177   -7.8428   18.0414 N.pl3   1  UNL1       -0.2760
     16 C         -12.5869   -5.6823   18.9837 C.ar    1  UNL1        0.0485
     17 C         -11.8909   -7.0045   18.8523 C.ar    1  UNL1        0.0244
     18 C         -10.3934   -7.0605   18.7849 C.ar    1  UNL1        0.0991
     19 N          -9.5920   -5.7942   18.8488 N.ar    1  UNL1       -0.2400
     20 C         -10.2879   -4.4719   18.9801 C.ar    1  UNL1        0.1285
     21 C         -11.7854   -4.4159   19.0476 C.ar    1  UNL1        0.1606
     22 F         -12.4814   -3.0937   19.1789 F       1  UNL1       -0.2025
@<TRIPOS>BOND
     1    10     9    1
     2    10    11    1
     3    11    12    1
     4    12    13    1
     5    13    14    1
     6    14    15    1
     7    15     1    1
     8     1     2   ar
     9     2     3   ar
    10     3    16    1
    11    16    17   ar
    12    17    18   ar
    13    18    19   ar
    14    19    20   ar
    15    20    21   ar
    16    21    22    1
    17     3     4   ar
    18     4     5   ar
    19     5     6    2
    20     5     7   ar
    21     7     8    1
    22    15    10    1
    23     7     1   ar
    24    21    16   ar
@<TRIPOS>MOLECULE
*****
 22 24 0 0 0
SMALL
GASTEIGER

@<TRIPOS>ATOM
      1 C           4.0041   -1.1461   20.6667 C.ar    1  UNL1        0.2035
      2 N           4.2113   -1.0116   22.1462 N.ar    1  UNL1       -0.2147
      3 C           4.5696   -2.2156   22.9659 C.ar    1  UNL1        0.0911
      4 C           4.7208   -3.5542   22.3061 C.ar    1  UNL1        0.0801
      5 C           4.5136   -3.6887   20.8265 C.ar    1  UNL1        0.2645
      6 O           4.6647   -5.0273   20.1667 O.2     1  UNL1       -0.2668
      7 N           4.1552   -2.4846   20.0069 N.ar    1  UNL1       -0.2667
      8 C           3.9480   -2.6192   18.5273 C.3     1  UNL1        0.1363
      9 C           1.1241   -0.5001   20.1295 C.3     1  UNL1        0.0242
     10 C           2.2058    0.3810   19.5784 C.3     1  UNL1        0.1052
     11 C           1.8476    1.5850   18.7588 C.3     1  UNL1        0.1619
     12 O           2.9292    2.4661   18.2077 O.3     1  UNL1       -0.3502
     13 C           4.3692    2.1431   18.4763 C.3     1  UNL1        0.1637
     14 C           4.7275    0.9391   19.2959 C.3     1  UNL1        0.1256
     15 N           3.6458    0.0580   19.8470 N.pl3   1  UNL1       -0.2760
     16 C           4.7768   -2.0811   24.4454 C.ar    1  UNL1        0.0485
     17 C           5.9627   -2.7270   25.0984 C.ar    1  UNL1        0.0244
     18 C           6.1699   -2.5925   26.5780 C.ar    1  UNL1        0.0991
     19 N           5.1912   -1.8120   27.4044 N.ar    1  UNL1       -0.2400
     20 C           4.0053   -1.1660   26.7514 C.ar    1  UNL1        0.1285
     21 C           3.7981   -1.3006   25.2719 C.ar    1  UNL1        0.1606
     22 F           2.6123   -0.6546   24.6188 F       1  UNL1       -0.2025
@<TRIPOS>BOND
     1    10     9    1
     2    10    11    1
     3    11    12    1
     4    12    13    1
     5    13    14    1
     6    14    15    1
     7    15     1    1
     8     1     2   ar
     9     2     3   ar
    10     3    16    1
    11    16    17   ar
    12    17    18   ar
    13    18    19   ar
    14    19    20   ar
    15    20    21   ar
    16    21    22    1
    17     3     4   ar
    18     4     5   ar
    19     5     6    2
    20     5     7   ar
    21     7     8    1
    22    15    10    1
    23     7     1   ar
    24    21    16   ar
@<TRIPOS>MOLECULE
*****
 22 24 0 0 0
SMALL
GASTEIGER

@<TRIPOS>ATOM
      1 C           3.4563   -0.4054   20.4069 C.ar    1  UNL1        0.2035
      2 N           3.7394   -0.4851   21.8777 N.ar    1  UNL1       -0.2147
      3 C           2.7010   -0.0443   22.8663 C.ar    1  UNL1        0.0911
      4 C           1.3794    0.4763   22.3840 C.ar    1  UNL1        0.0801
      5 C           1.0964    0.5560   20.9131 C.ar    1  UNL1        0.2645
      6 O          -0.2251    1.0766   20.4308 O.2     1  UNL1       -0.2668
      7 N           2.1348    0.1151   19.9245 N.ar    1  UNL1       -0.2667
      8 C           1.8518    0.1948   18.4537 C.3     1  UNL1        0.1363
      9 C           3.5502   -3.2650   19.5047 C.3     1  UNL1        0.0242
     10 C           4.5417   -2.2761   18.9672 C.3     1  UNL1        0.1052
     11 C           5.5802   -2.7169   17.9787 C.3     1  UNL1        0.1619
     12 O           6.5717   -1.7279   17.4412 O.3     1  UNL1       -0.3502
     13 C           6.5248   -0.2982   17.8922 C.3     1  UNL1        0.1637
     14 C           5.4863    0.1426   18.8808 C.3     1  UNL1        0.1256
     15 N           4.4948   -0.8463   19.4183 N.pl3   1  UNL1       -0.2760
     16 C           2.9841   -0.1240   24.3372 C.ar    1  UNL1        0.0485
     17 C           2.5067    0.9639   25.2529 C.ar    1  UNL1        0.0244
     18 C           2.7898    0.8842   26.7238 C.ar    1  UNL1        0.0991
     19 N           3.5503   -0.2834   27.2790 N.ar    1  UNL1       -0.2400
     20 C           4.0277   -1.3714   26.3633 C.ar    1  UNL1        0.1285
     21 C           3.7446   -1.2917   24.8924 C.ar    1  UNL1        0.1606
     22 F           4.2220   -2.3796   23.9768 F       1  UNL1       -0.2025
@<TRIPOS>BOND
     1    10     9    1
     2    10    11    1
     3    11    12    1
     4    12    13    1
     5    13    14    1
     6    14    15    1
     7    15     1    1
     8     1     2   ar
     9     2     3   ar
    10     3    16    1
    11    16    17   ar
    12    17    18   ar
    13    18    19   ar
    14    19    20   ar
    15    20    21   ar
    16    21    22    1
    17     3     4   ar
    18     4     5   ar
    19     5     6    2
    20     5     7   ar
    21     7     8    1
    22    15    10    1
    23     7     1   ar
    24    21    16   ar
