@<TRIPOS>MOLECULE
*****
 27 29 0 0 0
SMALL
GASTEIGER

@<TRIPOS>ATOM
      1 C           7.3135   -4.7043   28.3673 C.ar    1  UNL1        0.1103
      2 C           7.2971   -5.5678   29.5937 C.ar    1  UNL1        0.0187
      3 C           6.9171   -4.9795   30.9201 C.ar    1  UNL1        0.0013
      4 C           6.5536   -3.5277   31.0202 C.ar    1  UNL1        0.0001
      5 C           6.5700   -2.6641   29.7939 C.ar    1  UNL1        0.0013
      6 C           6.9499   -3.2524   28.4674 C.ar    1  UNL1        0.0187
      7 O           6.3455   -5.9431   26.9431 O.2     1  UNL1       -0.1642
      8 S           7.6935   -5.2925   27.0408 S.O2    1  UNL1        0.0272
      9 O           9.0415   -4.6420   27.1384 O.2     1  UNL1       -0.1642
     10 C           8.0735   -5.8808   25.7143 C.ar    1  UNL1        0.1086
     11 C           8.0157   -5.0369   24.4754 C.ar    1  UNL1        0.0185
     12 C           8.3957   -5.6252   23.1490 C.ar    1  UNL1        0.0013
     13 C           8.8334   -7.0572   23.0613 C.ar    1  UNL1       -0.0002
     14 C           8.8912   -7.9010   24.3001 C.ar    1  UNL1       -0.0006
     15 C           8.5112   -7.3128   25.6266 C.ar    1  UNL1        0.0244
     16 C           8.5689   -8.1566   26.8654 C.3     1  UNL1        0.1649
     17 O           7.3775   -8.9708   27.2745 O.3     1  UNL1       -0.3772
     18 H           6.6483   -8.3783   27.5155 H       1  UNL1        0.2109
     19 C           6.1736   -2.9394   32.3468 C.2     1  UNL1        0.0000
     20 C           6.5636   -1.5303   32.6817 C.2     1  UNL1        0.0000
     21 C           6.1837   -0.9420   34.0082 C.ar    1  UNL1        0.0001
     22 C           7.2138   -0.2342   34.8375 C.ar    1  UNL1        0.0023
     23 C           6.8338    0.3540   36.1639 C.ar    1  UNL1        0.0296
     24 C           5.4237    0.2345   36.6611 C.ar    1  UNL1        0.1401
     25 F           5.0437    0.8227   37.9877 F       1  UNL1       -0.2042
     26 C           4.3935   -0.4734   35.8319 C.ar    1  UNL1        0.0296
     27 C           4.7735   -1.0616   34.5054 C.ar    1  UNL1        0.0023
@<TRIPOS>BOND
     1     7     8    2
     2     8     9    2
     3     8     1    1
     4     1     2   ar
     5     2     3   ar
     6     3     4   ar
     7     4    19    1
     8    19    20    2
     9    20    21    1
    10    21    22   ar
    11    22    23   ar
    12    23    24   ar
    13    24    25    1
    14    24    26   ar
    15    26    27   ar
    16     4     5   ar
    17     5     6   ar
    18     8    10    1
    19    10    11   ar
    20    11    12   ar
    21    12    13   ar
    22    13    14   ar
    23    14    15   ar
    24    15    16    1
    25    16    17    1
    26     6     1   ar
    27    15    10   ar
    28    27    21   ar
    29    17    18    1
@<TRIPOS>MOLECULE
*****
 27 29 0 0 0
SMALL
GASTEIGER

@<TRIPOS>ATOM
      1 C           5.5588   -1.7112   32.2616 C.ar    1  UNL1        0.1103
      2 C           6.0065   -3.1170   32.5324 C.ar    1  UNL1        0.0187
      3 C           6.5503   -3.9590   31.4166 C.ar    1  UNL1        0.0013
      4 C           6.6464   -3.3954   30.0299 C.ar    1  UNL1        0.0001
      5 C           6.1988   -1.9896   29.7590 C.ar    1  UNL1        0.0013
      6 C           5.6550   -1.1475   30.8748 C.ar    1  UNL1        0.0187
      7 O           6.1486    0.0972   33.2008 O.2     1  UNL1       -0.1642
      8 S           5.0150   -0.8691   33.3774 S.O2    1  UNL1        0.0272
      9 O           3.8814   -1.8353   33.5541 O.2     1  UNL1       -0.1642
     10 C           4.4712   -0.0270   34.4932 C.ar    1  UNL1        0.1086
     11 C           4.8862   -0.2988   35.9089 C.ar    1  UNL1        0.0185
     12 C           4.3423    0.5433   37.0247 C.ar    1  UNL1        0.0013
     13 C           3.3835    1.6572   36.7250 C.ar    1  UNL1       -0.0002
     14 C           2.9685    1.9290   35.3094 C.ar    1  UNL1       -0.0006
     15 C           3.5123    1.0869   34.1935 C.ar    1  UNL1        0.0244
     16 C           3.0973    1.3587   32.7780 C.3     1  UNL1        0.1649
     17 O           1.6512    1.2680   32.3898 O.3     1  UNL1       -0.3772
     18 H           1.3510    0.3494   32.4734 H       1  UNL1        0.2109
     19 C           7.1903   -4.2375   28.9140 C.2     1  UNL1        0.0000
     20 C           6.3962   -4.4169   27.6542 C.2     1  UNL1        0.0000
     21 C           6.9400   -5.2591   26.5383 C.ar    1  UNL1        0.0001
     22 C           7.1772   -4.6519   25.1874 C.ar    1  UNL1        0.0023
     23 C           7.7210   -5.4940   24.0716 C.ar    1  UNL1        0.0296
     24 C           8.0276   -6.9434   24.3067 C.ar    1  UNL1        0.1401
     25 F           8.5714   -7.7855   23.1909 F       1  UNL1       -0.2042
     26 C           7.7904   -7.5506   25.6576 C.ar    1  UNL1        0.0296
     27 C           7.2466   -6.7085   26.7734 C.ar    1  UNL1        0.0023
@<TRIPOS>BOND
     1     7     8    2
     2     8     9    2
     3     8     1    1
     4     1     2   ar
     5     2     3   ar
     6     3     4   ar
     7     4    19    1
     8    19    20    2
     9    20    21    1
    10    21    22   ar
    11    22    23   ar
    12    23    24   ar
    13    24    25    1
    14    24    26   ar
    15    26    27   ar
    16     4     5   ar
    17     5     6   ar
    18     8    10    1
    19    10    11   ar
    20    11    12   ar
    21    12    13   ar
    22    13    14   ar
    23    14    15   ar
    24    15    16    1
    25    16    17    1
    26     6     1   ar
    27    15    10   ar
    28    27    21   ar
    29    17    18    1
@<TRIPOS>MOLECULE
*****
 27 29 0 0 0
SMALL
GASTEIGER

@<TRIPOS>ATOM
      1 C           4.1991   -0.7028   29.9862 C.ar    1  UNL1        0.1103
      2 C           2.9784   -0.4033   29.1678 C.ar    1  UNL1        0.0187
      3 C           2.9590   -0.7278   27.7034 C.ar    1  UNL1        0.0013
      4 C           4.1605   -1.3518   27.0576 C.ar    1  UNL1        0.0001
      5 C           5.3812   -1.6514   27.8761 C.ar    1  UNL1        0.0013
      6 C           5.4006   -1.3269   29.3404 C.ar    1  UNL1        0.0187
      7 O           5.6726   -0.0236   31.3528 O.2     1  UNL1       -0.1642
      8 S           4.2185   -0.3783   31.4507 S.O2    1  UNL1        0.0272
      9 O           2.7644   -0.7331   31.5485 O.2     1  UNL1       -0.1642
     10 C           4.2378   -0.0539   32.9150 C.ar    1  UNL1        0.1086
     11 C           4.0572    1.3635   33.3716 C.ar    1  UNL1        0.0185
     12 C           4.0765    1.6880   34.8359 C.ar    1  UNL1        0.0013
     13 C           4.2765    0.5951   35.8437 C.ar    1  UNL1       -0.0002
     14 C           4.4571   -0.8222   35.3872 C.ar    1  UNL1       -0.0006
     15 C           4.4378   -1.1468   33.9228 C.ar    1  UNL1        0.0244
     16 C           4.6185   -2.5641   33.4662 C.3     1  UNL1        0.1649
     17 O           3.5420   -3.5772   33.7211 O.3     1  UNL1       -0.3772
     18 H           3.4558   -3.7240   34.6761 H       1  UNL1        0.2109
     19 C           4.1411   -1.6763   25.5932 C.2     1  UNL1        0.0000
     20 C           3.3810   -0.8013   24.6411 C.2     1  UNL1        0.0000
     21 C           3.3616   -1.1258   23.1767 C.ar    1  UNL1        0.0001
     22 C           2.5105   -0.3196   22.2411 C.ar    1  UNL1        0.0023
     23 C           2.4911   -0.6441   20.7767 C.ar    1  UNL1        0.0296
     24 C           3.3229   -1.7748   20.2481 C.ar    1  UNL1        0.1401
     25 F           3.3036   -2.0993   18.7837 F       1  UNL1       -0.2042
     26 C           4.1741   -2.5811   21.1837 C.ar    1  UNL1        0.0296
     27 C           4.1934   -2.2566   22.6480 C.ar    1  UNL1        0.0023
@<TRIPOS>BOND
     1     7     8    2
     2     8     9    2
     3     8     1    1
     4     1     2   ar
     5     2     3   ar
     6     3     4   ar
     7     4    19    1
     8    19    20    2
     9    20    21    1
    10    21    22   ar
    11    22    23   ar
    12    23    24   ar
    13    24    25    1
    14    24    26   ar
    15    26    27   ar
    16     4     5   ar
    17     5     6   ar
    18     8    10    1
    19    10    11   ar
    20    11    12   ar
    21    12    13   ar
    22    13    14   ar
    23    14    15   ar
    24    15    16    1
    25    16    17    1
    26     6     1   ar
    27    15    10   ar
    28    27    21   ar
    29    17    18    1
@<TRIPOS>MOLECULE
*****
 27 29 0 0 0
SMALL
GASTEIGER

@<TRIPOS>ATOM
      1 C           6.8667   -4.3504   29.4866 C.ar    1  UNL1        0.1103
      2 C           6.9719   -4.9990   30.8350 C.ar    1  UNL1        0.0187
      3 C           6.5955   -4.2317   32.0677 C.ar    1  UNL1        0.0013
      4 C           6.1139   -2.8159   31.9520 C.ar    1  UNL1        0.0001
      5 C           6.0087   -2.1673   30.6036 C.ar    1  UNL1        0.0013
      6 C           6.3851   -2.9345   29.3709 C.ar    1  UNL1        0.0187
      7 O           5.8006   -5.4603   28.0266 O.2     1  UNL1       -0.1642
      8 S           7.2431   -5.1177   28.2538 S.O2    1  UNL1        0.0272
      9 O           8.6856   -4.7750   28.4811 O.2     1  UNL1       -0.1642
     10 C           7.6196   -5.8849   27.0211 C.ar    1  UNL1        0.1086
     11 C           8.0243   -7.3253   27.1286 C.ar    1  UNL1        0.0185
     12 C           8.4007   -8.0925   25.8959 C.ar    1  UNL1        0.0013
     13 C           8.3725   -7.4194   24.5557 C.ar    1  UNL1       -0.0002
     14 C           7.9678   -5.9791   24.4482 C.ar    1  UNL1       -0.0006
     15 C           7.5913   -5.2118   25.6809 C.ar    1  UNL1        0.0244
     16 C           7.1866   -3.7714   25.5735 C.3     1  UNL1        0.1649
     17 O           5.7382   -3.3910   25.6590 O.3     1  UNL1       -0.3772
     18 H           5.2637   -3.7505   24.8932 H       1  UNL1        0.2109
     19 C           5.7375   -2.0486   33.1848 C.2     1  UNL1        0.0000
     20 C           4.9426   -0.7821   33.0664 C.2     1  UNL1        0.0000
     21 C           4.5661   -0.0148   34.2992 C.ar    1  UNL1        0.0001
     22 C           3.6619    1.1773   34.1937 C.ar    1  UNL1        0.0023
     23 C           3.2856    1.9445   35.4265 C.ar    1  UNL1        0.0296
     24 C           3.8134    1.5196   36.7647 C.ar    1  UNL1        0.1401
     25 F           3.4370    2.2868   37.9975 F       1  UNL1       -0.2042
     26 C           4.7176    0.3274   36.8702 C.ar    1  UNL1        0.0296
     27 C           5.0940   -0.4398   35.6374 C.ar    1  UNL1        0.0023
@<TRIPOS>BOND
     1     7     8    2
     2     8     9    2
     3     8     1    1
     4     1     2   ar
     5     2     3   ar
     6     3     4   ar
     7     4    19    1
     8    19    20    2
     9    20    21    1
    10    21    22   ar
    11    22    23   ar
    12    23    24   ar
    13    24    25    1
    14    24    26   ar
    15    26    27   ar
    16     4     5   ar
    17     5     6   ar
    18     8    10    1
    19    10    11   ar
    20    11    12   ar
    21    12    13   ar
    22    13    14   ar
    23    14    15   ar
    24    15    16    1
    25    16    17    1
    26     6     1   ar
    27    15    10   ar
    28    27    21   ar
    29    17    18    1
@<TRIPOS>MOLECULE
*****
 27 29 0 0 0
SMALL
GASTEIGER

@<TRIPOS>ATOM
      1 C          -3.1433    4.0739   23.4792 C.ar    1  UNL1        0.1103
      2 C          -3.3346    3.8994   22.0017 C.ar    1  UNL1        0.0187
      3 C          -2.2412    3.2977   21.1698 C.ar    1  UNL1        0.0013
      4 C          -0.9563    2.8705   21.8153 C.ar    1  UNL1        0.0001
      5 C          -0.7650    3.0450   23.2927 C.ar    1  UNL1        0.0013
      6 C          -1.8585    3.6467   24.1247 C.ar    1  UNL1        0.0187
      7 O          -3.8480    6.0432   23.8333 O.2     1  UNL1       -0.1642
      8 S          -4.2368    4.6756   24.3112 S.O2    1  UNL1        0.0272
      9 O          -4.6257    3.3080   24.7891 O.2     1  UNL1       -0.1642
     10 C          -5.3303    5.2773   25.1432 C.ar    1  UNL1        0.1086
     11 C          -5.0283    5.7939   26.5188 C.ar    1  UNL1        0.0185
     12 C          -6.1217    6.3956   27.3508 C.ar    1  UNL1        0.0013
     13 C          -7.5172    6.4806   26.8074 C.ar    1  UNL1       -0.0002
     14 C          -7.8193    5.9640   25.4319 C.ar    1  UNL1       -0.0006
     15 C          -6.7258    5.3623   24.5998 C.ar    1  UNL1        0.0244
     16 C          -7.0278    4.8458   23.2244 C.3     1  UNL1        0.1649
     17 O          -8.1126    3.8288   23.0266 O.3     1  UNL1       -0.3772
     18 H          -7.8603    2.9985   23.4601 H       1  UNL1        0.2109
     19 C           0.1372    2.2688   20.9832 C.2     1  UNL1        0.0000
     20 C           0.2543    0.7782   20.8629 C.2     1  UNL1        0.0000
     21 C           1.3478    0.1765   20.0309 C.ar    1  UNL1        0.0001
     22 C           1.7125    0.7923   18.7127 C.ar    1  UNL1        0.0023
     23 C           2.8060    0.1906   17.8807 C.ar    1  UNL1        0.0296
     24 C           3.5347   -1.0270   18.3670 C.ar    1  UNL1        0.1401
     25 F           4.6282   -1.6287   17.5349 F       1  UNL1       -0.2042
     26 C           3.1700   -1.6428   19.6852 C.ar    1  UNL1        0.0296
     27 C           2.0766   -1.0411   20.5171 C.ar    1  UNL1        0.0023
@<TRIPOS>BOND
     1     7     8    2
     2     8     9    2
     3     8     1    1
     4     1     2   ar
     5     2     3   ar
     6     3     4   ar
     7     4    19    1
     8    19    20    2
     9    20    21    1
    10    21    22   ar
    11    22    23   ar
    12    23    24   ar
    13    24    25    1
    14    24    26   ar
    15    26    27   ar
    16     4     5   ar
    17     5     6   ar
    18     8    10    1
    19    10    11   ar
    20    11    12   ar
    21    12    13   ar
    22    13    14   ar
    23    14    15   ar
    24    15    16    1
    25    16    17    1
    26     6     1   ar
    27    15    10   ar
    28    27    21   ar
    29    17    18    1
@<TRIPOS>MOLECULE
*****
 27 29 0 0 0
SMALL
GASTEIGER

@<TRIPOS>ATOM
      1 C          -3.3417    3.9906   22.9323 C.ar    1  UNL1        0.1103
      2 C          -3.4187    3.7011   21.4626 C.ar    1  UNL1        0.0187
      3 C          -2.2436    3.0940   20.7552 C.ar    1  UNL1        0.0013
      4 C          -0.9915    2.7762   21.5175 C.ar    1  UNL1        0.0001
      5 C          -0.9145    3.0656   22.9873 C.ar    1  UNL1        0.0013
      6 C          -2.0895    3.6728   23.6947 C.ar    1  UNL1        0.0187
      7 O          -4.0783    5.9622   23.1972 O.2     1  UNL1       -0.1642
      8 S          -4.5168    4.5978   23.6398 S.O2    1  UNL1        0.0272
      9 O          -4.9553    3.2333   24.0825 O.2     1  UNL1       -0.1642
     10 C          -5.6919    5.2049   24.3473 C.ar    1  UNL1        0.1086
     11 C          -6.9237    5.5739   23.5749 C.ar    1  UNL1        0.0185
     12 C          -8.0987    6.1811   24.2823 C.ar    1  UNL1        0.0013
     13 C          -8.0421    6.4192   25.7622 C.ar    1  UNL1       -0.0002
     14 C          -6.8104    6.0502   26.5346 C.ar    1  UNL1       -0.0006
     15 C          -5.6352    5.4430   25.8272 C.ar    1  UNL1        0.0244
     16 C          -4.4035    5.0740   26.5996 C.3     1  UNL1        0.1649
     17 O          -4.2088    3.6636   27.0718 O.3     1  UNL1       -0.3772
     18 H          -4.8855    3.4475   27.7323 H       1  UNL1        0.2109
     19 C           0.1836    2.1690   20.8101 C.2     1  UNL1        0.0000
     20 C           0.1915    0.7034   20.4908 C.2     1  UNL1        0.0000
     21 C           1.3666    0.0962   19.7833 C.ar    1  UNL1        0.0001
     22 C           2.1068   -1.0500   20.4064 C.ar    1  UNL1        0.0023
     23 C           3.2819   -1.6571   19.6989 C.ar    1  UNL1        0.0296
     24 C           3.7167   -1.1181   18.3683 C.ar    1  UNL1        0.1401
     25 F           4.8918   -1.7253   17.6609 F       1  UNL1       -0.2042
     26 C           2.9765    0.0281   17.7453 C.ar    1  UNL1        0.0296
     27 C           1.8014    0.6353   18.4528 C.ar    1  UNL1        0.0023
@<TRIPOS>BOND
     1     7     8    2
     2     8     9    2
     3     8     1    1
     4     1     2   ar
     5     2     3   ar
     6     3     4   ar
     7     4    19    1
     8    19    20    2
     9    20    21    1
    10    21    22   ar
    11    22    23   ar
    12    23    24   ar
    13    24    25    1
    14    24    26   ar
    15    26    27   ar
    16     4     5   ar
    17     5     6   ar
    18     8    10    1
    19    10    11   ar
    20    11    12   ar
    21    12    13   ar
    22    13    14   ar
    23    14    15   ar
    24    15    16    1
    25    16    17    1
    26     6     1   ar
    27    15    10   ar
    28    27    21   ar
    29    17    18    1
@<TRIPOS>MOLECULE
*****
 27 29 0 0 0
SMALL
GASTEIGER

@<TRIPOS>ATOM
      1 C          -3.4192    3.6865   23.1012 C.ar    1  UNL1        0.1103
      2 C          -1.9402    3.4485   23.0236 C.ar    1  UNL1        0.0187
      3 C          -1.1519    3.2119   24.2775 C.ar    1  UNL1        0.0013
      4 C          -1.8424    3.2133   25.6091 C.ar    1  UNL1        0.0001
      5 C          -3.3213    3.4513   25.6868 C.ar    1  UNL1        0.0013
      6 C          -4.1097    3.6879   24.4328 C.ar    1  UNL1        0.0187
      7 O          -3.6273    5.3023   21.7425 O.2     1  UNL1       -0.1642
      8 S          -4.2076    3.9231   21.8472 S.O2    1  UNL1        0.0272
      9 O          -4.7880    2.5439   21.9520 O.2     1  UNL1       -0.1642
     10 C          -4.9961    4.1596   20.5933 C.ar    1  UNL1        0.1086
     11 C          -4.3765    3.8859   19.2549 C.ar    1  UNL1        0.0185
     12 C          -5.1650    4.1225   18.0010 C.ar    1  UNL1        0.0013
     13 C          -6.5730    4.6327   18.0854 C.ar    1  UNL1       -0.0002
     14 C          -7.1926    4.9064   19.4237 C.ar    1  UNL1       -0.0006
     15 C          -6.4041    4.6699   20.6777 C.ar    1  UNL1        0.0244
     16 C          -7.0237    4.9436   22.0161 C.3     1  UNL1        0.1649
     17 O          -7.5694    3.8119   22.8355 O.3     1  UNL1       -0.3772
     18 H          -8.3319    3.4215   22.3804 H       1  UNL1        0.2109
     19 C          -1.0539    2.9767   26.8631 C.2     1  UNL1        0.0000
     20 C          -0.3927    1.6503   27.0942 C.2     1  UNL1        0.0000
     21 C           0.3958    1.4137   28.3482 C.ar    1  UNL1        0.0001
     22 C           0.9617    0.0541   28.6330 C.ar    1  UNL1        0.0023
     23 C           1.7501   -0.1824   29.8869 C.ar    1  UNL1        0.0296
     24 C           1.9726    0.9406   30.8561 C.ar    1  UNL1        0.1401
     25 F           2.7611    0.7040   32.1101 F       1  UNL1       -0.2042
     26 C           1.4067    2.3002   30.5713 C.ar    1  UNL1        0.0296
     27 C           0.6183    2.5368   29.3174 C.ar    1  UNL1        0.0023
@<TRIPOS>BOND
     1     7     8    2
     2     8     9    2
     3     8     1    1
     4     1     2   ar
     5     2     3   ar
     6     3     4   ar
     7     4    19    1
     8    19    20    2
     9    20    21    1
    10    21    22   ar
    11    22    23   ar
    12    23    24   ar
    13    24    25    1
    14    24    26   ar
    15    26    27   ar
    16     4     5   ar
    17     5     6   ar
    18     8    10    1
    19    10    11   ar
    20    11    12   ar
    21    12    13   ar
    22    13    14   ar
    23    14    15   ar
    24    15    16    1
    25    16    17    1
    26     6     1   ar
    27    15    10   ar
    28    27    21   ar
    29    17    18    1
@<TRIPOS>MOLECULE
*****
 27 29 0 0 0
SMALL
GASTEIGER

@<TRIPOS>ATOM
      1 C          -1.1856    3.1335   24.6150 C.ar    1  UNL1        0.1103
      2 C          -0.4273    2.0417   25.3099 C.ar    1  UNL1        0.0187
      3 C           0.5169    1.1728   24.5333 C.ar    1  UNL1        0.0013
      4 C           0.7030    1.3956   23.0616 C.ar    1  UNL1        0.0001
      5 C          -0.0553    2.4874   22.3667 C.ar    1  UNL1        0.0013
      6 C          -0.9996    3.3563   23.1433 C.ar    1  UNL1        0.0187
      7 O          -2.0859    3.0302   26.5330 O.2     1  UNL1       -0.1642
      8 S          -2.1299    4.0024   25.3916 S.O2    1  UNL1        0.0272
      9 O          -2.1740    4.9747   24.2503 O.2     1  UNL1       -0.1642
     10 C          -3.0742    4.8714   26.1682 C.ar    1  UNL1        0.1086
     11 C          -2.5375    5.9409   27.0728 C.ar    1  UNL1        0.0185
     12 C          -3.4818    6.8099   27.8494 C.ar    1  UNL1        0.0013
     13 C          -4.9629    6.6094   27.7215 C.ar    1  UNL1       -0.0002
     14 C          -5.4996    5.5400   26.8170 C.ar    1  UNL1       -0.0006
     15 C          -4.5553    4.6710   26.0403 C.ar    1  UNL1        0.0244
     16 C          -5.0920    3.6015   25.1358 C.3     1  UNL1        0.1649
     17 O          -6.3532    3.8393   24.3593 O.3     1  UNL1       -0.3772
     18 H          -7.0998    3.9227   24.9729 H       1  UNL1        0.2109
     19 C           1.6473    0.5266   22.2850 C.2     1  UNL1        0.0000
     20 C           1.5275    0.4356   20.7926 C.2     1  UNL1        0.0000
     21 C           2.4718   -0.4334   20.0159 C.ar    1  UNL1        0.0001
     22 C           2.8590   -0.0567   18.6166 C.ar    1  UNL1        0.0023
     23 C           3.8033   -0.9256   17.8400 C.ar    1  UNL1        0.0296
     24 C           4.3604   -2.1713   18.4627 C.ar    1  UNL1        0.1401
     25 F           5.3048   -3.0403   17.6860 F       1  UNL1       -0.2042
     26 C           3.9733   -2.5481   19.8620 C.ar    1  UNL1        0.0296
     27 C           3.0290   -1.6791   20.6386 C.ar    1  UNL1        0.0023
@<TRIPOS>BOND
     1     7     8    2
     2     8     9    2
     3     8     1    1
     4     1     2   ar
     5     2     3   ar
     6     3     4   ar
     7     4    19    1
     8    19    20    2
     9    20    21    1
    10    21    22   ar
    11    22    23   ar
    12    23    24   ar
    13    24    25    1
    14    24    26   ar
    15    26    27   ar
    16     4     5   ar
    17     5     6   ar
    18     8    10    1
    19    10    11   ar
    20    11    12   ar
    21    12    13   ar
    22    13    14   ar
    23    14    15   ar
    24    15    16    1
    25    16    17    1
    26     6     1   ar
    27    15    10   ar
    28    27    21   ar
    29    17    18    1
@<TRIPOS>MOLECULE
*****
 27 29 0 0 0
SMALL
GASTEIGER

@<TRIPOS>ATOM
      1 C           1.0014    1.6754   28.7967 C.ar    1  UNL1        0.1103
      2 C           1.1712    3.0431   28.2047 C.ar    1  UNL1        0.0187
      3 C           0.0951    3.6229   27.3353 C.ar    1  UNL1        0.0013
      4 C          -1.1508    2.8350   27.0579 C.ar    1  UNL1        0.0001
      5 C          -1.3206    1.4673   27.6499 C.ar    1  UNL1        0.0013
      6 C          -0.2445    0.8875   28.5193 C.ar    1  UNL1        0.0187
      7 O           3.0547    2.0962   29.1241 O.2     1  UNL1       -0.1642
      8 S           2.0775    1.0956   29.6661 S.O2    1  UNL1        0.0272
      9 O           1.1004    0.0949   30.2081 O.2     1  UNL1       -0.1642
     10 C           3.1535    0.5157   30.5355 C.ar    1  UNL1        0.1086
     11 C           4.0718   -0.5378   29.9904 C.ar    1  UNL1        0.0185
     12 C           5.1478   -1.1177   30.8598 C.ar    1  UNL1        0.0013
     13 C           5.3056   -0.6441   32.2743 C.ar    1  UNL1       -0.0002
     14 C           4.3875    0.4094   32.8194 C.ar    1  UNL1       -0.0006
     15 C           3.3114    0.9893   31.9500 C.ar    1  UNL1        0.0244
     16 C           2.3933    2.0428   32.4951 C.3     1  UNL1        0.1649
     17 O           0.9833    1.6899   32.8660 O.3     1  UNL1       -0.3772
     18 H           0.4911    1.4430   32.0675 H       1  UNL1        0.2109
     19 C          -2.2269    3.4149   26.1885 C.2     1  UNL1        0.0000
     20 C          -3.6098    3.6092   26.7359 C.2     1  UNL1        0.0000
     21 C          -4.6859    4.1891   25.8664 C.ar    1  UNL1        0.0001
     22 C          -4.9307    3.6242   24.4986 C.ar    1  UNL1        0.0023
     23 C          -6.0067    4.2041   23.6293 C.ar    1  UNL1        0.0296
     24 C          -6.8380    5.3488   24.1277 C.ar    1  UNL1        0.1401
     25 F          -7.9141    5.9287   23.2583 F       1  UNL1       -0.2042
     26 C          -6.5933    5.9137   25.4955 C.ar    1  UNL1        0.0296
     27 C          -5.5172    5.3339   26.3649 C.ar    1  UNL1        0.0023
@<TRIPOS>BOND
     1     7     8    2
     2     8     9    2
     3     8     1    1
     4     1     2   ar
     5     2     3   ar
     6     3     4   ar
     7     4    19    1
     8    19    20    2
     9    20    21    1
    10    21    22   ar
    11    22    23   ar
    12    23    24   ar
    13    24    25    1
    14    24    26   ar
    15    26    27   ar
    16     4     5   ar
    17     5     6   ar
    18     8    10    1
    19    10    11   ar
    20    11    12   ar
    21    12    13   ar
    22    13    14   ar
    23    14    15   ar
    24    15    16    1
    25    16    17    1
    26     6     1   ar
    27    15    10   ar
    28    27    21   ar
    29    17    18    1
