@<TRIPOS>MOLECULE
*****
 40 44 0 0 0
SMALL
GASTEIGER

@<TRIPOS>ATOM
      1 C         -12.3153   -5.7946   17.4264 C.ar    1  UNL1        0.2314
      2 N         -12.2534   -4.3523   17.8339 N.ar    1  UNL1       -0.1788
      3 C         -11.0429   -3.8253   18.5456 C.ar    1  UNL1        0.2191
      4 N          -9.8941   -4.7405   18.8499 N.ar    1  UNL1       -0.2157
      5 C          -9.9559   -6.1828   18.4425 C.ar    1  UNL1        0.0945
      6 C         -11.1665   -6.7098   17.7307 C.ar    1  UNL1        0.0770
      7 C         -10.9439   -8.1672   17.4540 C.3     1  UNL1        0.1750
      8 O          -9.5956   -8.5408   17.9949 O.3     1  UNL1       -0.3424
      9 C          -8.9850   -7.3144   18.6057 C.3     1  UNL1        0.1879
     10 N         -10.9809   -2.3830   18.9532 N.pl3   1  UNL1       -0.3045
     11 H         -10.1241   -1.9867   19.2325 H       1  UNL1        0.1496
     12 C         -12.2246   -1.5445   18.9350 C.3     1  UNL1        0.0745
     13 C         -13.4883   -2.0635   19.5546 C.3     1  UNL1        0.0369
     14 C         -14.7319   -1.2250   19.5364 C.3     1  UNL1        0.0741
     15 N         -14.7118    0.1325   18.8985 N.3     1  UNL1       -0.2689
     16 C         -13.4483    0.6515   18.2790 C.3     1  UNL1        0.0741
     17 C         -12.2046   -0.1870   18.2972 C.3     1  UNL1        0.0369
     18 C         -15.9555    0.9710   18.8804 C.3     1  UNL1        0.0991
     19 C         -16.3172    1.8021   20.0755 C.ar    1  UNL1       -0.0061
     20 C         -15.8199    3.2129   20.1864 C.ar    1  UNL1       -0.0028
     21 C         -16.1817    4.0439   21.3816 C.ar    1  UNL1        0.0042
     22 C         -17.0408    3.4642   22.4659 C.ar    1  UNL1        0.0531
     23 C         -17.5382    2.0534   22.3551 C.ar    1  UNL1        0.0042
     24 C         -17.1764    1.2224   21.1599 C.ar    1  UNL1       -0.0028
     25 C         -17.4026    4.2953   23.6611 C.2     1  UNL1        0.2427
     26 N         -16.5613    4.2314   24.9013 N.am    1  UNL1       -0.3253
     27 O         -18.6056    5.1901   23.6160 O.2     1  UNL1       -0.2704
     28 H         -15.7718    3.6441   24.9309 H       1  UNL1        0.1453
     29 H         -16.7987    4.7769   25.6858 H       1  UNL1        0.1453
     30 O         -13.5260   -6.3215   16.7146 O.3     1  UNL1       -0.4369
     31 C         -15.3317   -3.9348   16.5057 C.3     1  UNL1        0.0342
     32 C         -15.7611   -5.1331   17.2993 C.ar    1  UNL1        0.0131
     33 C         -17.0934   -5.1380   17.9885 C.ar    1  UNL1        0.0090
     34 C         -17.5229   -6.3362   18.7821 C.ar    1  UNL1        0.0680
     35 C         -16.6200   -7.5295   18.8865 C.ar    1  UNL1        0.0090
     36 C         -15.2878   -7.5246   18.1973 C.ar    1  UNL1        0.0131
     37 C         -14.3849   -8.7179   18.3018 C.3     1  UNL1        0.0342
     38 C         -14.8583   -6.3264   17.4037 C.ar    1  UNL1        0.1392
     39 C         -18.8552   -6.3411   19.4713 C.1     1  UNL1        0.1004
     40 N         -20.1876   -6.3458   20.1603 N.1     1  UNL1       -0.1908
@<TRIPOS>BOND
     1    31    32    1
     2    32    33   ar
     3    33    34   ar
     4    34    39    1
     5    39    40    3
     6    34    35   ar
     7    35    36   ar
     8    36    37    1
     9    36    38   ar
    10    38    30    1
    11    30     1    1
    12     1     2   ar
    13     2     3   ar
    14     3    10    1
    15    10    12    1
    16    12    13    1
    17    13    14    1
    18    14    15    1
    19    15    18    1
    20    18    19    1
    21    19    20   ar
    22    20    21   ar
    23    21    22   ar
    24    22    25    1
    25    25    26   am
    26    25    27    2
    27    22    23   ar
    28    23    24   ar
    29    15    16    1
    30    16    17    1
    31     3     4   ar
    32     4     5   ar
    33     5     6   ar
    34     6     7    1
    35     7     8    1
    36     8     9    1
    37    38    32   ar
    38     6     1   ar
    39    17    12    1
    40     9     5    1
    41    24    19   ar
    42    10    11    1
    43    26    28    1
    44    26    29    1
@<TRIPOS>MOLECULE
*****
 40 44 0 0 0
SMALL
GASTEIGER

@<TRIPOS>ATOM
      1 C           3.3946   -0.6257   19.1789 C.ar    1  UNL1        0.2314
      2 N           2.5117    0.5781   19.3258 N.ar    1  UNL1       -0.1788
      3 C           2.8767    1.8635   18.6445 C.ar    1  UNL1        0.2191
      4 N           4.1246    1.9453   17.8162 N.ar    1  UNL1       -0.2157
      5 C           5.0075    0.7416   17.6693 C.ar    1  UNL1        0.0945
      6 C           4.6425   -0.5439   18.3506 C.ar    1  UNL1        0.0770
      7 C           5.6997   -1.5572   18.0258 C.3     1  UNL1        0.1750
      8 O           6.7181   -0.8979   17.1436 O.3     1  UNL1       -0.3424
      9 C           6.2903    0.5228   16.9233 C.3     1  UNL1        0.1879
     10 N           1.9938    3.0673   18.7913 N.pl3   1  UNL1       -0.3045
     11 H           1.9318    3.7244   18.0608 H       1  UNL1        0.1496
     12 C           1.2055    3.2699   20.0513 C.3     1  UNL1        0.0745
     13 C           1.7903    4.0620   21.1829 C.3     1  UNL1        0.0369
     14 C           1.0019    4.2646   22.4428 C.3     1  UNL1        0.0741
     15 N          -0.3714    3.6749   22.5711 N.3     1  UNL1       -0.2689
     16 C          -0.9562    2.8828   21.4396 C.3     1  UNL1        0.0741
     17 C          -0.1678    2.6802   20.1796 C.3     1  UNL1        0.0369
     18 C          -1.1598    3.8774   23.8310 C.3     1  UNL1        0.0991
     19 C          -0.9634    2.9525   24.9955 C.ar    1  UNL1       -0.0061
     20 C           0.0058    1.8124   24.8926 C.ar    1  UNL1       -0.0028
     21 C           0.2021    0.8875   26.0571 C.ar    1  UNL1        0.0042
     22 C          -0.5708    1.1027   27.3245 C.ar    1  UNL1        0.0531
     23 C          -1.5401    2.2429   27.4274 C.ar    1  UNL1        0.0042
     24 C          -1.7364    3.1677   26.2629 C.ar    1  UNL1       -0.0028
     25 C          -0.3744    0.1778   28.4890 C.2     1  UNL1        0.2427
     26 N           0.9119   -0.5794   28.6367 N.am    1  UNL1       -0.3253
     27 O          -1.4644    0.0101   29.5057 O.2     1  UNL1       -0.2704
     28 H           1.6273   -0.4693   27.9693 H       1  UNL1        0.1453
     29 H           1.0409   -1.1864   29.4009 H       1  UNL1        0.1453
     30 O           3.0295   -1.9112   19.8603 O.3     1  UNL1       -0.4369
     31 C           2.8266   -0.4452   22.4699 C.3     1  UNL1        0.0342
     32 C           3.7155   -1.6477   22.3523 C.ar    1  UNL1        0.0131
     33 C           4.5030   -2.1173   23.5395 C.ar    1  UNL1        0.0090
     34 C           5.3919   -3.3198   23.4219 C.ar    1  UNL1        0.0680
     35 C           5.4933   -4.0527   22.1171 C.ar    1  UNL1        0.0090
     36 C           4.7058   -3.5832   20.9299 C.ar    1  UNL1        0.0131
     37 C           4.8073   -4.3162   19.6251 C.3     1  UNL1        0.0342
     38 C           3.8169   -2.3807   21.0475 C.ar    1  UNL1        0.1392
     39 C           6.1793   -3.7893   24.6092 C.1     1  UNL1        0.1004
     40 N           6.9668   -4.2586   25.7964 N.1     1  UNL1       -0.1908
@<TRIPOS>BOND
     1    31    32    1
     2    32    33   ar
     3    33    34   ar
     4    34    39    1
     5    39    40    3
     6    34    35   ar
     7    35    36   ar
     8    36    37    1
     9    36    38   ar
    10    38    30    1
    11    30     1    1
    12     1     2   ar
    13     2     3   ar
    14     3    10    1
    15    10    12    1
    16    12    13    1
    17    13    14    1
    18    14    15    1
    19    15    18    1
    20    18    19    1
    21    19    20   ar
    22    20    21   ar
    23    21    22   ar
    24    22    25    1
    25    25    26   am
    26    25    27    2
    27    22    23   ar
    28    23    24   ar
    29    15    16    1
    30    16    17    1
    31     3     4   ar
    32     4     5   ar
    33     5     6   ar
    34     6     7    1
    35     7     8    1
    36     8     9    1
    37    38    32   ar
    38     6     1   ar
    39    17    12    1
    40     9     5    1
    41    24    19   ar
    42    10    11    1
    43    26    28    1
    44    26    29    1
@<TRIPOS>MOLECULE
*****
 40 44 0 0 0
SMALL
GASTEIGER

@<TRIPOS>ATOM
      1 C         -12.8077   -5.8972   17.6317 C.ar    1  UNL1        0.2314
      2 N         -12.8410   -4.4936   18.1597 N.ar    1  UNL1       -0.1788
      3 C         -11.6381   -3.9236   18.8511 C.ar    1  UNL1        0.2191
      4 N         -10.4018   -4.7572   19.0145 N.ar    1  UNL1       -0.2157
      5 C         -10.3685   -6.1608   18.4866 C.ar    1  UNL1        0.0945
      6 C         -11.5714   -6.7308   17.7952 C.ar    1  UNL1        0.0770
      7 C         -11.2461   -8.1354   17.3814 C.3     1  UNL1        0.1750
      8 O          -9.8420   -8.4335   17.8170 O.3     1  UNL1       -0.3424
      9 C          -9.2996   -7.2131   18.5001 C.3     1  UNL1        0.1879
     10 N         -11.6714   -2.5199   19.3791 N.pl3   1  UNL1       -0.3045
     11 H         -10.8594   -2.1204   19.7668 H       1  UNL1        0.1496
     12 C         -12.9418   -1.7250   19.3162 C.3     1  UNL1        0.0745
     13 C         -12.9897   -0.4483   18.5301 C.3     1  UNL1        0.0369
     14 C         -14.2602    0.3466   18.4673 C.3     1  UNL1        0.0741
     15 N         -15.4829   -0.1351   19.1906 N.3     1  UNL1       -0.2689
     16 C         -15.4350   -1.4117   19.9766 C.3     1  UNL1        0.0741
     17 C         -14.1645   -2.2067   20.0395 C.3     1  UNL1        0.0369
     18 C         -16.7533    0.6598   19.1278 C.3     1  UNL1        0.0991
     19 C         -17.3788    1.1752   20.3900 C.ar    1  UNL1       -0.0061
     20 C         -18.7881    0.7967   20.7374 C.ar    1  UNL1       -0.0028
     21 C         -19.4135    1.3122   21.9997 C.ar    1  UNL1        0.0042
     22 C         -18.6297    2.2060   22.9145 C.ar    1  UNL1        0.0531
     23 C         -17.2204    2.5844   22.5670 C.ar    1  UNL1        0.0042
     24 C         -16.5950    2.0690   21.3047 C.ar    1  UNL1       -0.0028
     25 C         -19.2552    2.7213   24.1767 C.2     1  UNL1        0.2427
     26 N         -18.7317    3.9731   24.8161 N.am    1  UNL1       -0.3253
     27 O         -20.4040    1.9849   24.7994 O.2     1  UNL1       -0.2704
     28 H         -17.9777    4.4564   24.4074 H       1  UNL1        0.1453
     29 H         -19.1422    4.3114   25.6446 H       1  UNL1        0.1453
     30 O         -14.0107   -6.4672   16.9403 O.3     1  UNL1       -0.4369
     31 C         -14.5889   -9.1061   18.2449 C.3     1  UNL1        0.0342
     32 C         -15.5781   -7.9837   18.3522 C.ar    1  UNL1        0.0131
     33 C         -16.8565   -8.1807   19.1117 C.ar    1  UNL1        0.0090
     34 C         -17.8458   -7.0583   19.2190 C.ar    1  UNL1        0.0680
     35 C         -17.5567   -5.7388   18.5667 C.ar    1  UNL1        0.0090
     36 C         -16.2783   -5.5418   17.8071 C.ar    1  UNL1        0.0131
     37 C         -15.9892   -4.2224   17.1548 C.3     1  UNL1        0.0342
     38 C         -15.2890   -6.6643   17.6999 C.ar    1  UNL1        0.1392
     39 C         -19.1242   -7.2554   19.9786 C.1     1  UNL1        0.1004
     40 N         -20.4025   -7.4524   20.7382 N.1     1  UNL1       -0.1908
@<TRIPOS>BOND
     1    31    32    1
     2    32    33   ar
     3    33    34   ar
     4    34    39    1
     5    39    40    3
     6    34    35   ar
     7    35    36   ar
     8    36    37    1
     9    36    38   ar
    10    38    30    1
    11    30     1    1
    12     1     2   ar
    13     2     3   ar
    14     3    10    1
    15    10    12    1
    16    12    13    1
    17    13    14    1
    18    14    15    1
    19    15    18    1
    20    18    19    1
    21    19    20   ar
    22    20    21   ar
    23    21    22   ar
    24    22    25    1
    25    25    26   am
    26    25    27    2
    27    22    23   ar
    28    23    24   ar
    29    15    16    1
    30    16    17    1
    31     3     4   ar
    32     4     5   ar
    33     5     6   ar
    34     6     7    1
    35     7     8    1
    36     8     9    1
    37    38    32   ar
    38     6     1   ar
    39    17    12    1
    40     9     5    1
    41    24    19   ar
    42    10    11    1
    43    26    28    1
    44    26    29    1
@<TRIPOS>MOLECULE
*****
 40 44 0 0 0
SMALL
GASTEIGER

@<TRIPOS>ATOM
      1 C           5.1860   -0.8100   30.9795 C.ar    1  UNL1        0.2314
      2 N           4.0836   -1.0093   29.9819 N.ar    1  UNL1       -0.1788
      3 C           2.6974   -0.5257   30.2893 C.ar    1  UNL1        0.2191
      4 N           2.4135    0.1571   31.5943 N.ar    1  UNL1       -0.2157
      5 C           3.5157    0.3563   32.5919 C.ar    1  UNL1        0.0945
      6 C           4.9020   -0.1272   32.2845 C.ar    1  UNL1        0.0770
      7 C           5.7797    0.2076   33.4539 C.3     1  UNL1        0.1750
      8 O           4.9359    0.8982   34.4840 O.3     1  UNL1       -0.3424
      9 C           3.5367    0.9901   33.9513 C.3     1  UNL1        0.1879
     10 N           1.5951   -0.7250   29.2916 N.pl3   1  UNL1       -0.3045
     11 H           1.3469   -1.6342   29.0072 H       1  UNL1        0.1496
     12 C           0.8709    0.4613   28.7274 C.3     1  UNL1        0.0745
     13 C          -0.5902    0.3631   28.4022 C.3     1  UNL1        0.0369
     14 C          -1.3144    1.5493   27.8379 C.3     1  UNL1        0.0741
     15 N          -0.5774    2.8338   27.5988 N.3     1  UNL1       -0.2689
     16 C           0.8835    2.9321   27.9240 C.3     1  UNL1        0.0741
     17 C           1.6077    1.7457   28.4883 C.3     1  UNL1        0.0369
     18 C          -1.3016    4.0201   27.0346 C.3     1  UNL1        0.0991
     19 C          -2.2361    3.8460   25.8742 C.ar    1  UNL1       -0.0061
     20 C          -3.7193    3.8570   26.0975 C.ar    1  UNL1       -0.0028
     21 C          -4.6538    3.6829   24.9371 C.ar    1  UNL1        0.0042
     22 C          -4.1050    3.4978   23.5534 C.ar    1  UNL1        0.0531
     23 C          -2.6218    3.4868   23.3301 C.ar    1  UNL1        0.0042
     24 C          -1.6873    3.6609   24.4905 C.ar    1  UNL1       -0.0028
     25 C          -5.0395    3.3238   22.3930 C.2     1  UNL1        0.2427
     26 N          -4.5895    2.5752   21.1735 N.am    1  UNL1       -0.3253
     27 O          -6.4238    3.8983   22.4521 O.2     1  UNL1       -0.2704
     28 H          -3.6809    2.1981   21.1348 H       1  UNL1        0.1453
     29 H          -5.2028    2.4609   20.4119 H       1  UNL1        0.1453
     30 O           6.5722   -1.2936   30.6720 O.3     1  UNL1       -0.4369
     31 C           6.5399   -3.9477   32.0703 C.3     1  UNL1        0.0342
     32 C           6.7529   -3.8840   30.5869 C.ar    1  UNL1        0.0131
     33 C           6.9498   -5.1473   29.8025 C.ar    1  UNL1        0.0090
     34 C           7.1628   -5.0836   28.3191 C.ar    1  UNL1        0.0680
     35 C           7.1790   -3.7566   27.6200 C.ar    1  UNL1        0.0090
     36 C           6.9821   -2.4933   28.4043 C.ar    1  UNL1        0.0131
     37 C           6.9983   -1.1663   27.7052 C.3     1  UNL1        0.0342
     38 C           6.7691   -2.5570   29.8878 C.ar    1  UNL1        0.1392
     39 C           7.3597   -6.3471   27.5348 C.1     1  UNL1        0.1004
     40 N           7.5566   -7.6104   26.7504 N.1     1  UNL1       -0.1908
@<TRIPOS>BOND
     1    31    32    1
     2    32    33   ar
     3    33    34   ar
     4    34    39    1
     5    39    40    3
     6    34    35   ar
     7    35    36   ar
     8    36    37    1
     9    36    38   ar
    10    38    30    1
    11    30     1    1
    12     1     2   ar
    13     2     3   ar
    14     3    10    1
    15    10    12    1
    16    12    13    1
    17    13    14    1
    18    14    15    1
    19    15    18    1
    20    18    19    1
    21    19    20   ar
    22    20    21   ar
    23    21    22   ar
    24    22    25    1
    25    25    26   am
    26    25    27    2
    27    22    23   ar
    28    23    24   ar
    29    15    16    1
    30    16    17    1
    31     3     4   ar
    32     4     5   ar
    33     5     6   ar
    34     6     7    1
    35     7     8    1
    36     8     9    1
    37    38    32   ar
    38     6     1   ar
    39    17    12    1
    40     9     5    1
    41    24    19   ar
    42    10    11    1
    43    26    28    1
    44    26    29    1
@<TRIPOS>MOLECULE
*****
 40 44 0 0 0
SMALL
GASTEIGER

@<TRIPOS>ATOM
      1 C          -4.0508    3.1698   21.2142 C.ar    1  UNL1        0.2314
      2 N          -2.5533    3.2551   21.2358 N.ar    1  UNL1       -0.1788
      3 C          -1.8124    3.7428   20.0262 C.ar    1  UNL1        0.2191
      4 N          -2.5688    4.1451   18.7950 N.ar    1  UNL1       -0.2157
      5 C          -4.0662    4.0598   18.7734 C.ar    1  UNL1        0.0945
      6 C          -4.8072    3.5722   19.9830 C.ar    1  UNL1        0.0770
      7 C          -6.2737    3.5956   19.6689 C.3     1  UNL1        0.1750
      8 O          -6.4391    4.0977   18.2652 O.3     1  UNL1       -0.3424
      9 C          -5.0748    4.3847   17.7117 C.3     1  UNL1        0.1879
     10 N          -0.3149    3.8281   20.0478 N.pl3   1  UNL1       -0.3045
     11 H           0.1265    4.6806   20.2659 H       1  UNL1        0.1496
     12 C           0.5100    2.6144   19.7370 C.3     1  UNL1        0.0745
     13 C           0.1328    1.2829   20.3158 C.3     1  UNL1        0.0369
     14 C           0.9577    0.0692   20.0050 C.3     1  UNL1        0.0741
     15 N           2.1597    0.1870   19.1155 N.3     1  UNL1       -0.2689
     16 C           2.5369    1.5184   18.5367 C.3     1  UNL1        0.0741
     17 C           1.7120    2.7321   18.8475 C.3     1  UNL1        0.0369
     18 C           2.9846   -1.0267   18.8047 C.3     1  UNL1        0.0991
     19 C           3.7252   -1.7313   19.9024 C.ar    1  UNL1       -0.0061
     20 C           4.3252   -0.9429   21.0286 C.ar    1  UNL1       -0.0028
     21 C           5.0658   -1.6476   22.1263 C.ar    1  UNL1        0.0042
     22 C           5.2064   -3.1407   22.0978 C.ar    1  UNL1        0.0531
     23 C           4.6063   -3.9292   20.9717 C.ar    1  UNL1        0.0042
     24 C           3.8657   -3.2244   19.8740 C.ar    1  UNL1       -0.0028
     25 C           5.9470   -3.8454   23.1956 C.2     1  UNL1        0.2427
     26 N           5.7202   -3.4528   24.6253 N.am    1  UNL1       -0.3253
     27 O           6.9144   -4.9426   22.8634 O.2     1  UNL1       -0.2704
     28 H           5.0853   -2.7326   24.8433 H       1  UNL1        0.1453
     29 H           6.2063   -3.9152   25.3458 H       1  UNL1        0.1453
     30 O          -4.7917    2.6821   22.4239 O.3     1  UNL1       -0.4369
     31 C          -2.4978    2.9342   24.3409 C.3     1  UNL1        0.0342
     32 C          -3.7702    3.6883   24.5904 C.ar    1  UNL1        0.0131
     33 C          -3.8957    4.5686   25.7985 C.ar    1  UNL1        0.0090
     34 C          -5.1680    5.3227   26.0481 C.ar    1  UNL1        0.0680
     35 C          -6.3150    5.1967   25.0896 C.ar    1  UNL1        0.0090
     36 C          -6.1895    4.3164   23.8815 C.ar    1  UNL1        0.0131
     37 C          -7.3364    4.1904   22.9230 C.3     1  UNL1        0.0342
     38 C          -4.9171    3.5623   23.6320 C.ar    1  UNL1        0.1392
     39 C          -5.2934    6.2030   27.2562 C.1     1  UNL1        0.1004
     40 N          -5.4189    7.0831   28.4644 N.1     1  UNL1       -0.1908
@<TRIPOS>BOND
     1    31    32    1
     2    32    33   ar
     3    33    34   ar
     4    34    39    1
     5    39    40    3
     6    34    35   ar
     7    35    36   ar
     8    36    37    1
     9    36    38   ar
    10    38    30    1
    11    30     1    1
    12     1     2   ar
    13     2     3   ar
    14     3    10    1
    15    10    12    1
    16    12    13    1
    17    13    14    1
    18    14    15    1
    19    15    18    1
    20    18    19    1
    21    19    20   ar
    22    20    21   ar
    23    21    22   ar
    24    22    25    1
    25    25    26   am
    26    25    27    2
    27    22    23   ar
    28    23    24   ar
    29    15    16    1
    30    16    17    1
    31     3     4   ar
    32     4     5   ar
    33     5     6   ar
    34     6     7    1
    35     7     8    1
    36     8     9    1
    37    38    32   ar
    38     6     1   ar
    39    17    12    1
    40     9     5    1
    41    24    19   ar
    42    10    11    1
    43    26    28    1
    44    26    29    1
@<TRIPOS>MOLECULE
*****
 40 44 0 0 0
SMALL
GASTEIGER

@<TRIPOS>ATOM
      1 C           4.9513   -0.9156   29.8587 C.ar    1  UNL1        0.2314
      2 N           3.8098   -1.0033   28.8895 N.ar    1  UNL1       -0.1788
      3 C           2.4384   -0.5586   29.3036 C.ar    1  UNL1        0.2191
      4 N           2.2085   -0.0263   30.6870 N.ar    1  UNL1       -0.2157
      5 C           3.3499    0.0614   31.6562 C.ar    1  UNL1        0.0945
      6 C           4.7213   -0.3832   31.2420 C.ar    1  UNL1        0.0770
      7 C           5.6457   -0.1801   32.4058 C.3     1  UNL1        0.1750
      8 O           4.8455    0.3900   33.5392 O.3     1  UNL1       -0.3424
      9 C           3.4267    0.5393   33.0759 C.3     1  UNL1        0.1879
     10 N           1.2969   -0.6463   28.3344 N.pl3   1  UNL1       -0.3045
     11 H           1.0500   -1.5148   27.9419 H       1  UNL1        0.1496
     12 C           0.5316    0.5892   27.9633 C.3     1  UNL1        0.0745
     13 C           1.2625    1.8098   27.4880 C.3     1  UNL1        0.0369
     14 C           0.4971    3.0454   27.1169 C.3     1  UNL1        0.0741
     15 N          -0.9992    3.0603   27.2213 N.3     1  UNL1       -0.2689
     16 C          -1.7301    1.8398   27.6966 C.3     1  UNL1        0.0741
     17 C          -0.9647    0.6042   28.0677 C.3     1  UNL1        0.0369
     18 C          -1.7646    4.2958   26.8502 C.3     1  UNL1        0.0991
     19 C          -2.8912    4.2121   25.8635 C.ar    1  UNL1       -0.0061
     20 C          -2.6485    3.6509   24.4938 C.ar    1  UNL1       -0.0028
     21 C          -3.7753    3.5673   23.5071 C.ar    1  UNL1        0.0042
     22 C          -5.1447    4.0448   23.8901 C.ar    1  UNL1        0.0531
     23 C          -5.3874    4.6060   25.2599 C.ar    1  UNL1        0.0042
     24 C          -4.2606    4.6896   26.2465 C.ar    1  UNL1       -0.0028
     25 C          -6.2714    3.9611   22.9034 C.2     1  UNL1        0.2427
     26 N          -7.6877    3.8678   23.3886 N.am    1  UNL1       -0.3253
     27 O          -5.9818    3.9707   21.4317 O.2     1  UNL1       -0.2704
     28 H          -7.8777    3.8615   24.3545 H       1  UNL1        0.1453
     29 H          -8.4272    3.8129   22.7410 H       1  UNL1        0.1453
     30 O           6.3227   -1.3602   29.4444 O.3     1  UNL1       -0.4369
     31 C           6.4359   -1.5349   26.4516 C.3     1  UNL1        0.0342
     32 C           6.5668   -2.7779   27.2810 C.ar    1  UNL1        0.0131
     33 C           6.7543   -4.1083   26.6140 C.ar    1  UNL1        0.0090
     34 C           6.8852   -5.3513   27.4433 C.ar    1  UNL1        0.0680
     35 C           6.8286   -5.2639   28.9397 C.ar    1  UNL1        0.0090
     36 C           6.6411   -3.9335   29.6067 C.ar    1  UNL1        0.0131
     37 C           6.5846   -3.8462   31.1031 C.3     1  UNL1        0.0342
     38 C           6.5102   -2.6905   28.7773 C.ar    1  UNL1        0.1392
     39 C           7.0727   -6.6817   26.7762 C.1     1  UNL1        0.1004
     40 N           7.2602   -8.0120   26.1089 N.1     1  UNL1       -0.1908
@<TRIPOS>BOND
     1    31    32    1
     2    32    33   ar
     3    33    34   ar
     4    34    39    1
     5    39    40    3
     6    34    35   ar
     7    35    36   ar
     8    36    37    1
     9    36    38   ar
    10    38    30    1
    11    30     1    1
    12     1     2   ar
    13     2     3   ar
    14     3    10    1
    15    10    12    1
    16    12    13    1
    17    13    14    1
    18    14    15    1
    19    15    18    1
    20    18    19    1
    21    19    20   ar
    22    20    21   ar
    23    21    22   ar
    24    22    25    1
    25    25    26   am
    26    25    27    2
    27    22    23   ar
    28    23    24   ar
    29    15    16    1
    30    16    17    1
    31     3     4   ar
    32     4     5   ar
    33     5     6   ar
    34     6     7    1
    35     7     8    1
    36     8     9    1
    37    38    32   ar
    38     6     1   ar
    39    17    12    1
    40     9     5    1
    41    24    19   ar
    42    10    11    1
    43    26    28    1
    44    26    29    1
@<TRIPOS>MOLECULE
*****
 40 44 0 0 0
SMALL
GASTEIGER

@<TRIPOS>ATOM
      1 C         -13.0311   -3.3423   18.6425 C.ar    1  UNL1        0.2314
      2 N         -14.1986   -2.4549   18.3273 N.ar    1  UNL1       -0.1788
      3 C         -14.0660   -1.3820   17.2875 C.ar    1  UNL1        0.2191
      4 N         -12.7658   -1.1964   16.5628 N.ar    1  UNL1       -0.2157
      5 C         -11.5983   -2.0838   16.8781 C.ar    1  UNL1        0.0945
      6 C         -11.7309   -3.1567   17.9179 C.ar    1  UNL1        0.0770
      7 C         -10.4169   -3.8736   18.0145 C.3     1  UNL1        0.1750
      8 O          -9.4721   -3.2438   17.0343 O.3     1  UNL1       -0.3424
      9 C         -10.2023   -2.1376   16.3319 C.3     1  UNL1        0.1879
     10 N         -15.2336   -0.4946   16.9722 N.pl3   1  UNL1       -0.3045
     11 H         -15.6672   -0.5464   16.0898 H       1  UNL1        0.1496
     12 C         -15.7405    0.4718   18.0014 C.3     1  UNL1        0.0745
     13 C         -16.2264   -0.0318   19.3281 C.3     1  UNL1        0.0369
     14 C         -16.7333    0.9345   20.3573 C.3     1  UNL1        0.0741
     15 N         -16.7543    2.4046   20.0597 N.3     1  UNL1       -0.2689
     16 C         -16.2684    2.9082   18.7330 C.3     1  UNL1        0.0741
     17 C         -15.7615    1.9418   17.7038 C.3     1  UNL1        0.0369
     18 C         -17.2612    3.3709   21.0889 C.3     1  UNL1        0.0991
     19 C         -16.3402    3.8796   22.1580 C.ar    1  UNL1       -0.0061
     20 C         -16.7444    3.7924   23.5999 C.ar    1  UNL1       -0.0028
     21 C         -15.8233    4.3011   24.6690 C.ar    1  UNL1        0.0042
     22 C         -14.4981    4.8969   24.2963 C.ar    1  UNL1        0.0531
     23 C         -14.0939    4.9840   22.8544 C.ar    1  UNL1        0.0042
     24 C         -15.0150    4.4753   21.7853 C.ar    1  UNL1       -0.0028
     25 C         -13.5771    5.4055   25.3654 C.2     1  UNL1        0.2427
     26 N         -14.0884    6.3590   26.4043 N.am    1  UNL1       -0.3253
     27 O         -12.1450    4.9605   25.3956 O.2     1  UNL1       -0.2704
     28 H         -15.0283    6.6511   26.3844 H       1  UNL1        0.1453
     29 H         -13.4839    6.6929   27.1060 H       1  UNL1        0.1453
     30 O         -13.1637   -4.4152   19.6824 O.3     1  UNL1       -0.4369
     31 C         -11.8309   -6.8981   18.6534 C.3     1  UNL1        0.0342
     32 C         -13.3134   -6.8821   18.8813 C.ar    1  UNL1        0.0131
     33 C         -14.1295   -8.1076   18.5946 C.ar    1  UNL1        0.0090
     34 C         -15.6120   -8.0916   18.8224 C.ar    1  UNL1        0.0680
     35 C         -16.2784   -6.8501   19.3369 C.ar    1  UNL1        0.0090
     36 C         -15.4623   -5.6247   19.6236 C.ar    1  UNL1        0.0131
     37 C         -16.1287   -4.3832   20.1380 C.3     1  UNL1        0.0342
     38 C         -13.9798   -5.6407   19.3957 C.ar    1  UNL1        0.1392
     39 C         -16.4281   -9.3171   18.5357 C.1     1  UNL1        0.1004
     40 N         -17.2441  -10.5426   18.2489 N.1     1  UNL1       -0.1908
@<TRIPOS>BOND
     1    31    32    1
     2    32    33   ar
     3    33    34   ar
     4    34    39    1
     5    39    40    3
     6    34    35   ar
     7    35    36   ar
     8    36    37    1
     9    36    38   ar
    10    38    30    1
    11    30     1    1
    12     1     2   ar
    13     2     3   ar
    14     3    10    1
    15    10    12    1
    16    12    13    1
    17    13    14    1
    18    14    15    1
    19    15    18    1
    20    18    19    1
    21    19    20   ar
    22    20    21   ar
    23    21    22   ar
    24    22    25    1
    25    25    26   am
    26    25    27    2
    27    22    23   ar
    28    23    24   ar
    29    15    16    1
    30    16    17    1
    31     3     4   ar
    32     4     5   ar
    33     5     6   ar
    34     6     7    1
    35     7     8    1
    36     8     9    1
    37    38    32   ar
    38     6     1   ar
    39    17    12    1
    40     9     5    1
    41    24    19   ar
    42    10    11    1
    43    26    28    1
    44    26    29    1
@<TRIPOS>MOLECULE
*****
 40 44 0 0 0
SMALL
GASTEIGER

@<TRIPOS>ATOM
      1 C          -1.3545    3.9535   22.4545 C.ar    1  UNL1        0.2314
      2 N          -0.3440    3.5852   21.4089 N.ar    1  UNL1       -0.1788
      3 C          -0.7984    3.1411   20.0502 C.ar    1  UNL1        0.2191
      4 N          -2.2634    3.0653   19.7370 N.ar    1  UNL1       -0.2157
      5 C          -3.2739    3.4336   20.7826 C.ar    1  UNL1        0.0945
      6 C          -2.8194    3.8777   22.1413 C.ar    1  UNL1        0.0770
      7 C          -4.0382    4.1756   22.9634 C.3     1  UNL1        0.1750
      8 O          -5.2460    3.9156   22.1127 O.3     1  UNL1       -0.3424
      9 C          -4.7736    3.4570   20.7649 C.3     1  UNL1        0.1879
     10 N           0.2121    2.7728   19.0046 N.pl3   1  UNL1       -0.3045
     11 H           0.3478    3.3569   18.2238 H       1  UNL1        0.1496
     12 C           1.0157    1.5145   19.1486 C.3     1  UNL1        0.0745
     13 C           0.4810    0.3716   19.9599 C.3     1  UNL1        0.0369
     14 C           1.2846   -0.8867   20.1039 C.3     1  UNL1        0.0741
     15 N           2.6232   -1.0021   19.4367 N.3     1  UNL1       -0.2689
     16 C           3.1579    0.1406   18.6256 C.3     1  UNL1        0.0741
     17 C           2.3542    1.3989   18.4815 C.3     1  UNL1        0.0369
     18 C           3.4268   -2.2604   19.5808 C.3     1  UNL1        0.0991
     19 C           4.1099   -2.5695   20.8800 C.ar    1  UNL1       -0.0061
     20 C           5.1801   -3.6191   20.9336 C.ar    1  UNL1       -0.0028
     21 C           5.8632   -3.9281   22.2329 C.ar    1  UNL1        0.0042
     22 C           5.4760   -3.1875   23.4785 C.ar    1  UNL1        0.0531
     23 C           4.4058   -2.1379   23.4249 C.ar    1  UNL1        0.0042
     24 C           3.7228   -1.8289   22.1256 C.ar    1  UNL1       -0.0028
     25 C           6.1591   -3.4965   24.7777 C.2     1  UNL1        0.2427
     26 N           5.7466   -2.7820   26.0304 N.am    1  UNL1       -0.3253
     27 O           7.2547   -4.5200   24.8242 O.2     1  UNL1       -0.2704
     28 H           5.0275   -2.1102   25.9998 H       1  UNL1        0.1453
     29 H           6.1949   -2.9848   26.8831 H       1  UNL1        0.1453
     30 O          -0.8999    4.3977   23.8133 O.3     1  UNL1       -0.4369
     31 C          -2.7959    4.7669   26.1088 C.3     1  UNL1        0.0342
     32 C          -1.8402    3.6109   26.1039 C.ar    1  UNL1        0.0131
     33 C          -1.8324    2.6394   27.2468 C.ar    1  UNL1        0.0090
     34 C          -0.8767    1.4833   27.2419 C.ar    1  UNL1        0.0680
     35 C           0.0713    1.2987   26.0942 C.ar    1  UNL1        0.0090
     36 C           0.0635    2.2702   24.9514 C.ar    1  UNL1        0.0131
     37 C           1.0115    2.0855   23.8037 C.3     1  UNL1        0.0342
     38 C          -0.8922    3.4262   24.9562 C.ar    1  UNL1        0.1392
     39 C          -0.8690    0.5118   28.3849 C.1     1  UNL1        0.1004
     40 N          -0.8613   -0.4595   29.5279 N.1     1  UNL1       -0.1908
@<TRIPOS>BOND
     1    31    32    1
     2    32    33   ar
     3    33    34   ar
     4    34    39    1
     5    39    40    3
     6    34    35   ar
     7    35    36   ar
     8    36    37    1
     9    36    38   ar
    10    38    30    1
    11    30     1    1
    12     1     2   ar
    13     2     3   ar
    14     3    10    1
    15    10    12    1
    16    12    13    1
    17    13    14    1
    18    14    15    1
    19    15    18    1
    20    18    19    1
    21    19    20   ar
    22    20    21   ar
    23    21    22   ar
    24    22    25    1
    25    25    26   am
    26    25    27    2
    27    22    23   ar
    28    23    24   ar
    29    15    16    1
    30    16    17    1
    31     3     4   ar
    32     4     5   ar
    33     5     6   ar
    34     6     7    1
    35     7     8    1
    36     8     9    1
    37    38    32   ar
    38     6     1   ar
    39    17    12    1
    40     9     5    1
    41    24    19   ar
    42    10    11    1
    43    26    28    1
    44    26    29    1
@<TRIPOS>MOLECULE
*****
 40 44 0 0 0
SMALL
GASTEIGER

@<TRIPOS>ATOM
      1 C          -1.8033    4.0242   22.8901 C.ar    1  UNL1        0.2314
      2 N          -0.8448    3.7525   21.7687 N.ar    1  UNL1       -0.1788
      3 C          -1.3564    3.2586   20.4480 C.ar    1  UNL1        0.2191
      4 N          -2.8263    3.0364   20.2486 N.ar    1  UNL1       -0.2157
      5 C          -3.7848    3.3081   21.3700 C.ar    1  UNL1        0.0945
      6 C          -3.2733    3.8020   22.6907 C.ar    1  UNL1        0.0770
      7 C          -4.4486    3.9819   23.6052 C.3     1  UNL1        0.1750
      8 O          -5.6866    3.5991   22.8495 O.3     1  UNL1       -0.3424
      9 C          -5.2763    3.1827   21.4681 C.3     1  UNL1        0.1879
     10 N          -0.3979    2.9868   19.3265 N.pl3   1  UNL1       -0.3045
     11 H          -0.3646    3.5912   18.5501 H       1  UNL1        0.1496
     12 C           0.5097    1.7942   19.3881 C.3     1  UNL1        0.0745
     13 C           1.7862    1.7815   18.6004 C.3     1  UNL1        0.0369
     14 C           2.6938    0.5889   18.6621 C.3     1  UNL1        0.0741
     15 N           2.3249   -0.5912   19.5114 N.3     1  UNL1       -0.2689
     16 C           1.0485   -0.5786   20.2991 C.3     1  UNL1        0.0741
     17 C           0.1409    0.6141   20.2374 C.3     1  UNL1        0.0369
     18 C           3.2325   -1.7839   19.5730 C.3     1  UNL1        0.0991
     19 C           3.8909   -2.1593   20.8675 C.ar    1  UNL1       -0.0061
     20 C           3.9951   -1.1533   21.9753 C.ar    1  UNL1       -0.0028
     21 C           4.6534   -1.5288   23.2698 C.ar    1  UNL1        0.0042
     22 C           5.2076   -2.9102   23.4565 C.ar    1  UNL1        0.0531
     23 C           5.1034   -3.9161   22.3486 C.ar    1  UNL1        0.0042
     24 C           4.4450   -3.5406   21.0542 C.ar    1  UNL1       -0.0028
     25 C           5.8659   -3.2856   24.7509 C.2     1  UNL1        0.2427
     26 N           5.5351   -2.5339   26.0061 N.am    1  UNL1       -0.3253
     27 O           6.8550   -4.4126   24.7902 O.2     1  UNL1       -0.2704
     28 H           4.8860   -1.7942   25.9803 H       1  UNL1        0.1453
     29 H           5.9672   -2.7803   26.8558 H       1  UNL1        0.1453
     30 O          -1.2917    4.5181   24.2109 O.3     1  UNL1       -0.4369
     31 C           1.4248    3.2611   24.0080 C.3     1  UNL1        0.0342
     32 C           0.5197    2.9108   25.1518 C.ar    1  UNL1        0.0131
     33 C           0.9728    1.9319   26.1941 C.ar    1  UNL1        0.0090
     34 C           0.0678    1.5815   27.3378 C.ar    1  UNL1        0.0680
     35 C          -1.2904    2.2100   27.4392 C.ar    1  UNL1        0.0090
     36 C          -1.7435    3.1889   26.3969 C.ar    1  UNL1        0.0131
     37 C          -3.1017    3.8174   26.4983 C.3     1  UNL1        0.0342
     38 C          -0.8385    3.5393   25.2532 C.ar    1  UNL1        0.1392
     39 C           0.5210    0.6026   28.3802 C.1     1  UNL1        0.1004
     40 N           0.9742   -0.3762   29.4225 N.1     1  UNL1       -0.1908
@<TRIPOS>BOND
     1    31    32    1
     2    32    33   ar
     3    33    34   ar
     4    34    39    1
     5    39    40    3
     6    34    35   ar
     7    35    36   ar
     8    36    37    1
     9    36    38   ar
    10    38    30    1
    11    30     1    1
    12     1     2   ar
    13     2     3   ar
    14     3    10    1
    15    10    12    1
    16    12    13    1
    17    13    14    1
    18    14    15    1
    19    15    18    1
    20    18    19    1
    21    19    20   ar
    22    20    21   ar
    23    21    22   ar
    24    22    25    1
    25    25    26   am
    26    25    27    2
    27    22    23   ar
    28    23    24   ar
    29    15    16    1
    30    16    17    1
    31     3     4   ar
    32     4     5   ar
    33     5     6   ar
    34     6     7    1
    35     7     8    1
    36     8     9    1
    37    38    32   ar
    38     6     1   ar
    39    17    12    1
    40     9     5    1
    41    24    19   ar
    42    10    11    1
    43    26    28    1
    44    26    29    1
