@<TRIPOS>MOLECULE
*****
 39 43 0 0 0
SMALL
GASTEIGER

@<TRIPOS>ATOM
      1 C           7.8195   -6.0576   31.1018 C.3     1  UNL1        0.1333
      2 N           7.2910   -4.8656   30.3603 N.ar    1  UNL1       -0.2950
      3 C           6.8435   -3.5723   30.9745 C.ar    1  UNL1        0.2019
      4 N           6.3932   -2.6651   29.8682 N.ar    1  UNL1       -0.2134
      5 C           6.5622   -3.3976   28.5702 C.ar    1  UNL1        0.1033
      6 C           6.2826   -3.0019   27.1506 C.ar    1  UNL1        0.0284
      7 C           6.5578   -3.9663   26.0351 C.ar    1  UNL1        0.0922
      8 C           7.1127   -5.3263   26.3392 C.ar    1  UNL1        0.1782
      9 C           7.3924   -5.7220   27.7589 C.ar    1  UNL1        0.1897
     10 C           7.1171   -4.7575   28.8743 C.ar    1  UNL1        0.1173
     11 O           7.9472   -7.0819   28.0630 O.3     1  UNL1       -0.4669
     12 C           8.2225   -8.0462   26.9476 C.3     1  UNL1        0.2527
     13 C           7.9429   -7.6506   25.5279 C.3     1  UNL1        0.2526
     14 O           7.3880   -6.2906   25.2238 O.3     1  UNL1       -0.4682
     15 C           6.2782   -3.5706   24.6155 C.2     1  UNL1        0.2526
     16 O           7.3946   -3.5303   23.6144 O.2     1  UNL1       -0.2697
     17 N           4.8823   -3.2153   24.1970 N.am    1  UNL1       -0.2802
     18 H           4.1496   -3.2417   24.8541 H       1  UNL1        0.1552
     19 C           4.6027   -2.8196   22.7774 C.ar    1  UNL1        0.0527
     20 C           4.2307   -1.4032   22.4530 C.ar    1  UNL1        0.0443
     21 C           3.9510   -1.0076   21.0334 C.ar    1  UNL1        0.1413
     22 F           3.5790    0.4089   20.7090 F       1  UNL1       -0.2041
     23 C           4.0434   -2.0283   19.9382 C.ar    1  UNL1        0.0336
     24 C           4.4155   -3.4449   20.2626 C.ar    1  UNL1        0.0749
     25 C           4.6951   -3.8405   21.6822 C.ar    1  UNL1        0.0187
     26 C           4.5078   -4.4656   19.1675 C.3     1  UNL1        0.4187
     27 F           4.6002   -5.4864   18.0723 F       1  UNL1       -0.1659
     28 F           5.5064   -3.6061   18.4505 F       1  UNL1       -0.1659
     29 F           3.5093   -5.3252   19.8844 F       1  UNL1       -0.1659
     30 N           6.8461   -3.2440   32.4382 N.pl3   1  UNL1       -0.2814
     31 H           7.2674   -3.8601   33.0802 H       1  UNL1        0.1551
     32 C           6.2066   -1.9770   32.9237 C.ar    1  UNL1        0.0889
     33 C           4.8272   -2.0107   33.5120 C.ar    1  UNL1        0.1543
     34 F           4.0873   -3.3114   33.6148 F       1  UNL1       -0.2028
     35 C           4.1877   -0.7436   33.9975 C.ar    1  UNL1        0.0310
     36 C           4.9277    0.5571   33.8947 C.ar    1  UNL1        0.0033
     37 C           6.3071    0.5908   33.3064 C.ar    1  UNL1        0.0128
     38 C           6.9465   -0.6762   32.8209 C.ar    1  UNL1        0.0733
     39 CL          8.3259   -0.6426   32.2326 Cl      1  UNL1       -0.0809
@<TRIPOS>BOND
     1     1     2    1
     2     2     3   ar
     3     3    30    1
     4    30    32    1
     5    32    33   ar
     6    33    34    1
     7    33    35   ar
     8    35    36   ar
     9    36    37   ar
    10    37    38   ar
    11    38    39    1
    12     3     4   ar
    13     4     5   ar
    14     5     6   ar
    15     6     7   ar
    16     7    15    1
    17    15    16    2
    18    15    17   am
    19    17    19    1
    20    19    20   ar
    21    20    21   ar
    22    21    22    1
    23    21    23   ar
    24    23    24   ar
    25    24    26    1
    26    26    27    1
    27    26    28    1
    28    26    29    1
    29    24    25   ar
    30     7     8   ar
    31     8     9   ar
    32     9    10   ar
    33     9    11    1
    34    11    12    1
    35    12    13    1
    36    13    14    1
    37    10     2   ar
    38    38    32   ar
    39    10     5   ar
    40    25    19   ar
    41    14     8    1
    42    30    31    1
    43    17    18    1
@<TRIPOS>MOLECULE
*****
 39 43 0 0 0
SMALL
GASTEIGER

@<TRIPOS>ATOM
      1 C           7.9774   -6.6780   29.5676 C.3     1  UNL1        0.1333
      2 N           7.3263   -5.4167   29.0824 N.ar    1  UNL1       -0.2950
      3 C           6.7355   -4.3412   29.9451 C.ar    1  UNL1        0.2019
      4 N           6.1958   -3.2694   29.0452 N.ar    1  UNL1       -0.2134
      5 C           6.4531   -3.6824   27.6263 C.ar    1  UNL1        0.1033
      6 C           6.1414   -3.0215   26.3164 C.ar    1  UNL1        0.0284
      7 C           6.5284   -3.6878   25.0294 C.ar    1  UNL1        0.0922
      8 C           7.2271   -5.0149   25.0524 C.ar    1  UNL1        0.1782
      9 C           7.5388   -5.6758   26.3624 C.ar    1  UNL1        0.1897
     10 C           7.1518   -5.0095   27.6494 C.ar    1  UNL1        0.1173
     11 O           8.2375   -7.0029   26.3854 O.3     1  UNL1       -0.4669
     12 C           8.6245   -7.6692   25.0984 C.3     1  UNL1        0.2527
     13 C           8.3128   -7.0083   23.7884 C.3     1  UNL1        0.2526
     14 O           7.6141   -5.6812   23.7654 O.3     1  UNL1       -0.4682
     15 C           6.2167   -3.0269   23.7194 C.2     1  UNL1        0.2526
     16 O           6.6188   -1.6009   23.4843 O.2     1  UNL1       -0.2697
     17 N           5.5031   -3.7918   22.6445 N.am    1  UNL1       -0.2802
     18 H           5.2392   -4.7277   22.7988 H       1  UNL1        0.1552
     19 C           5.1914   -3.1309   21.3345 C.ar    1  UNL1        0.0527
     20 C           6.1412   -3.2662   20.1815 C.ar    1  UNL1        0.0443
     21 C           5.8295   -2.6053   18.8715 C.ar    1  UNL1        0.1413
     22 F           6.7795   -2.7406   17.7184 F       1  UNL1       -0.2041
     23 C           4.5680   -1.8092   18.7145 C.ar    1  UNL1        0.0336
     24 C           3.6181   -1.6739   19.8676 C.ar    1  UNL1        0.0749
     25 C           3.9298   -2.3348   21.1776 C.ar    1  UNL1        0.0187
     26 C           2.3566   -0.8777   19.7106 C.3     1  UNL1        0.4187
     27 F           1.0951   -0.0816   19.5536 F       1  UNL1       -0.1659
     28 F           1.9899   -1.1782   21.1336 F       1  UNL1       -0.1659
     29 F           2.7233   -0.5772   18.2875 F       1  UNL1       -0.1659
     30 N           6.6920   -4.3382   31.4445 N.pl3   1  UNL1       -0.2814
     31 H           6.4686   -5.1637   31.9322 H       1  UNL1        0.1551
     32 C           6.9890   -3.0773   32.2009 C.ar    1  UNL1        0.0889
     33 C           5.8641   -2.2207   32.7018 C.ar    1  UNL1        0.1543
     34 F           4.4424   -2.6249   32.4465 F       1  UNL1       -0.2028
     35 C           6.1610   -0.9598   33.4582 C.ar    1  UNL1        0.0310
     36 C           7.5828   -0.5555   33.7135 C.ar    1  UNL1        0.0033
     37 C           8.7076   -1.4122   33.2125 C.ar    1  UNL1        0.0128
     38 C           8.4107   -2.6730   32.4562 C.ar    1  UNL1        0.0733
     39 CL          9.5355   -3.5296   31.9552 Cl      1  UNL1       -0.0809
@<TRIPOS>BOND
     1     1     2    1
     2     2     3   ar
     3     3    30    1
     4    30    32    1
     5    32    33   ar
     6    33    34    1
     7    33    35   ar
     8    35    36   ar
     9    36    37   ar
    10    37    38   ar
    11    38    39    1
    12     3     4   ar
    13     4     5   ar
    14     5     6   ar
    15     6     7   ar
    16     7    15    1
    17    15    16    2
    18    15    17   am
    19    17    19    1
    20    19    20   ar
    21    20    21   ar
    22    21    22    1
    23    21    23   ar
    24    23    24   ar
    25    24    26    1
    26    26    27    1
    27    26    28    1
    28    26    29    1
    29    24    25   ar
    30     7     8   ar
    31     8     9   ar
    32     9    10   ar
    33     9    11    1
    34    11    12    1
    35    12    13    1
    36    13    14    1
    37    10     2   ar
    38    38    32   ar
    39    10     5   ar
    40    25    19   ar
    41    14     8    1
    42    30    31    1
    43    17    18    1
@<TRIPOS>MOLECULE
*****
 39 43 0 0 0
SMALL
GASTEIGER

@<TRIPOS>ATOM
      1 C           7.7964   -5.9187   31.0603 C.3     1  UNL1        0.1333
      2 N           7.2856   -4.7284   30.3039 N.ar    1  UNL1       -0.2950
      3 C           6.8772   -3.4138   30.8999 C.ar    1  UNL1        0.2019
      4 N           6.4327   -2.5166   29.7830 N.ar    1  UNL1       -0.2134
      5 C           6.5665   -3.2766   28.4968 C.ar    1  UNL1        0.1033
      6 C           6.2765   -2.9006   27.0739 C.ar    1  UNL1        0.0284
      7 C           6.5135   -3.8914   25.9730 C.ar    1  UNL1        0.0922
      8 C           7.0407   -5.2584   26.2950 C.ar    1  UNL1        0.1782
      9 C           7.3307   -5.6344   27.7178 C.ar    1  UNL1        0.1897
     10 C           7.0936   -4.6435   28.8187 C.ar    1  UNL1        0.1173
     11 O           7.8578   -7.0013   28.0398 O.3     1  UNL1       -0.4669
     12 C           8.0949   -7.9922   26.9389 C.3     1  UNL1        0.2527
     13 C           7.8048   -7.6161   25.5160 C.3     1  UNL1        0.2526
     14 O           7.2777   -6.2492   25.1941 O.3     1  UNL1       -0.4682
     15 C           6.2234   -3.5154   24.5502 C.2     1  UNL1        0.2526
     16 O           5.0844   -2.5913   24.2360 O.2     1  UNL1       -0.2697
     17 N           7.0724   -4.0634   23.4416 N.am    1  UNL1       -0.2802
     18 H           7.8199   -4.6699   23.6479 H       1  UNL1        0.1552
     19 C           6.7823   -3.6873   22.0188 C.ar    1  UNL1        0.0527
     20 C           7.7809   -2.8874   21.2360 C.ar    1  UNL1        0.0443
     21 C           7.4908   -2.5114   19.8131 C.ar    1  UNL1        0.1413
     22 F           8.4895   -1.7114   19.0303 F       1  UNL1       -0.2041
     23 C           6.2022   -2.9352   19.1731 C.ar    1  UNL1        0.0336
     24 C           5.2035   -3.7352   19.9560 C.ar    1  UNL1        0.0749
     25 C           5.4935   -4.1112   21.3788 C.ar    1  UNL1        0.0187
     26 C           3.9148   -4.1590   19.3160 C.3     1  UNL1        0.4187
     27 F           2.6262   -4.5829   18.6760 F       1  UNL1       -0.1659
     28 F           4.5991   -5.3601   18.7336 F       1  UNL1       -0.1659
     29 F           3.2305   -2.9580   19.8984 F       1  UNL1       -0.1659
     30 N           6.9078   -3.0589   32.3570 N.pl3   1  UNL1       -0.2814
     31 H           7.3006   -3.6844   33.0079 H       1  UNL1        0.1551
     32 C           6.3400   -1.7508   32.8224 C.ar    1  UNL1        0.0889
     33 C           7.1493   -0.4942   32.6954 C.ar    1  UNL1        0.1543
     34 F           8.5264   -0.5458   32.1031 F       1  UNL1       -0.2028
     35 C           6.5815    0.8138   33.1607 C.ar    1  UNL1        0.0310
     36 C           5.2043    0.8653   33.7531 C.ar    1  UNL1        0.0033
     37 C           4.3950   -0.3912   33.8801 C.ar    1  UNL1        0.0128
     38 C           4.9629   -1.6993   33.4147 C.ar    1  UNL1        0.0733
     39 CL          4.1536   -2.9558   33.5417 Cl      1  UNL1       -0.0809
@<TRIPOS>BOND
     1     1     2    1
     2     2     3   ar
     3     3    30    1
     4    30    32    1
     5    32    33   ar
     6    33    34    1
     7    33    35   ar
     8    35    36   ar
     9    36    37   ar
    10    37    38   ar
    11    38    39    1
    12     3     4   ar
    13     4     5   ar
    14     5     6   ar
    15     6     7   ar
    16     7    15    1
    17    15    16    2
    18    15    17   am
    19    17    19    1
    20    19    20   ar
    21    20    21   ar
    22    21    22    1
    23    21    23   ar
    24    23    24   ar
    25    24    26    1
    26    26    27    1
    27    26    28    1
    28    26    29    1
    29    24    25   ar
    30     7     8   ar
    31     8     9   ar
    32     9    10   ar
    33     9    11    1
    34    11    12    1
    35    12    13    1
    36    13    14    1
    37    10     2   ar
    38    38    32   ar
    39    10     5   ar
    40    25    19   ar
    41    14     8    1
    42    30    31    1
    43    17    18    1
@<TRIPOS>MOLECULE
*****
 39 43 0 0 0
SMALL
GASTEIGER

@<TRIPOS>ATOM
      1 C           5.2516   -3.3930   19.0119 C.3     1  UNL1        0.1333
      2 N           4.8358   -2.9550   20.3849 N.ar    1  UNL1       -0.2950
      3 C           3.6428   -2.1084   20.7167 C.ar    1  UNL1        0.2019
      4 N           3.6096   -1.9168   22.2041 N.ar    1  UNL1       -0.2134
      5 C           4.7821   -2.6449   22.7915 C.ar    1  UNL1        0.1033
      6 C           5.2577   -2.8065   24.2049 C.ar    1  UNL1        0.0284
      7 C           6.4910   -3.6098   24.4940 C.ar    1  UNL1        0.0922
      8 C           7.2489   -4.2514   23.3697 C.ar    1  UNL1        0.1782
      9 C           6.7733   -4.0898   21.9563 C.ar    1  UNL1        0.1897
     10 C           5.5399   -3.2865   21.6672 C.ar    1  UNL1        0.1173
     11 O           7.5311   -4.7314   20.8320 O.3     1  UNL1       -0.4669
     12 C           8.7644   -5.5347   21.1211 C.3     1  UNL1        0.2527
     13 C           9.2400   -5.6963   22.5345 C.3     1  UNL1        0.2526
     14 O           8.4822   -5.0547   23.6588 O.3     1  UNL1       -0.4682
     15 C           6.9666   -3.7714   25.9074 C.2     1  UNL1        0.2526
     16 O           8.0221   -2.8557   26.4530 O.2     1  UNL1       -0.2697
     17 N           6.3867   -4.8487   26.7753 N.am    1  UNL1       -0.2802
     18 H           5.6940   -5.4496   26.4172 H       1  UNL1        0.1552
     19 C           6.8623   -5.0103   28.1887 C.ar    1  UNL1        0.0527
     20 C           7.8070   -6.1212   28.5397 C.ar    1  UNL1        0.0443
     21 C           8.2826   -6.2829   29.9531 C.ar    1  UNL1        0.1413
     22 F           9.2274   -7.3939   30.3041 F       1  UNL1       -0.2041
     23 C           7.8134   -5.3336   31.0155 C.ar    1  UNL1        0.0336
     24 C           6.8685   -4.2226   30.6645 C.ar    1  UNL1        0.0749
     25 C           6.3930   -4.0610   29.2511 C.ar    1  UNL1        0.0187
     26 C           6.3993   -3.2734   31.7269 C.3     1  UNL1        0.4187
     27 F           5.9301   -2.3241   32.7893 F       1  UNL1       -0.1659
     28 F           6.2557   -4.4177   32.6859 F       1  UNL1       -0.1659
     29 F           6.5430   -2.1290   30.7678 F       1  UNL1       -0.1659
     30 N           2.6561   -1.5513   19.7337 N.pl3   1  UNL1       -0.2814
     31 H           2.0222   -2.1515   19.2787 H       1  UNL1        0.1551
     32 C           2.6354   -0.0797   19.4442 C.ar    1  UNL1        0.0889
     33 C           3.7992    0.5648   18.7511 C.ar    1  UNL1        0.1543
     34 F           4.9836   -0.2623   18.3476 F       1  UNL1       -0.2028
     35 C           3.7784    2.0365   18.4615 C.ar    1  UNL1        0.0310
     36 C           2.5938    2.8636   18.8650 C.ar    1  UNL1        0.0033
     37 C           1.4301    2.2191   19.5580 C.ar    1  UNL1        0.0128
     38 C           1.4509    0.7475   19.8476 C.ar    1  UNL1        0.0733
     39 CL          0.2872    0.1030   20.5406 Cl      1  UNL1       -0.0809
@<TRIPOS>BOND
     1     1     2    1
     2     2     3   ar
     3     3    30    1
     4    30    32    1
     5    32    33   ar
     6    33    34    1
     7    33    35   ar
     8    35    36   ar
     9    36    37   ar
    10    37    38   ar
    11    38    39    1
    12     3     4   ar
    13     4     5   ar
    14     5     6   ar
    15     6     7   ar
    16     7    15    1
    17    15    16    2
    18    15    17   am
    19    17    19    1
    20    19    20   ar
    21    20    21   ar
    22    21    22    1
    23    21    23   ar
    24    23    24   ar
    25    24    26    1
    26    26    27    1
    27    26    28    1
    28    26    29    1
    29    24    25   ar
    30     7     8   ar
    31     8     9   ar
    32     9    10   ar
    33     9    11    1
    34    11    12    1
    35    12    13    1
    36    13    14    1
    37    10     2   ar
    38    38    32   ar
    39    10     5   ar
    40    25    19   ar
    41    14     8    1
    42    30    31    1
    43    17    18    1
@<TRIPOS>MOLECULE
*****
 39 43 0 0 0
SMALL
GASTEIGER

@<TRIPOS>ATOM
      1 C          -1.8065    4.5713   25.3229 C.3     1  UNL1        0.1333
      2 N          -1.7391    4.2471   23.8600 N.ar    1  UNL1       -0.2950
      3 C          -2.5743    4.8683   22.7798 C.ar    1  UNL1        0.2019
      4 N          -2.1760    4.2499   21.4726 N.ar    1  UNL1       -0.2134
      5 C          -1.0947    3.2466   21.7447 C.ar    1  UNL1        0.1033
      6 C          -0.3210    2.3343   20.8396 C.ar    1  UNL1        0.0284
      7 C           0.7227    1.4204   21.4100 C.ar    1  UNL1        0.0922
      8 C           0.9927    1.4186   22.8856 C.ar    1  UNL1        0.1782
      9 C           0.2190    2.3309   23.7907 C.ar    1  UNL1        0.1897
     10 C          -0.8247    3.2449   23.2202 C.ar    1  UNL1        0.1173
     11 O           0.4890    2.3292   25.2661 O.3     1  UNL1       -0.4669
     12 C           1.5326    1.4152   25.8365 C.3     1  UNL1        0.2527
     13 C           2.3063    0.5029   24.9314 C.3     1  UNL1        0.2526
     14 O           2.0363    0.5046   23.4560 O.3     1  UNL1       -0.4682
     15 C           1.4963    0.5081   20.5049 C.2     1  UNL1        0.2526
     16 O           0.8392   -0.0771   19.2901 O.2     1  UNL1       -0.2697
     17 N           2.9271    0.1810   20.8146 N.am    1  UNL1       -0.2802
     18 H           3.3583    0.5651   21.6120 H       1  UNL1        0.1552
     19 C           3.7007   -0.7313   19.9096 C.ar    1  UNL1        0.0527
     20 C           4.6415   -0.1572   18.8920 C.ar    1  UNL1        0.0443
     21 C           5.4151   -1.0694   17.9870 C.ar    1  UNL1        0.1413
     22 F           6.3559   -0.4953   16.9694 F       1  UNL1       -0.2041
     23 C           5.2481   -2.5558   18.0994 C.ar    1  UNL1        0.0336
     24 C           4.3073   -3.1300   19.1169 C.ar    1  UNL1        0.0749
     25 C           3.5336   -2.2178   20.0220 C.ar    1  UNL1        0.0187
     26 C           4.1403   -4.6164   19.2294 C.3     1  UNL1        0.4187
     27 F           3.9732   -6.1028   19.3418 F       1  UNL1       -0.1659
     28 F           5.5952   -4.7544   19.5669 F       1  UNL1       -0.1659
     29 F           2.6853   -4.4784   18.8918 F       1  UNL1       -0.1659
     30 N          -3.6235    5.9227   22.9731 N.pl3   1  UNL1       -0.2814
     31 H          -3.3880    6.8742   22.8814 H       1  UNL1        0.1551
     32 C          -5.0317    5.5274   23.3061 C.ar    1  UNL1        0.0889
     33 C          -5.8539    4.7686   22.3069 C.ar    1  UNL1        0.1543
     34 F          -5.2679    4.4052   20.9748 F       1  UNL1       -0.2028
     35 C          -7.2620    4.3733   22.6399 C.ar    1  UNL1        0.0310
     36 C          -7.8479    4.7367   23.9721 C.ar    1  UNL1        0.0033
     37 C          -7.0257    5.4954   24.9712 C.ar    1  UNL1        0.0128
     38 C          -5.6176    5.8908   24.6382 C.ar    1  UNL1        0.0733
     39 CL         -4.7954    6.6495   25.6373 Cl      1  UNL1       -0.0809
@<TRIPOS>BOND
     1     1     2    1
     2     2     3   ar
     3     3    30    1
     4    30    32    1
     5    32    33   ar
     6    33    34    1
     7    33    35   ar
     8    35    36   ar
     9    36    37   ar
    10    37    38   ar
    11    38    39    1
    12     3     4   ar
    13     4     5   ar
    14     5     6   ar
    15     6     7   ar
    16     7    15    1
    17    15    16    2
    18    15    17   am
    19    17    19    1
    20    19    20   ar
    21    20    21   ar
    22    21    22    1
    23    21    23   ar
    24    23    24   ar
    25    24    26    1
    26    26    27    1
    27    26    28    1
    28    26    29    1
    29    24    25   ar
    30     7     8   ar
    31     8     9   ar
    32     9    10   ar
    33     9    11    1
    34    11    12    1
    35    12    13    1
    36    13    14    1
    37    10     2   ar
    38    38    32   ar
    39    10     5   ar
    40    25    19   ar
    41    14     8    1
    42    30    31    1
    43    17    18    1
@<TRIPOS>MOLECULE
*****
 39 43 0 0 0
SMALL
GASTEIGER

@<TRIPOS>ATOM
      1 C           0.8125    1.3300   29.7363 C.3     1  UNL1        0.1333
      2 N           1.8504    0.4651   29.0847 N.ar    1  UNL1       -0.2950
      3 C           2.7983   -0.4584   29.7908 C.ar    1  UNL1        0.2019
      4 N           3.6565   -1.1224   28.7551 N.ar    1  UNL1       -0.2134
      5 C           3.2390   -0.6092   27.4089 C.ar    1  UNL1        0.1033
      6 C           3.7310   -0.9085   26.0238 C.ar    1  UNL1        0.0284
      7 C           3.1069   -0.2267   24.8425 C.ar    1  UNL1        0.0922
      8 C           1.9907    0.7545   25.0462 C.ar    1  UNL1        0.1782
      9 C           1.4986    1.0538   26.4312 C.ar    1  UNL1        0.1897
     10 C           2.1228    0.3719   27.6126 C.ar    1  UNL1        0.1173
     11 O           0.3825    2.0349   26.6350 O.3     1  UNL1       -0.4669
     12 C          -0.2417    2.7167   25.4537 C.3     1  UNL1        0.2527
     13 C           0.2504    2.4174   24.0686 C.3     1  UNL1        0.2526
     14 O           1.3665    1.4363   23.8649 O.3     1  UNL1       -0.4682
     15 C           3.5989   -0.5260   23.4575 C.2     1  UNL1        0.2526
     16 O           5.0721   -0.5806   23.1804 O.2     1  UNL1       -0.2697
     17 N           2.6178   -0.7707   22.3496 N.am    1  UNL1       -0.2802
     18 H           1.6509   -0.7348   22.5314 H       1  UNL1        0.1552
     19 C           3.1098   -1.0700   20.9645 C.ar    1  UNL1        0.0527
     20 C           3.2037    0.0291   19.9481 C.ar    1  UNL1        0.0443
     21 C           3.6957   -0.2702   18.5631 C.ar    1  UNL1        0.1413
     22 F           3.7896    0.8290   17.5466 F       1  UNL1       -0.2041
     23 C           4.0939   -1.6686   18.1945 C.ar    1  UNL1        0.0336
     24 C           4.0000   -2.7678   19.2109 C.ar    1  UNL1        0.0749
     25 C           3.5080   -2.4685   20.5960 C.ar    1  UNL1        0.0187
     26 C           4.3982   -4.1662   18.8423 C.3     1  UNL1        0.4187
     27 F           4.7963   -5.5646   18.4737 F       1  UNL1       -0.1659
     28 F           3.3796   -4.7088   19.8005 F       1  UNL1       -0.1659
     29 F           5.4167   -3.6236   17.8841 F       1  UNL1       -0.1659
     30 N           2.8746   -0.6793   31.2725 N.pl3   1  UNL1       -0.2814
     31 H           2.1342   -1.1270   31.7423 H       1  UNL1        0.1551
     32 C           4.0789   -0.2178   32.0386 C.ar    1  UNL1        0.0889
     33 C           4.5326    1.2082   31.9349 C.ar    1  UNL1        0.1543
     34 F           3.7820    2.1727   31.0653 F       1  UNL1       -0.2028
     35 C           5.7369    1.6696   32.7009 C.ar    1  UNL1        0.0310
     36 C           6.4875    0.7050   33.5706 C.ar    1  UNL1        0.0033
     37 C           6.0338   -0.7209   33.6742 C.ar    1  UNL1        0.0128
     38 C           4.8295   -1.1824   32.9082 C.ar    1  UNL1        0.0733
     39 CL          4.3758   -2.6083   33.0118 Cl      1  UNL1       -0.0809
@<TRIPOS>BOND
     1     1     2    1
     2     2     3   ar
     3     3    30    1
     4    30    32    1
     5    32    33   ar
     6    33    34    1
     7    33    35   ar
     8    35    36   ar
     9    36    37   ar
    10    37    38   ar
    11    38    39    1
    12     3     4   ar
    13     4     5   ar
    14     5     6   ar
    15     6     7   ar
    16     7    15    1
    17    15    16    2
    18    15    17   am
    19    17    19    1
    20    19    20   ar
    21    20    21   ar
    22    21    22    1
    23    21    23   ar
    24    23    24   ar
    25    24    26    1
    26    26    27    1
    27    26    28    1
    28    26    29    1
    29    24    25   ar
    30     7     8   ar
    31     8     9   ar
    32     9    10   ar
    33     9    11    1
    34    11    12    1
    35    12    13    1
    36    13    14    1
    37    10     2   ar
    38    38    32   ar
    39    10     5   ar
    40    25    19   ar
    41    14     8    1
    42    30    31    1
    43    17    18    1
@<TRIPOS>MOLECULE
*****
 39 43 0 0 0
SMALL
GASTEIGER

@<TRIPOS>ATOM
      1 C           2.4400    0.1112   30.7542 C.3     1  UNL1        0.1333
      2 N           3.4735   -0.5008   29.8557 N.ar    1  UNL1       -0.2950
      3 C           4.6871   -1.2629   30.2988 C.ar    1  UNL1        0.2019
      4 N           5.4385   -1.6912   29.0733 N.ar    1  UNL1       -0.2134
      5 C           4.6893   -1.1938   27.8728 C.ar    1  UNL1        0.1033
      6 C           4.9561   -1.3157   26.4017 C.ar    1  UNL1        0.0284
      7 C           4.0084   -0.7020   25.4142 C.ar    1  UNL1        0.0922
      8 C           2.7939    0.0337   25.8978 C.ar    1  UNL1        0.1782
      9 C           2.5271    0.1557   27.3688 C.ar    1  UNL1        0.1897
     10 C           3.4749   -0.4581   28.3563 C.ar    1  UNL1        0.1173
     11 O           1.3127    0.8914   27.8524 O.3     1  UNL1       -0.4669
     12 C           0.3650    1.5051   26.8649 C.3     1  UNL1        0.2527
     13 C           0.6318    1.3832   25.3939 C.3     1  UNL1        0.2526
     14 O           1.8462    0.6475   24.9103 O.3     1  UNL1       -0.4682
     15 C           4.2751   -0.8240   23.9432 C.2     1  UNL1        0.2526
     16 O           5.6625   -0.6147   23.4127 O.2     1  UNL1       -0.2697
     17 N           3.1545   -1.1551   23.0027 N.am    1  UNL1       -0.2802
     18 H           2.2440   -1.2925   23.3509 H       1  UNL1        0.1552
     19 C           3.4213   -1.2771   21.5317 C.ar    1  UNL1        0.0527
     20 C           3.3637   -0.0609   20.6556 C.ar    1  UNL1        0.0443
     21 C           3.6304   -0.1828   19.1846 C.ar    1  UNL1        0.1413
     22 F           3.5728    1.0335   18.3085 F       1  UNL1       -0.2041
     23 C           3.9547   -1.5210   18.5896 C.ar    1  UNL1        0.0336
     24 C           4.0124   -2.7373   19.4656 C.ar    1  UNL1        0.0749
     25 C           3.7456   -2.6153   20.9367 C.ar    1  UNL1        0.0187
     26 C           4.3367   -4.0755   18.8706 C.3     1  UNL1        0.4187
     27 F           4.6610   -5.4136   18.2756 F       1  UNL1       -0.1659
     28 F           5.7692   -3.6588   18.7145 F       1  UNL1       -0.1659
     29 F           2.9042   -4.4921   19.0267 F       1  UNL1       -0.1659
     30 N           5.0803   -1.5468   31.7183 N.pl3   1  UNL1       -0.2814
     31 H           4.3886   -1.7426   32.3909 H       1  UNL1        0.1551
     32 C           6.5274   -1.5325   32.1129 C.ar    1  UNL1        0.0889
     33 C           7.1775   -0.2476   32.5331 C.ar    1  UNL1        0.1543
     34 F           6.3805    1.0229   32.5586 F       1  UNL1       -0.2028
     35 C           8.6246   -0.2333   32.9277 C.ar    1  UNL1        0.0310
     36 C           9.4216   -1.5038   32.9021 C.ar    1  UNL1        0.0033
     37 C           8.7714   -2.7886   32.4820 C.ar    1  UNL1        0.0128
     38 C           7.3243   -2.8030   32.0874 C.ar    1  UNL1        0.0733
     39 CL          6.6742   -4.0878   31.6672 Cl      1  UNL1       -0.0809
@<TRIPOS>BOND
     1     1     2    1
     2     2     3   ar
     3     3    30    1
     4    30    32    1
     5    32    33   ar
     6    33    34    1
     7    33    35   ar
     8    35    36   ar
     9    36    37   ar
    10    37    38   ar
    11    38    39    1
    12     3     4   ar
    13     4     5   ar
    14     5     6   ar
    15     6     7   ar
    16     7    15    1
    17    15    16    2
    18    15    17   am
    19    17    19    1
    20    19    20   ar
    21    20    21   ar
    22    21    22    1
    23    21    23   ar
    24    23    24   ar
    25    24    26    1
    26    26    27    1
    27    26    28    1
    28    26    29    1
    29    24    25   ar
    30     7     8   ar
    31     8     9   ar
    32     9    10   ar
    33     9    11    1
    34    11    12    1
    35    12    13    1
    36    13    14    1
    37    10     2   ar
    38    38    32   ar
    39    10     5   ar
    40    25    19   ar
    41    14     8    1
    42    30    31    1
    43    17    18    1
@<TRIPOS>MOLECULE
*****
 39 43 0 0 0
SMALL
GASTEIGER

@<TRIPOS>ATOM
      1 C           4.4286   -0.9143   25.4540 C.3     1  UNL1        0.1333
      2 N           3.5626   -0.1727   24.4793 N.ar    1  UNL1       -0.2950
      3 C           3.7477   -0.1288   22.9914 C.ar    1  UNL1        0.2019
      4 N           2.6591    0.7263   22.4138 N.ar    1  UNL1       -0.2134
      5 C           1.8011    1.2109   23.5448 C.ar    1  UNL1        0.1033
      6 C           0.5835    2.0864   23.5772 C.ar    1  UNL1        0.0284
      7 C          -0.0756    2.4063   24.8861 C.ar    1  UNL1        0.0922
      8 C           0.4829    1.8507   26.1626 C.ar    1  UNL1        0.1782
      9 C           1.7005    0.9752   26.1302 C.ar    1  UNL1        0.1897
     10 C           2.3596    0.6553   24.8212 C.ar    1  UNL1        0.1173
     11 O           2.2589    0.4196   27.4067 O.3     1  UNL1       -0.4669
     12 C           1.5998    0.7395   28.7155 C.3     1  UNL1        0.2527
     13 C           0.3822    1.6150   28.7479 C.3     1  UNL1        0.2526
     14 O          -0.1763    2.1705   27.4715 O.3     1  UNL1       -0.4682
     15 C          -1.2932    3.2817   24.9185 C.2     1  UNL1        0.2526
     16 O          -1.4244    4.4201   23.9505 O.2     1  UNL1       -0.2697
     17 N          -2.3795    3.0188   25.9188 N.am    1  UNL1       -0.2802
     18 H          -2.2934    2.2717   26.5541 H       1  UNL1        0.1552
     19 C          -3.5971    3.8943   25.9512 C.ar    1  UNL1        0.0527
     20 C          -3.7648    4.9056   27.0462 C.ar    1  UNL1        0.0443
     21 C          -4.9824    5.7810   27.0786 C.ar    1  UNL1        0.1413
     22 F          -5.1500    6.7924   28.1737 F       1  UNL1       -0.2041
     23 C          -6.0323    5.6452   26.0160 C.ar    1  UNL1        0.0336
     24 C          -5.8646    4.6338   24.9209 C.ar    1  UNL1        0.0749
     25 C          -4.6471    3.7584   24.8885 C.ar    1  UNL1        0.0187
     26 C          -6.9146    4.4980   23.8583 C.3     1  UNL1        0.4187
     27 F          -7.9645    4.3622   22.7957 F       1  UNL1       -0.1659
     28 F          -6.1134    3.4107   23.2057 F       1  UNL1       -0.1659
     29 F          -7.7157    5.5853   24.5109 F       1  UNL1       -0.1659
     30 N           4.8313   -0.8190   22.2170 N.pl3   1  UNL1       -0.2814
     31 H           5.7761   -0.6125   22.4013 H       1  UNL1        0.1551
     32 C           4.4753   -1.8238   21.1616 C.ar    1  UNL1        0.0889
     33 C           4.0966   -1.3635   19.7851 C.ar    1  UNL1        0.1543
     34 F           4.0739    0.1015   19.4640 F       1  UNL1       -0.2028
     35 C           3.7407   -2.3683   18.7298 C.ar    1  UNL1        0.0310
     36 C           3.7634   -3.8333   19.0510 C.ar    1  UNL1        0.0033
     37 C           4.1422   -4.2936   20.4274 C.ar    1  UNL1        0.0128
     38 C           4.4981   -3.2888   21.4828 C.ar    1  UNL1        0.0733
     39 CL          4.8768   -3.7490   22.8592 Cl      1  UNL1       -0.0809
@<TRIPOS>BOND
     1     1     2    1
     2     2     3   ar
     3     3    30    1
     4    30    32    1
     5    32    33   ar
     6    33    34    1
     7    33    35   ar
     8    35    36   ar
     9    36    37   ar
    10    37    38   ar
    11    38    39    1
    12     3     4   ar
    13     4     5   ar
    14     5     6   ar
    15     6     7   ar
    16     7    15    1
    17    15    16    2
    18    15    17   am
    19    17    19    1
    20    19    20   ar
    21    20    21   ar
    22    21    22    1
    23    21    23   ar
    24    23    24   ar
    25    24    26    1
    26    26    27    1
    27    26    28    1
    28    26    29    1
    29    24    25   ar
    30     7     8   ar
    31     8     9   ar
    32     9    10   ar
    33     9    11    1
    34    11    12    1
    35    12    13    1
    36    13    14    1
    37    10     2   ar
    38    38    32   ar
    39    10     5   ar
    40    25    19   ar
    41    14     8    1
    42    30    31    1
    43    17    18    1
@<TRIPOS>MOLECULE
*****
 39 43 0 0 0
SMALL
GASTEIGER

@<TRIPOS>ATOM
      1 C          -6.5296    4.3108   21.2432 C.3     1  UNL1        0.1333
      2 N          -5.2384    3.9856   21.9339 N.ar    1  UNL1       -0.2950
      3 C          -5.0530    3.7889   23.4093 C.ar    1  UNL1        0.2019
      4 N          -3.6059    3.4817   23.6577 N.ar    1  UNL1       -0.2134
      5 C          -2.8971    3.4886   22.3358 C.ar    1  UNL1        0.1033
      6 C          -1.4632    3.2516   21.9646 C.ar    1  UNL1        0.0284
      7 C          -1.0383    3.3259   20.5280 C.ar    1  UNL1        0.0922
      8 C          -2.0473    3.6374   19.4625 C.ar    1  UNL1        0.1782
      9 C          -3.4811    3.8744   19.8338 C.ar    1  UNL1        0.1897
     10 C          -3.9060    3.8000   21.2705 C.ar    1  UNL1        0.1173
     11 O          -4.4901    4.1858   18.7684 O.3     1  UNL1       -0.4669
     12 C          -4.0652    4.2602   17.3318 C.3     1  UNL1        0.2527
     13 C          -2.6313    4.0231   16.9606 C.3     1  UNL1        0.2526
     14 O          -1.6223    3.7117   18.0259 O.3     1  UNL1       -0.4682
     15 C           0.3956    3.0888   20.1567 C.2     1  UNL1        0.2526
     16 O           1.4940    3.6301   21.0231 O.2     1  UNL1       -0.2697
     17 N           0.7310    2.3105   18.9191 N.am    1  UNL1       -0.2802
     18 H           0.0101    1.9553   18.3505 H       1  UNL1        0.1552
     19 C           2.1649    2.0735   18.5478 C.ar    1  UNL1        0.0527
     20 C           3.0977    3.2358   18.3780 C.ar    1  UNL1        0.0443
     21 C           4.5316    2.9987   18.0068 C.ar    1  UNL1        0.1413
     22 F           5.4644    4.1611   17.8370 F       1  UNL1       -0.2041
     23 C           5.0326    1.5994   17.8053 C.ar    1  UNL1        0.0336
     24 C           4.0998    0.4369   17.9751 C.ar    1  UNL1        0.0749
     25 C           2.6660    0.6740   18.3464 C.ar    1  UNL1        0.0187
     26 C           4.6009   -0.9624   17.7737 C.3     1  UNL1        0.4187
     27 F           5.1020   -2.3618   17.5722 F       1  UNL1       -0.1659
     28 F           5.6222   -0.7520   18.8519 F       1  UNL1       -0.1659
     29 F           3.5796   -1.1729   16.6955 F       1  UNL1       -0.1659
     30 N          -6.1262    3.8828   24.4531 N.pl3   1  UNL1       -0.2814
     31 H          -6.7614    3.1405   24.5742 H       1  UNL1        0.1551
     32 C          -6.2315    5.1078   25.3124 C.ar    1  UNL1        0.0889
     33 C          -7.1895    6.2019   24.9446 C.ar    1  UNL1        0.1543
     34 F          -8.0422    6.0709   23.7175 F       1  UNL1       -0.2028
     35 C          -7.2948    7.4268   25.8039 C.ar    1  UNL1        0.0310
     36 C          -6.4421    7.5577   27.0310 C.ar    1  UNL1        0.0033
     37 C          -5.4841    6.4637   27.3988 C.ar    1  UNL1        0.0128
     38 C          -5.3788    5.2387   26.5395 C.ar    1  UNL1        0.0733
     39 CL         -4.4208    4.1447   26.9073 Cl      1  UNL1       -0.0809
@<TRIPOS>BOND
     1     1     2    1
     2     2     3   ar
     3     3    30    1
     4    30    32    1
     5    32    33   ar
     6    33    34    1
     7    33    35   ar
     8    35    36   ar
     9    36    37   ar
    10    37    38   ar
    11    38    39    1
    12     3     4   ar
    13     4     5   ar
    14     5     6   ar
    15     6     7   ar
    16     7    15    1
    17    15    16    2
    18    15    17   am
    19    17    19    1
    20    19    20   ar
    21    20    21   ar
    22    21    22    1
    23    21    23   ar
    24    23    24   ar
    25    24    26    1
    26    26    27    1
    27    26    28    1
    28    26    29    1
    29    24    25   ar
    30     7     8   ar
    31     8     9   ar
    32     9    10   ar
    33     9    11    1
    34    11    12    1
    35    12    13    1
    36    13    14    1
    37    10     2   ar
    38    38    32   ar
    39    10     5   ar
    40    25    19   ar
    41    14     8    1
    42    30    31    1
    43    17    18    1
