@<TRIPOS>MOLECULE
*****
 31 32 0 0 0
SMALL
GASTEIGER

@<TRIPOS>ATOM
      1 C          -8.4185  -18.4768   22.1781 C.ar    1  UNL1       -0.0185
      2 C          -9.3521  -19.6381   22.0061 C.ar    1  UNL1       -0.0041
      3 C         -10.7576  -19.5537   22.5233 C.ar    1  UNL1        0.0057
      4 C         -11.2295  -18.3078   23.2125 C.ar    1  UNL1        0.0696
      5 C         -10.2959  -17.1465   23.3846 C.ar    1  UNL1        0.0095
      6 C          -8.8905  -17.2309   22.8674 C.ar    1  UNL1        0.0677
      7 C          -2.7966  -18.8146   20.1093 C.2     1  UNL1        0.2251
      8 O          -2.5394  -19.2943   18.7116 O.2     1  UNL1       -0.2749
      9 N          -4.2021  -18.7302   20.6265 N.am    1  UNL1       -0.2795
     10 C          -4.4594  -18.2505   22.0242 C.3     1  UNL1        0.0937
     11 C          -5.8648  -18.1660   22.5414 C.3     1  UNL1        0.0259
     12 C          -7.0131  -18.5612   21.6609 C.3     1  UNL1        0.0257
     13 C          -6.7558  -19.0409   20.2632 C.3     1  UNL1        0.0259
     14 C          -5.3503  -19.1254   19.7460 C.3     1  UNL1        0.0937
     15 C          -0.4171  -17.8096   20.3881 C.3     1  UNL1        0.0096
     16 C          -1.6484  -18.4194   20.9898 C.3     1  UNL1        0.0767
     17 C          -1.7315  -18.6340   22.4721 C.3     1  UNL1        0.0096
     18 C         -12.6350  -18.2234   23.7297 C.2     1  UNL1        0.3078
     19 O         -13.7339  -17.7271   22.8375 O.2     1  UNL1       -0.2516
     20 N         -12.9415  -18.6351   25.1391 N.am    1  UNL1       -0.1708
     21 H         -12.2202  -18.9608   25.7247 H       1  UNL1        0.2545
     22 C         -14.3470  -18.5506   25.6563 C.2     1  UNL1        0.3751
     23 N         -15.5026  -18.7883   24.7301 N.pl3   1  UNL1       -0.1313
     24 N         -14.5968  -18.2284   27.0999 N.pl3   1  UNL1       -0.2906
     25 H         -15.3386  -18.9998   23.7826 H       1  UNL1        0.3060
     26 H         -13.8384  -18.0724   27.7079 H       1  UNL1        0.2545
     27 H         -15.5193  -18.1729   27.4394 H       1  UNL1        0.2545
     28 C          -7.9569  -16.0695   23.0395 C.3     1  UNL1        0.4183
     29 F          -7.0234  -14.9081   23.2116 F       1  UNL1       -0.1659
     30 F          -7.6812  -16.5000   24.4497 F       1  UNL1       -0.1659
     31 F          -8.2326  -15.6390   21.6294 F       1  UNL1       -0.1659
@<TRIPOS>BOND
     1    15    16    1
     2    16    17    1
     3    16     7    1
     4     7     8    2
     5     7     9   am
     6     9    10    1
     7    10    11    1
     8    11    12    1
     9    12     1    1
    10     1     2   ar
    11     2     3   ar
    12     3     4   ar
    13     4    18    1
    14    18    19    2
    15    18    20   am
    16    20    22    1
    17    22    23    2
    18    22    24    1
    19     4     5   ar
    20     5     6   ar
    21     6    28    1
    22    28    29    1
    23    28    30    1
    24    28    31    1
    25    12    13    1
    26    13    14    1
    27    14     9    1
    28     6     1   ar
    29    20    21    1
    30    23    25    1
    31    24    26    1
    32    24    27    1
@<TRIPOS>MOLECULE
*****
 31 32 0 0 0
SMALL
GASTEIGER

@<TRIPOS>ATOM
      1 C         -15.7669   -4.2722   18.8589 C.ar    1  UNL1       -0.0185
      2 C         -17.1780   -4.7400   18.6589 C.ar    1  UNL1       -0.0041
      3 C         -17.5130   -6.1952   18.8007 C.ar    1  UNL1        0.0057
      4 C         -16.4369   -7.1827   19.1426 C.ar    1  UNL1        0.0696
      5 C         -15.0258   -6.7149   19.3426 C.ar    1  UNL1        0.0095
      6 C         -14.6909   -5.2597   19.2008 C.ar    1  UNL1        0.0677
      7 C         -14.4270    1.5487   18.2917 C.2     1  UNL1        0.2251
      8 O         -14.7573    2.5057   19.3985 O.2     1  UNL1       -0.2749
      9 N         -14.7620    0.0935   18.4335 N.am    1  UNL1       -0.2795
     10 C         -14.4317   -0.8635   17.3267 C.3     1  UNL1        0.0937
     11 C         -14.7667   -2.3187   17.4685 C.3     1  UNL1        0.0259
     12 C         -15.4320   -2.8170   18.7171 C.3     1  UNL1        0.0257
     13 C         -15.7623   -1.8600   19.8239 C.3     1  UNL1        0.0259
     14 C         -15.4273   -0.4048   19.6821 C.3     1  UNL1        0.0937
     15 C         -12.2879    1.8477   16.8479 C.3     1  UNL1        0.0096
     16 C         -13.7617    2.0469   17.0431 C.3     1  UNL1        0.0767
     17 C         -14.5703    2.7445   15.9896 C.3     1  UNL1        0.0096
     18 C         -16.7719   -8.6379   19.2844 C.2     1  UNL1        0.3078
     19 O         -16.2047   -9.4304   20.4246 O.2     1  UNL1       -0.2516
     20 N         -17.6741   -9.3006   18.2860 N.am    1  UNL1       -0.1708
     21 H         -18.0464   -8.7804   17.5376 H       1  UNL1        0.2545
     22 C         -18.0091  -10.7558   18.4278 C.2     1  UNL1        0.3751
     23 N         -16.9776  -11.7163   18.9410 N.pl3   1  UNL1       -0.1313
     24 N         -19.3756  -11.2505   18.0563 N.pl3   1  UNL1       -0.2906
     25 H         -16.0807  -11.3916   19.1848 H       1  UNL1        0.3060
     26 H         -20.0526  -10.6201   17.7194 H       1  UNL1        0.2545
     27 H         -19.5955  -12.2056   18.1494 H       1  UNL1        0.2545
     28 C         -13.2797   -4.7919   19.4009 C.3     1  UNL1        0.4183
     29 F         -11.8687   -4.3242   19.6010 F       1  UNL1       -0.1659
     30 F         -12.9747   -5.0976   17.9644 F       1  UNL1       -0.1659
     31 F         -13.5847   -4.4863   20.8374 F       1  UNL1       -0.1659
@<TRIPOS>BOND
     1    15    16    1
     2    16    17    1
     3    16     7    1
     4     7     8    2
     5     7     9   am
     6     9    10    1
     7    10    11    1
     8    11    12    1
     9    12     1    1
    10     1     2   ar
    11     2     3   ar
    12     3     4   ar
    13     4    18    1
    14    18    19    2
    15    18    20   am
    16    20    22    1
    17    22    23    2
    18    22    24    1
    19     4     5   ar
    20     5     6   ar
    21     6    28    1
    22    28    29    1
    23    28    30    1
    24    28    31    1
    25    12    13    1
    26    13    14    1
    27    14     9    1
    28     6     1   ar
    29    20    21    1
    30    23    25    1
    31    24    26    1
    32    24    27    1
@<TRIPOS>MOLECULE
*****
 31 32 0 0 0
SMALL
GASTEIGER

@<TRIPOS>ATOM
      1 C         -14.1981   -2.3539   18.9857 C.ar    1  UNL1       -0.0185
      2 C         -12.7985   -1.8525   18.7869 C.ar    1  UNL1       -0.0041
      3 C         -11.6470   -2.8135   18.8101 C.ar    1  UNL1        0.0057
      4 C         -11.8952   -4.2761   19.0321 C.ar    1  UNL1        0.0696
      5 C         -13.2948   -4.7775   19.2309 C.ar    1  UNL1        0.0095
      6 C         -14.4462   -3.8165   19.2077 C.ar    1  UNL1        0.0677
      7 C         -18.8038    1.4903   18.8928 C.2     1  UNL1        0.2251
      8 O         -19.4596    1.8438   17.5909 O.2     1  UNL1       -0.2749
      9 N         -17.6524    0.5292   18.9160 N.am    1  UNL1       -0.2795
     10 C         -16.9966    0.1758   20.2179 C.3     1  UNL1        0.0937
     11 C         -15.8452   -0.7853   20.2411 C.3     1  UNL1        0.0259
     12 C         -15.3495   -1.3929   18.9625 C.3     1  UNL1        0.0257
     13 C         -16.0053   -1.0394   17.6606 C.3     1  UNL1        0.0259
     14 C         -17.1567   -0.0784   17.6373 C.3     1  UNL1        0.0937
     15 C         -20.3695    1.4077   20.9645 C.3     1  UNL1        0.0096
     16 C         -19.2995    2.0979   20.1715 C.3     1  UNL1        0.0767
     17 C         -18.7253    3.3958   20.6572 C.3     1  UNL1        0.0096
     18 C         -10.7437   -5.2371   19.0554 C.2     1  UNL1        0.3078
     19 O          -9.3682   -4.7513   19.4043 O.2     1  UNL1       -0.2516
     20 N         -10.9678   -6.6841   18.7297 N.am    1  UNL1       -0.1708
     21 H         -11.8706   -7.0030   18.5007 H       1  UNL1        0.2545
     22 C          -9.8164   -7.6451   18.7529 C.2     1  UNL1        0.3751
     23 N          -9.7765   -8.7913   17.7862 N.pl3   1  UNL1       -0.1313
     24 N          -8.7047   -7.4599   19.7429 N.pl3   1  UNL1       -0.2906
     25 H         -10.5061   -8.9129   17.1364 H       1  UNL1        0.3060
     26 H          -8.7309   -6.7076   20.3774 H       1  UNL1        0.2545
     27 H          -7.9490   -8.0907   19.7582 H       1  UNL1        0.2545
     28 C         -15.8459   -4.3180   19.4065 C.3     1  UNL1        0.4183
     29 F         -17.2455   -4.8196   19.6053 F       1  UNL1       -0.1659
     30 F         -15.6947   -4.1522   20.8896 F       1  UNL1       -0.1659
     31 F         -15.9971   -4.4839   17.9234 F       1  UNL1       -0.1659
@<TRIPOS>BOND
     1    15    16    1
     2    16    17    1
     3    16     7    1
     4     7     8    2
     5     7     9   am
     6     9    10    1
     7    10    11    1
     8    11    12    1
     9    12     1    1
    10     1     2   ar
    11     2     3   ar
    12     3     4   ar
    13     4    18    1
    14    18    19    2
    15    18    20   am
    16    20    22    1
    17    22    23    2
    18    22    24    1
    19     4     5   ar
    20     5     6   ar
    21     6    28    1
    22    28    29    1
    23    28    30    1
    24    28    31    1
    25    12    13    1
    26    13    14    1
    27    14     9    1
    28     6     1   ar
    29    20    21    1
    30    23    25    1
    31    24    26    1
    32    24    27    1
@<TRIPOS>MOLECULE
*****
 31 32 0 0 0
SMALL
GASTEIGER

@<TRIPOS>ATOM
      1 C           5.4066   -1.0070   33.9479 C.ar    1  UNL1       -0.0185
      2 C           4.7393   -2.2431   33.4221 C.ar    1  UNL1       -0.0041
      3 C           5.5235   -3.2313   32.6105 C.ar    1  UNL1        0.0057
      4 C           6.9750   -2.9833   32.3248 C.ar    1  UNL1        0.0696
      5 C           7.6423   -1.7471   32.8507 C.ar    1  UNL1        0.0095
      6 C           6.8581   -0.7589   33.6622 C.ar    1  UNL1        0.0677
      7 C           2.2699    2.9456   37.1941 C.2     1  UNL1        0.2251
      8 O           1.4452    3.9936   36.5074 O.2     1  UNL1       -0.2749
      9 N           3.0541    1.9575   36.3826 N.am    1  UNL1       -0.2795
     10 C           3.8788    0.9095   37.0692 C.3     1  UNL1        0.0937
     11 C           4.6629   -0.0787   36.2577 C.3     1  UNL1        0.0259
     12 C           4.6224   -0.0188   34.7595 C.3     1  UNL1        0.0257
     13 C           3.7978    1.0292   34.0728 C.3     1  UNL1        0.0259
     14 C           3.0136    2.0173   34.8843 C.3     1  UNL1        0.0937
     15 C           1.2793    2.0929   39.4394 C.3     1  UNL1        0.0096
     16 C           2.3104    2.8858   38.6923 C.3     1  UNL1        0.0767
     17 C           3.3820    3.6189   39.4436 C.3     1  UNL1        0.0096
     18 C           7.7592   -3.9714   31.5133 C.2     1  UNL1        0.3078
     19 O           9.2325   -3.7751   31.3117 O.2     1  UNL1       -0.2516
     20 N           7.0700   -5.1559   30.9033 N.am    1  UNL1       -0.1708
     21 H           6.1030   -5.2847   31.0356 H       1  UNL1        0.2545
     22 C           7.8542   -6.1440   30.0917 C.2     1  UNL1        0.3751
     23 N           9.1122   -6.7416   30.6487 N.pl3   1  UNL1       -0.1313
     24 N           7.3803   -6.5346   28.7231 N.pl3   1  UNL1       -0.2906
     25 H           9.4232   -6.4853   31.5469 H       1  UNL1        0.3060
     26 H           6.5546   -6.1423   28.3576 H       1  UNL1        0.2545
     27 H           7.8950   -7.1831   28.1905 H       1  UNL1        0.2545
     28 C           7.5255    0.4773   34.1881 C.3     1  UNL1        0.4183
     29 F           8.1928    1.7134   34.7139 F       1  UNL1       -0.1659
     30 F           7.1242    1.2211   32.9489 F       1  UNL1       -0.1659
     31 F           7.9268   -0.2665   35.4273 F       1  UNL1       -0.1659
@<TRIPOS>BOND
     1    15    16    1
     2    16    17    1
     3    16     7    1
     4     7     8    2
     5     7     9   am
     6     9    10    1
     7    10    11    1
     8    11    12    1
     9    12     1    1
    10     1     2   ar
    11     2     3   ar
    12     3     4   ar
    13     4    18    1
    14    18    19    2
    15    18    20   am
    16    20    22    1
    17    22    23    2
    18    22    24    1
    19     4     5   ar
    20     5     6   ar
    21     6    28    1
    22    28    29    1
    23    28    30    1
    24    28    31    1
    25    12    13    1
    26    13    14    1
    27    14     9    1
    28     6     1   ar
    29    20    21    1
    30    23    25    1
    31    24    26    1
    32    24    27    1
@<TRIPOS>MOLECULE
*****
 31 32 0 0 0
SMALL
GASTEIGER

@<TRIPOS>ATOM
      1 C         -14.7296   -4.4439   17.9009 C.ar    1  UNL1       -0.0185
      2 C         -15.0841   -5.2327   16.6754 C.ar    1  UNL1       -0.0041
      3 C         -15.4607   -6.6795   16.7977 C.ar    1  UNL1        0.0057
      4 C         -15.4828   -7.3375   18.1455 C.ar    1  UNL1        0.0696
      5 C         -15.1283   -6.5486   19.3710 C.ar    1  UNL1        0.0095
      6 C         -14.7517   -5.1018   19.2487 C.ar    1  UNL1        0.0677
      7 C         -13.2232    1.3433   17.4118 C.2     1  UNL1        0.2251
      8 O         -11.7775    1.7421   17.3820 O.2     1  UNL1       -0.2749
      9 N         -13.5998   -0.1035   17.5341 N.am    1  UNL1       -0.2795
     10 C         -15.0455   -0.5022   17.5639 C.3     1  UNL1        0.0937
     11 C         -15.4221   -1.9490   17.6862 C.3     1  UNL1        0.0259
     12 C         -14.3530   -2.9971   17.7786 C.3     1  UNL1        0.0257
     13 C         -12.9073   -2.5983   17.7488 C.3     1  UNL1        0.0259
     14 C         -12.5307   -1.1515   17.6266 C.3     1  UNL1        0.0937
     15 C         -14.9674    2.8859   18.5642 C.3     1  UNL1        0.0096
     16 C         -14.2923    2.3914   17.3194 C.3     1  UNL1        0.0767
     17 C         -14.6863    2.9449   15.9820 C.3     1  UNL1        0.0096
     18 C         -15.8594   -8.7843   18.2677 C.2     1  UNL1        0.3078
     19 O         -14.7932   -9.8394   18.2677 O.2     1  UNL1       -0.2516
     20 N         -17.3021   -9.1760   18.3900 N.am    1  UNL1       -0.1708
     21 H         -18.0019   -8.4835   18.3901 H       1  UNL1        0.2545
     22 C         -17.6787  -10.6228   18.5123 C.2     1  UNL1        0.3751
     23 N         -18.9778  -11.1103   17.9426 N.pl3   1  UNL1       -0.1313
     24 N         -16.7562  -11.5820   19.2044 N.pl3   1  UNL1       -0.2906
     25 H         -19.5833  -10.4808   17.4884 H       1  UNL1        0.3060
     26 H         -15.9035  -11.2620   19.5783 H       1  UNL1        0.2545
     27 H         -17.0033  -12.5316   19.2846 H       1  UNL1        0.2545
     28 C         -14.3971   -4.3129   20.4743 C.3     1  UNL1        0.4183
     29 F         -14.0426   -3.5241   21.6999 F       1  UNL1       -0.1659
     30 F         -15.8319   -3.9025   20.6252 F       1  UNL1       -0.1659
     31 F         -12.9623   -4.7234   20.3234 F       1  UNL1       -0.1659
@<TRIPOS>BOND
     1    15    16    1
     2    16    17    1
     3    16     7    1
     4     7     8    2
     5     7     9   am
     6     9    10    1
     7    10    11    1
     8    11    12    1
     9    12     1    1
    10     1     2   ar
    11     2     3   ar
    12     3     4   ar
    13     4    18    1
    14    18    19    2
    15    18    20   am
    16    20    22    1
    17    22    23    2
    18    22    24    1
    19     4     5   ar
    20     5     6   ar
    21     6    28    1
    22    28    29    1
    23    28    30    1
    24    28    31    1
    25    12    13    1
    26    13    14    1
    27    14     9    1
    28     6     1   ar
    29    20    21    1
    30    23    25    1
    31    24    26    1
    32    24    27    1
@<TRIPOS>MOLECULE
*****
 31 32 0 0 0
SMALL
GASTEIGER

@<TRIPOS>ATOM
      1 C           6.5295   -3.7658   25.1645 C.ar    1  UNL1       -0.0185
      2 C           6.9318   -5.1156   25.6805 C.ar    1  UNL1       -0.0041
      3 C           7.0200   -5.3579   27.1582 C.ar    1  UNL1        0.0057
      4 C           6.7060   -4.2505   28.1199 C.ar    1  UNL1        0.0696
      5 C           6.3037   -2.9007   27.6039 C.ar    1  UNL1        0.0095
      6 C           6.2154   -2.6584   26.1262 C.ar    1  UNL1        0.0677
      7 C           6.1765   -2.7965   19.2539 C.2     1  UNL1        0.2251
      8 O           7.3978   -2.3831   18.4874 O.2     1  UNL1       -0.2749
      9 N           6.2648   -3.0388   20.7315 N.am    1  UNL1       -0.2795
     10 C           5.0435   -3.4523   21.4980 C.3     1  UNL1        0.0937
     11 C           5.1317   -3.6946   22.9757 C.3     1  UNL1        0.0259
     12 C           6.4412   -3.5235   23.6869 C.3     1  UNL1        0.0257
     13 C           7.6625   -3.1100   22.9204 C.3     1  UNL1        0.0259
     14 C           7.5743   -2.8677   21.4427 C.3     1  UNL1        0.0937
     15 C           4.2065   -1.7878   17.8933 C.3     1  UNL1        0.0096
     16 C           4.8670   -2.9676   18.5427 C.3     1  UNL1        0.0767
     17 C           4.2180   -4.3186   18.4808 C.3     1  UNL1        0.0096
     18 C           6.7942   -4.4928   29.5975 C.2     1  UNL1        0.3078
     19 O           6.3421   -3.4344   30.5594 O.2     1  UNL1       -0.2516
     20 N           7.3345   -5.7935   30.1133 N.am    1  UNL1       -0.1708
     21 H           7.6313   -6.4882   29.4819 H       1  UNL1        0.2545
     22 C           7.4228   -6.0359   31.5909 C.2     1  UNL1        0.3751
     23 N           8.5903   -6.7866   32.1594 N.pl3   1  UNL1       -0.1313
     24 N           6.3434   -5.5274   32.5001 N.pl3   1  UNL1       -0.2906
     25 H           9.2987   -7.1203   31.5627 H       1  UNL1        0.3060
     26 H           5.5771   -5.0346   32.1270 H       1  UNL1        0.2545
     27 H           6.4013   -5.6864   33.4700 H       1  UNL1        0.2545
     28 C           5.8131   -1.3085   25.6103 C.3     1  UNL1        0.4183
     29 F           5.4109    0.0413   25.0944 F       1  UNL1       -0.1659
     30 F           4.3726   -1.7252   25.6434 F       1  UNL1       -0.1659
     31 F           7.2537   -0.8919   25.5772 F       1  UNL1       -0.1659
@<TRIPOS>BOND
     1    15    16    1
     2    16    17    1
     3    16     7    1
     4     7     8    2
     5     7     9   am
     6     9    10    1
     7    10    11    1
     8    11    12    1
     9    12     1    1
    10     1     2   ar
    11     2     3   ar
    12     3     4   ar
    13     4    18    1
    14    18    19    2
    15    18    20   am
    16    20    22    1
    17    22    23    2
    18    22    24    1
    19     4     5   ar
    20     5     6   ar
    21     6    28    1
    22    28    29    1
    23    28    30    1
    24    28    31    1
    25    12    13    1
    26    13    14    1
    27    14     9    1
    28     6     1   ar
    29    20    21    1
    30    23    25    1
    31    24    26    1
    32    24    27    1
@<TRIPOS>MOLECULE
*****
 31 32 0 0 0
SMALL
GASTEIGER

@<TRIPOS>ATOM
      1 C           3.6566   -0.9798   21.6951 C.ar    1  UNL1       -0.0185
      2 C           2.8827   -0.0243   22.5542 C.ar    1  UNL1       -0.0041
      3 C           1.7636    0.7795   21.9614 C.ar    1  UNL1        0.0057
      4 C           1.4183    0.6279   20.5096 C.ar    1  UNL1        0.0696
      5 C           2.1922   -0.3276   19.6506 C.ar    1  UNL1        0.0095
      6 C           3.3114   -1.1315   20.2433 C.ar    1  UNL1        0.0677
      7 C           8.1333   -4.1951   24.0660 C.2     1  UNL1        0.2251
      8 O           9.5194   -3.6245   24.1207 O.2     1  UNL1       -0.2749
      9 N           7.0141   -3.3913   23.4733 N.am    1  UNL1       -0.2795
     10 C           5.6280   -3.9619   23.4187 C.3     1  UNL1        0.0937
     11 C           4.5088   -3.1581   22.8259 C.3     1  UNL1        0.0259
     12 C           4.7758   -1.7836   22.2878 C.3     1  UNL1        0.0257
     13 C           6.1619   -1.2130   22.3425 C.3     1  UNL1        0.0259
     14 C           7.2811   -2.0169   22.9352 C.3     1  UNL1        0.0937
     15 C           8.2391   -6.7769   23.7959 C.3     1  UNL1        0.0096
     16 C           7.8663   -5.5696   24.6041 C.3     1  UNL1        0.0767
     17 C           7.2266   -5.7367   25.9506 C.3     1  UNL1        0.0096
     18 C           0.2992    1.4317   19.9169 C.2     1  UNL1        0.3078
     19 O           0.1913    1.5836   18.4286 O.2     1  UNL1       -0.2516
     20 N          -0.7122    2.0836   20.8125 N.am    1  UNL1       -0.1708
     21 H          -0.6414    1.9838   21.7894 H       1  UNL1        0.2545
     22 C          -1.8314    2.8874   20.2198 C.2     1  UNL1        0.3751
     23 N          -1.5462    3.8855   19.1370 N.pl3   1  UNL1       -0.1313
     24 N          -3.2357    2.6931   20.7099 N.pl3   1  UNL1       -0.2906
     25 H          -0.6245    4.0131   18.8154 H       1  UNL1        0.3060
     26 H          -3.4228    2.0380   21.4206 H       1  UNL1        0.2545
     27 H          -3.9703    3.2206   20.3209 H       1  UNL1        0.2545
     28 C           4.0853   -2.0870   19.3842 C.3     1  UNL1        0.4183
     29 F           4.8592   -3.0425   18.5251 F       1  UNL1       -0.1659
     30 F           5.0776   -1.0055   19.0751 F       1  UNL1       -0.1659
     31 F           3.0930   -3.1685   19.6933 F       1  UNL1       -0.1659
@<TRIPOS>BOND
     1    15    16    1
     2    16    17    1
     3    16     7    1
     4     7     8    2
     5     7     9   am
     6     9    10    1
     7    10    11    1
     8    11    12    1
     9    12     1    1
    10     1     2   ar
    11     2     3   ar
    12     3     4   ar
    13     4    18    1
    14    18    19    2
    15    18    20   am
    16    20    22    1
    17    22    23    2
    18    22    24    1
    19     4     5   ar
    20     5     6   ar
    21     6    28    1
    22    28    29    1
    23    28    30    1
    24    28    31    1
    25    12    13    1
    26    13    14    1
    27    14     9    1
    28     6     1   ar
    29    20    21    1
    30    23    25    1
    31    24    26    1
    32    24    27    1
@<TRIPOS>MOLECULE
*****
 31 32 0 0 0
SMALL
GASTEIGER

@<TRIPOS>ATOM
      1 C         -16.3192   -4.0277   19.2795 C.ar    1  UNL1       -0.0185
      2 C         -17.6799   -4.5988   19.0107 C.ar    1  UNL1       -0.0041
      3 C         -17.8892   -6.0839   19.0402 C.ar    1  UNL1        0.0057
      4 C         -16.7378   -6.9978   19.3384 C.ar    1  UNL1        0.0696
      5 C         -15.3771   -6.4267   19.6073 C.ar    1  UNL1        0.0095
      6 C         -15.1678   -4.9417   19.5778 C.ar    1  UNL1        0.0677
      7 C         -15.4820    1.9124   19.1616 C.2     1  UNL1        0.2251
      8 O         -14.3051    2.4896   18.4324 O.2     1  UNL1       -0.2749
      9 N         -15.6913    0.4274   19.1911 N.am    1  UNL1       -0.2795
     10 C         -16.8681   -0.1499   19.9203 C.3     1  UNL1        0.0937
     11 C         -17.0774   -1.6349   19.9498 C.3     1  UNL1        0.0259
     12 C         -16.1099   -2.5427   19.2500 C.3     1  UNL1        0.0257
     13 C         -14.9331   -1.9655   18.5208 C.3     1  UNL1        0.0259
     14 C         -14.7238   -0.4805   18.4913 C.3     1  UNL1        0.0937
     15 C         -16.1799    3.2615   21.2694 C.3     1  UNL1        0.0096
     16 C         -16.4495    2.8202   19.8614 C.3     1  UNL1        0.0767
     17 C         -17.6868    3.2868   19.1531 C.3     1  UNL1        0.0096
     18 C         -16.9471   -8.4828   19.3679 C.2     1  UNL1        0.3078
     19 O         -16.2753   -9.3142   20.4202 O.2     1  UNL1       -0.2516
     20 N         -17.8283   -9.1365   18.3451 N.am    1  UNL1       -0.1708
     21 H         -18.2693   -8.5908   17.6544 H       1  UNL1        0.2545
     22 C         -18.0376  -10.6215   18.3746 C.2     1  UNL1        0.3751
     23 N         -16.9318  -11.5259   18.8319 N.pl3   1  UNL1       -0.1313
     24 N         -19.3529  -11.2022   17.9467 N.pl3   1  UNL1       -0.2906
     25 H         -16.0686  -11.1448   19.1127 H       1  UNL1        0.3060
     26 H         -20.0787  -10.6086   17.6465 H       1  UNL1        0.2545
     27 H         -19.4903  -12.1769   17.9660 H       1  UNL1        0.2545
     28 C         -13.8070   -4.3706   19.8466 C.3     1  UNL1        0.4183
     29 F         -12.4463   -3.7995   20.1154 F       1  UNL1       -0.1659
     30 F         -14.2285   -4.0240   21.2438 F       1  UNL1       -0.1659
     31 F         -13.3856   -4.7171   18.4494 F       1  UNL1       -0.1659
@<TRIPOS>BOND
     1    15    16    1
     2    16    17    1
     3    16     7    1
     4     7     8    2
     5     7     9   am
     6     9    10    1
     7    10    11    1
     8    11    12    1
     9    12     1    1
    10     1     2   ar
    11     2     3   ar
    12     3     4   ar
    13     4    18    1
    14    18    19    2
    15    18    20   am
    16    20    22    1
    17    22    23    2
    18    22    24    1
    19     4     5   ar
    20     5     6   ar
    21     6    28    1
    22    28    29    1
    23    28    30    1
    24    28    31    1
    25    12    13    1
    26    13    14    1
    27    14     9    1
    28     6     1   ar
    29    20    21    1
    30    23    25    1
    31    24    26    1
    32    24    27    1
@<TRIPOS>MOLECULE
*****
 31 32 0 0 0
SMALL
GASTEIGER

@<TRIPOS>ATOM
      1 C          -1.4005    2.6362   26.7060 C.ar    1  UNL1       -0.0185
      2 C          -2.7469    3.1418   27.1323 C.ar    1  UNL1       -0.0041
      3 C          -3.7033    3.6816   26.1105 C.ar    1  UNL1        0.0057
      4 C          -3.3133    3.7158   24.6626 C.ar    1  UNL1        0.0696
      5 C          -1.9670    3.2103   24.2363 C.ar    1  UNL1        0.0095
      6 C          -1.0106    2.6704   25.2580 C.ar    1  UNL1        0.0677
      7 C           2.4250    0.4769   30.7928 C.2     1  UNL1        0.2251
      8 O           2.4403   -0.9903   31.1045 O.2     1  UNL1       -0.2749
      9 N           1.4686    1.0167   29.7711 N.am    1  UNL1       -0.2795
     10 C           1.4534    2.4839   29.4595 C.3     1  UNL1        0.0937
     11 C           0.4970    3.0237   28.4377 C.3     1  UNL1        0.0259
     12 C          -0.4441    2.0964   27.7277 C.3     1  UNL1        0.0257
     13 C          -0.4289    0.6292   28.0393 C.3     1  UNL1        0.0259
     14 C           0.5275    0.0894   29.0610 C.3     1  UNL1        0.0937
     15 C           4.7143    1.6993   30.9150 C.3     1  UNL1        0.0096
     16 C           3.3662    1.4042   31.5029 C.3     1  UNL1        0.0767
     17 C           2.9593    2.0366   32.8008 C.3     1  UNL1        0.0096
     18 C          -4.2697    4.2557   23.6408 C.2     1  UNL1        0.3078
     19 O          -3.8804    5.4335   22.7976 O.2     1  UNL1       -0.2516
     20 N          -5.6155    3.6177   23.4624 N.am    1  UNL1       -0.1708
     21 H          -5.8711    2.8447   24.0159 H       1  UNL1        0.2545
     22 C          -6.5719    4.1575   22.4407 C.2     1  UNL1        0.3751
     23 N          -7.9772    4.5013   22.8367 N.pl3   1  UNL1       -0.1313
     24 N          -6.1229    4.3536   21.0229 N.pl3   1  UNL1       -0.2906
     25 H          -8.2719    4.3726   23.7672 H       1  UNL1        0.3060
     26 H          -5.2005    4.1279   20.7630 H       1  UNL1        0.2545
     27 H          -6.7506    4.7079   20.3523 H       1  UNL1        0.2545
     28 C           0.3358    2.1648   24.8316 C.3     1  UNL1        0.4183
     29 F           1.6820    1.6592   24.4053 F       1  UNL1       -0.1659
     30 F           0.8890    3.5556   24.9293 F       1  UNL1       -0.1659
     31 F          -0.2175    0.7741   24.7339 F       1  UNL1       -0.1659
@<TRIPOS>BOND
     1    15    16    1
     2    16    17    1
     3    16     7    1
     4     7     8    2
     5     7     9   am
     6     9    10    1
     7    10    11    1
     8    11    12    1
     9    12     1    1
    10     1     2   ar
    11     2     3   ar
    12     3     4   ar
    13     4    18    1
    14    18    19    2
    15    18    20   am
    16    20    22    1
    17    22    23    2
    18    22    24    1
    19     4     5   ar
    20     5     6   ar
    21     6    28    1
    22    28    29    1
    23    28    30    1
    24    28    31    1
    25    12    13    1
    26    13    14    1
    27    14     9    1
    28     6     1   ar
    29    20    21    1
    30    23    25    1
    31    24    26    1
    32    24    27    1
