@<TRIPOS>MOLECULE
*****
 32 35 0 0 0
SMALL
GASTEIGER

@<TRIPOS>ATOM
      1 N          -7.3426  -17.3125   22.5017 N.ar    1  UNL1       -0.3068
      2 C          -8.5161  -18.0780   21.9661 C.ar    1  UNL1        0.1142
      3 C          -7.9931  -19.2914   21.2561 C.ar    1  UNL1        0.0515
      4 C          -6.4963  -19.2758   21.3529 C.ar    1  UNL1        0.0871
      5 C          -6.0943  -18.0528   22.1227 C.ar    1  UNL1        0.1342
      6 C          -4.6434  -17.7713   22.3790 C.ar    1  UNL1        0.2816
      7 O          -4.2413  -16.5483   23.1489 O.2     1  UNL1       -0.2652
      8 N          -3.5946  -18.7128   21.8656 N.ar    1  UNL1       -0.2455
      9 C          -2.1437  -18.4312   22.1220 C.3     1  UNL1        0.1383
     10 C          -3.9967  -19.9358   21.0959 C.ar    1  UNL1        0.3339
     11 O          -2.9478  -20.8773   20.5824 O.2     1  UNL1       -0.2462
     12 N          -5.4476  -20.2173   20.8394 N.ar    1  UNL1       -0.2776
     13 C          -5.8496  -21.4404   20.0696 C.3     1  UNL1        0.1351
     14 N          -9.9593  -17.6969   22.1145 N.pl3   1  UNL1       -0.2932
     15 C         -10.5793  -16.7206   21.1593 C.3     1  UNL1        0.0922
     16 C         -12.0225  -16.3396   21.3078 C.3     1  UNL1        0.0228
     17 C         -12.8457  -16.9348   22.4114 C.3     1  UNL1        0.0177
     18 C         -12.2257  -17.9111   23.3667 C.3     1  UNL1        0.0575
     19 C         -12.0906  -18.8708   24.5115 C.3     1  UNL1        0.0173
     20 N         -13.6220  -17.8633   23.9127 N.3     1  UNL1       -0.3219
     21 C         -10.7825  -18.2921   23.2182 C.3     1  UNL1        0.1062
     22 H         -14.1842  -17.2224   23.3529 H       1  UNL1        0.1188
     23 H         -13.5980  -17.5391   24.8795 H       1  UNL1        0.1188
     24 C          -7.4062  -16.0316   23.2797 C.3     1  UNL1        0.1338
     25 C          -5.3022  -14.6323   24.8969 C.3     1  UNL1        0.0308
     26 C          -6.4133  -15.3667   25.5867 C.ar    1  UNL1       -0.0238
     27 C          -6.4725  -15.4015   27.0852 C.ar    1  UNL1       -0.0022
     28 C          -7.5836  -16.1360   27.7750 C.ar    1  UNL1        0.0293
     29 C          -8.6357  -16.8356   26.9664 C.ar    1  UNL1        0.1399
     30 F          -9.7468  -17.5701   27.6563 F       1  UNL1       -0.2042
     31 C          -8.5765  -16.8008   25.4680 C.ar    1  UNL1        0.0269
     32 C          -7.4653  -16.0664   24.7781 C.ar    1  UNL1       -0.0013
@<TRIPOS>BOND
     1    25    26    1
     2    26    27   ar
     3    27    28   ar
     4    28    29   ar
     5    29    30    1
     6    29    31   ar
     7    31    32   ar
     8    32    24    1
     9    24     1    1
    10     1     2   ar
    11     2    14    1
    12    14    15    1
    13    15    16    1
    14    16    17    1
    15    17    18    1
    16    18    19    1
    17    18    20    1
    18    18    21    1
    19     2     3   ar
    20     3     4   ar
    21     4     5   ar
    22     5     6   ar
    23     6     7    2
    24     6     8   ar
    25     8     9    1
    26     8    10   ar
    27    10    11    2
    28    10    12   ar
    29    12    13    1
    30    32    26   ar
    31     5     1   ar
    32    21    14    1
    33    12     4   ar
    34    20    22    1
    35    20    23    1
@<TRIPOS>MOLECULE
*****
 32 35 0 0 0
SMALL
GASTEIGER

@<TRIPOS>ATOM
      1 N          -7.3747  -17.3778   22.3710 N.ar    1  UNL1       -0.3068
      2 C          -8.2982  -18.2723   21.5983 C.ar    1  UNL1        0.1142
      3 C          -7.4830  -19.3891   21.0167 C.ar    1  UNL1        0.0515
      4 C          -6.0556  -19.1848   21.4300 C.ar    1  UNL1        0.0871
      5 C          -5.9886  -17.9418   22.2670 C.ar    1  UNL1        0.1342
      6 C          -4.6742  -17.4842   22.8263 C.ar    1  UNL1        0.2816
      7 O          -4.6072  -16.2412   23.6632 O.2     1  UNL1       -0.2652
      8 N          -3.4268  -18.2695   22.5486 N.ar    1  UNL1       -0.2455
      9 C          -2.1123  -17.8118   23.1079 C.3     1  UNL1        0.1383
     10 C          -3.4937  -19.5124   21.7117 C.ar    1  UNL1        0.3339
     11 O          -2.2462  -20.2978   21.4340 O.2     1  UNL1       -0.2462
     12 N          -4.8082  -19.9702   21.1524 N.ar    1  UNL1       -0.2776
     13 C          -4.8751  -21.2132   20.3154 C.3     1  UNL1        0.1351
     14 N          -9.7774  -18.0831   21.4357 N.pl3   1  UNL1       -0.2932
     15 C         -10.7310  -19.0634   22.0517 C.3     1  UNL1        0.0922
     16 C         -12.2102  -18.8741   21.8890 C.3     1  UNL1        0.0228
     17 C         -12.7356  -17.7046   21.1105 C.3     1  UNL1        0.0177
     18 C         -11.7819  -16.7243   20.4945 C.3     1  UNL1        0.0575
     19 C         -11.2815  -15.5348   19.7298 C.3     1  UNL1        0.0173
     20 N         -13.0872  -16.1220   20.0663 N.3     1  UNL1       -0.3219
     21 C         -10.3028  -16.9136   20.6571 C.3     1  UNL1        0.1062
     22 H         -13.8564  -16.6917   20.4187 H       1  UNL1        0.1188
     23 H         -13.1281  -16.0880   19.0477 H       1  UNL1        0.1188
     24 C          -7.7681  -16.1372   23.1167 C.3     1  UNL1        0.1338
     25 C          -9.7557  -17.8482   24.5735 C.3     1  UNL1        0.0308
     26 C          -8.7914  -16.9968   25.3448 C.ar    1  UNL1       -0.0238
     27 C          -8.8207  -17.0007   26.8445 C.ar    1  UNL1       -0.0022
     28 C          -7.8564  -16.1493   27.6159 C.ar    1  UNL1        0.0293
     29 C          -6.8625  -15.2938   26.8874 C.ar    1  UNL1        0.1399
     30 F          -5.8982  -14.4423   27.6588 F       1  UNL1       -0.2042
     31 C          -6.8331  -15.2898   25.3878 C.ar    1  UNL1        0.0269
     32 C          -7.7975  -16.1413   24.6164 C.ar    1  UNL1       -0.0013
@<TRIPOS>BOND
     1    25    26    1
     2    26    27   ar
     3    27    28   ar
     4    28    29   ar
     5    29    30    1
     6    29    31   ar
     7    31    32   ar
     8    32    24    1
     9    24     1    1
    10     1     2   ar
    11     2    14    1
    12    14    15    1
    13    15    16    1
    14    16    17    1
    15    17    18    1
    16    18    19    1
    17    18    20    1
    18    18    21    1
    19     2     3   ar
    20     3     4   ar
    21     4     5   ar
    22     5     6   ar
    23     6     7    2
    24     6     8   ar
    25     8     9    1
    26     8    10   ar
    27    10    11    2
    28    10    12   ar
    29    12    13    1
    30    32    26   ar
    31     5     1   ar
    32    21    14    1
    33    12     4   ar
    34    20    22    1
    35    20    23    1
@<TRIPOS>MOLECULE
*****
 32 35 0 0 0
SMALL
GASTEIGER

@<TRIPOS>ATOM
      1 N         -13.8099   -3.5350   18.5282 N.ar    1  UNL1       -0.3068
      2 C         -12.6367   -3.8819   17.6602 C.ar    1  UNL1        0.1142
      3 C         -12.0731   -2.6051   17.1105 C.ar    1  UNL1        0.0515
      4 C         -12.8980   -1.4691   17.6389 C.ar    1  UNL1        0.0871
      5 C         -13.9713   -2.0438   18.5150 C.ar    1  UNL1        0.1342
      6 C         -14.9570   -1.1350   19.1876 C.ar    1  UNL1        0.2816
      7 O         -16.0304   -1.7097   20.0638 O.2     1  UNL1       -0.2652
      8 N         -14.8694    0.3486   18.9841 N.ar    1  UNL1       -0.2455
      9 C         -15.8552    1.2574   19.6567 C.3     1  UNL1        0.1383
     10 C         -13.7961    0.9233   18.1080 C.ar    1  UNL1        0.3339
     11 O         -13.7085    2.4069   17.9044 O.2     1  UNL1       -0.2462
     12 N         -12.8103    0.0145   17.4353 N.ar    1  UNL1       -0.2776
     13 C         -11.7370    0.5893   16.5591 C.3     1  UNL1        0.1351
     14 N         -12.1182   -5.2631   17.3894 N.pl3   1  UNL1       -0.2932
     15 C         -12.6806   -6.0661   16.2541 C.3     1  UNL1        0.0922
     16 C         -12.1620   -7.4474   15.9834 C.3     1  UNL1        0.0228
     17 C         -11.0811   -8.0256   16.8478 C.3     1  UNL1        0.0177
     18 C         -10.5187   -7.2226   17.9831 C.3     1  UNL1        0.0575
     19 C          -9.6744   -6.8549   19.1671 C.3     1  UNL1        0.0173
     20 N          -9.7070   -8.4761   18.1235 N.3     1  UNL1       -0.3219
     21 C         -11.0373   -5.8413   18.2538 C.3     1  UNL1        0.1062
     22 H          -9.9808   -9.1413   17.4004 H       1  UNL1        0.1188
     23 H          -9.8713   -8.8864   19.0428 H       1  UNL1        0.1188
     24 C         -14.6704   -4.5084   19.2778 C.3     1  UNL1        0.1338
     25 C         -16.8438   -4.2247   17.2294 C.3     1  UNL1        0.0308
     26 C         -16.2956   -5.5816   17.5581 C.ar    1  UNL1       -0.0238
     27 C         -16.8341   -6.7967   16.8627 C.ar    1  UNL1       -0.0022
     28 C         -16.2859   -8.1537   17.1915 C.ar    1  UNL1        0.0293
     29 C         -15.1992   -8.2956   18.2157 C.ar    1  UNL1        0.1399
     30 F         -14.6510   -9.6526   18.5444 F       1  UNL1       -0.2042
     31 C         -14.6607   -7.0805   18.9111 C.ar    1  UNL1        0.0269
     32 C         -15.2089   -5.7235   18.5823 C.ar    1  UNL1       -0.0013
@<TRIPOS>BOND
     1    25    26    1
     2    26    27   ar
     3    27    28   ar
     4    28    29   ar
     5    29    30    1
     6    29    31   ar
     7    31    32   ar
     8    32    24    1
     9    24     1    1
    10     1     2   ar
    11     2    14    1
    12    14    15    1
    13    15    16    1
    14    16    17    1
    15    17    18    1
    16    18    19    1
    17    18    20    1
    18    18    21    1
    19     2     3   ar
    20     3     4   ar
    21     4     5   ar
    22     5     6   ar
    23     6     7    2
    24     6     8   ar
    25     8     9    1
    26     8    10   ar
    27    10    11    2
    28    10    12   ar
    29    12    13    1
    30    32    26   ar
    31     5     1   ar
    32    21    14    1
    33    12     4   ar
    34    20    22    1
    35    20    23    1
@<TRIPOS>MOLECULE
*****
 32 35 0 0 0
SMALL
GASTEIGER

@<TRIPOS>ATOM
      1 N          -6.7735  -18.5767   22.0787 N.ar    1  UNL1       -0.3068
      2 C          -7.4581  -17.3952   22.6996 C.ar    1  UNL1        0.1142
      3 C          -8.7641  -17.1908   21.9907 C.ar    1  UNL1        0.0515
      4 C          -8.8867  -18.2460   20.9316 C.ar    1  UNL1        0.0871
      5 C          -7.6564  -19.1024   20.9859 C.ar    1  UNL1        0.1342
      6 C          -7.4991  -20.2504   20.0334 C.ar    1  UNL1        0.2816
      7 O          -6.2688  -21.1069   20.0878 O.2     1  UNL1       -0.2652
      8 N          -8.5720  -20.5419   19.0265 N.ar    1  UNL1       -0.2455
      9 C          -8.4146  -21.6900   18.0739 C.3     1  UNL1        0.1383
     10 C          -9.8021  -19.6855   18.9721 C.ar    1  UNL1        0.3339
     11 O         -10.8751  -19.9771   17.9651 O.2     1  UNL1       -0.2462
     12 N          -9.9596  -18.5375   19.9246 N.ar    1  UNL1       -0.2776
     13 C         -11.1899  -17.6810   19.8702 C.3     1  UNL1        0.1351
     14 N          -6.9295  -16.5641   23.8309 N.pl3   1  UNL1       -0.2932
     15 C          -5.6488  -15.8008   23.6662 C.3     1  UNL1        0.0922
     16 C          -5.1203  -14.9697   24.7975 C.3     1  UNL1        0.0228
     17 C          -5.8724  -14.9019   26.0936 C.3     1  UNL1        0.0177
     18 C          -7.1531  -15.6652   26.2583 C.3     1  UNL1        0.0575
     19 C          -8.4007  -16.2050   26.8924 C.3     1  UNL1        0.0173
     20 N          -7.0578  -15.0216   27.6099 N.3     1  UNL1       -0.3219
     21 C          -7.6816  -16.4963   25.1270 C.3     1  UNL1        0.1062
     22 H          -6.2132  -14.4516   27.6562 H       1  UNL1        0.1188
     23 H          -7.0201  -15.7443   28.3287 H       1  UNL1        0.1188
     24 C          -5.4402  -19.1343   22.4800 C.3     1  UNL1        0.1338
     25 C          -3.2548  -17.9724   24.1754 C.3     1  UNL1        0.0308
     26 C          -3.0943  -18.0366   22.6854 C.ar    1  UNL1       -0.0238
     27 C          -1.8412  -17.5198   22.0431 C.ar    1  UNL1       -0.0022
     28 C          -1.6806  -17.5840   20.5531 C.ar    1  UNL1        0.0293
     29 C          -2.7734  -18.1650   19.7054 C.ar    1  UNL1        0.1399
     30 F          -2.6128  -18.2292   18.2154 F       1  UNL1       -0.2042
     31 C          -4.0265  -18.6818   20.3477 C.ar    1  UNL1        0.0269
     32 C          -4.1870  -18.6176   21.8377 C.ar    1  UNL1       -0.0013
@<TRIPOS>BOND
     1    25    26    1
     2    26    27   ar
     3    27    28   ar
     4    28    29   ar
     5    29    30    1
     6    29    31   ar
     7    31    32   ar
     8    32    24    1
     9    24     1    1
    10     1     2   ar
    11     2    14    1
    12    14    15    1
    13    15    16    1
    14    16    17    1
    15    17    18    1
    16    18    19    1
    17    18    20    1
    18    18    21    1
    19     2     3   ar
    20     3     4   ar
    21     4     5   ar
    22     5     6   ar
    23     6     7    2
    24     6     8   ar
    25     8     9    1
    26     8    10   ar
    27    10    11    2
    28    10    12   ar
    29    12    13    1
    30    32    26   ar
    31     5     1   ar
    32    21    14    1
    33    12     4   ar
    34    20    22    1
    35    20    23    1
@<TRIPOS>MOLECULE
*****
 32 35 0 0 0
SMALL
GASTEIGER

@<TRIPOS>ATOM
      1 N          -8.2389  -17.6441   21.8135 N.ar    1  UNL1       -0.3068
      2 C          -7.0133  -17.7099   22.6757 C.ar    1  UNL1        0.1142
      3 C          -6.1740  -18.8592   22.2016 C.ar    1  UNL1        0.0515
      4 C          -6.8810  -19.5037   21.0462 C.ar    1  UNL1        0.0871
      5 C          -8.1571  -18.7527   20.8063 C.ar    1  UNL1        0.1342
      6 C          -9.0798  -19.1754   19.7018 C.ar    1  UNL1        0.2816
      7 O         -10.3560  -18.4245   19.4620 O.2     1  UNL1       -0.2652
      8 N          -8.7264  -20.3491   18.8373 N.ar    1  UNL1       -0.2455
      9 C          -9.6492  -20.7718   17.7327 C.3     1  UNL1        0.1383
     10 C          -7.4503  -21.1000   19.0771 C.ar    1  UNL1        0.3339
     11 O          -7.0969  -22.2738   18.2124 O.2     1  UNL1       -0.2462
     12 N          -6.5276  -20.6774   20.1816 N.ar    1  UNL1       -0.2776
     13 C          -5.2514  -21.4284   20.4215 C.3     1  UNL1        0.1351
     14 N          -6.6846  -16.7882   23.8126 N.pl3   1  UNL1       -0.2932
     15 C          -5.3365  -16.1342   23.8822 C.3     1  UNL1        0.0922
     16 C          -5.0079  -15.2125   25.0191 C.3     1  UNL1        0.0228
     17 C          -6.0274  -14.9448   26.0864 C.3     1  UNL1        0.0177
     18 C          -7.3754  -15.5989   26.0169 C.3     1  UNL1        0.0575
     19 C          -8.7786  -15.9787   26.3867 C.3     1  UNL1        0.0173
     20 N          -7.5341  -14.8092   27.2822 N.3     1  UNL1       -0.3219
     21 C          -7.7040  -16.5206   24.8799 C.3     1  UNL1        0.1062
     22 H          -6.6746  -14.2936   27.4713 H       1  UNL1        0.1188
     23 H          -7.7275  -15.4437   28.0570 H       1  UNL1        0.1188
     24 C          -9.3510  -16.6451   21.9367 C.3     1  UNL1        0.1338
     25 C         -11.8238  -15.8593   20.4307 C.3     1  UNL1        0.0308
     26 C         -11.9356  -16.6877   21.6761 C.ar    1  UNL1       -0.0238
     27 C         -13.2839  -17.1232   22.1687 C.ar    1  UNL1       -0.0022
     28 C         -13.3957  -17.9516   23.4142 C.ar    1  UNL1        0.0293
     29 C         -12.1593  -18.3444   24.1672 C.ar    1  UNL1        0.1399
     30 F         -12.2712  -19.1728   25.4127 F       1  UNL1       -0.2042
     31 C         -10.8111  -17.9089   23.6747 C.ar    1  UNL1        0.0269
     32 C         -10.6992  -17.0805   22.4292 C.ar    1  UNL1       -0.0013
@<TRIPOS>BOND
     1    25    26    1
     2    26    27   ar
     3    27    28   ar
     4    28    29   ar
     5    29    30    1
     6    29    31   ar
     7    31    32   ar
     8    32    24    1
     9    24     1    1
    10     1     2   ar
    11     2    14    1
    12    14    15    1
    13    15    16    1
    14    16    17    1
    15    17    18    1
    16    18    19    1
    17    18    20    1
    18    18    21    1
    19     2     3   ar
    20     3     4   ar
    21     4     5   ar
    22     5     6   ar
    23     6     7    2
    24     6     8   ar
    25     8     9    1
    26     8    10   ar
    27    10    11    2
    28    10    12   ar
    29    12    13    1
    30    32    26   ar
    31     5     1   ar
    32    21    14    1
    33    12     4   ar
    34    20    22    1
    35    20    23    1
@<TRIPOS>MOLECULE
*****
 32 35 0 0 0
SMALL
GASTEIGER

@<TRIPOS>ATOM
      1 N           7.0102   -3.8312   22.8762 N.ar    1  UNL1       -0.3068
      2 C           6.3310   -2.5740   23.3324 C.ar    1  UNL1        0.1142
      3 C           6.1471   -2.6594   24.8186 C.ar    1  UNL1        0.0515
      4 C           6.7127   -3.9695   25.2810 C.ar    1  UNL1        0.0871
      5 C           7.2461   -4.6937   24.0806 C.ar    1  UNL1        0.1342
      6 C           7.8777   -6.0449   24.2392 C.ar    1  UNL1        0.2816
      7 O           8.4111   -6.7691   23.0388 O.2     1  UNL1       -0.2652
      8 N           7.9759   -6.6720   25.5983 N.ar    1  UNL1       -0.2455
      9 C           8.6075   -8.0233   25.7569 C.3     1  UNL1        0.1383
     10 C           7.4425   -5.9478   26.7987 C.ar    1  UNL1        0.3339
     11 O           7.5407   -6.5749   28.1579 O.2     1  UNL1       -0.2462
     12 N           6.8109   -4.5965   26.6401 N.ar    1  UNL1       -0.2776
     13 C           6.2775   -3.8724   27.8406 C.3     1  UNL1        0.1351
     14 N           5.9096   -1.4318   22.4561 N.pl3   1  UNL1       -0.2932
     15 C           6.8825   -0.3373   22.1310 C.3     1  UNL1        0.0922
     16 C           6.4610    0.8049   21.2547 C.3     1  UNL1        0.0228
     17 C           5.0668    0.8526   20.7034 C.3     1  UNL1        0.0177
     18 C           4.0940   -0.2419   21.0285 C.3     1  UNL1        0.0575
     19 C           2.8213   -1.0354   21.0520 C.3     1  UNL1        0.0173
     20 N           3.2306    0.6246   20.1603 N.3     1  UNL1       -0.3219
     21 C           4.5154   -1.3841   21.9048 C.3     1  UNL1        0.1062
     22 H           3.7658    1.4356   19.8501 H       1  UNL1        0.1188
     23 H           2.4182    0.9367   20.6923 H       1  UNL1        0.1188
     24 C           7.3872   -4.1669   21.4637 C.3     1  UNL1        0.1338
     25 C           8.4269   -2.1519   19.4994 C.3     1  UNL1        0.0308
     26 C           7.0406   -2.7032   19.3453 C.ar    1  UNL1       -0.0238
     27 C           6.1739   -2.2471   18.2091 C.ar    1  UNL1       -0.0022
     28 C           4.7875   -2.7984   18.0551 C.ar    1  UNL1        0.0293
     29 C           4.2677   -3.8060   19.0373 C.ar    1  UNL1        0.1399
     30 F           2.8812   -4.3574   18.8832 F       1  UNL1       -0.2042
     31 C           5.1342   -4.2622   20.1735 C.ar    1  UNL1        0.0269
     32 C           6.5207   -3.7108   20.3275 C.ar    1  UNL1       -0.0013
@<TRIPOS>BOND
     1    25    26    1
     2    26    27   ar
     3    27    28   ar
     4    28    29   ar
     5    29    30    1
     6    29    31   ar
     7    31    32   ar
     8    32    24    1
     9    24     1    1
    10     1     2   ar
    11     2    14    1
    12    14    15    1
    13    15    16    1
    14    16    17    1
    15    17    18    1
    16    18    19    1
    17    18    20    1
    18    18    21    1
    19     2     3   ar
    20     3     4   ar
    21     4     5   ar
    22     5     6   ar
    23     6     7    2
    24     6     8   ar
    25     8     9    1
    26     8    10   ar
    27    10    11    2
    28    10    12   ar
    29    12    13    1
    30    32    26   ar
    31     5     1   ar
    32    21    14    1
    33    12     4   ar
    34    20    22    1
    35    20    23    1
@<TRIPOS>MOLECULE
*****
 32 35 0 0 0
SMALL
GASTEIGER

@<TRIPOS>ATOM
      1 N           0.0206    2.9292   23.7544 N.ar    1  UNL1       -0.3068
      2 C           0.7361    1.8971   24.5746 C.ar    1  UNL1        0.1142
      3 C           1.2795    0.8573   23.6399 C.ar    1  UNL1        0.0515
      4 C           0.8998    1.2469   22.2421 C.ar    1  UNL1        0.0871
      5 C           0.1218    2.5274   22.3128 C.ar    1  UNL1        0.1342
      6 C          -0.3940    3.1620   21.0553 C.ar    1  UNL1        0.2816
      7 O          -1.1720    4.4426   21.1261 O.2     1  UNL1       -0.2652
      8 N          -0.1318    2.5161   19.7272 N.ar    1  UNL1       -0.2455
      9 C          -0.6476    3.1509   18.4697 C.3     1  UNL1        0.1383
     10 C           0.6462    1.2357   19.6564 C.ar    1  UNL1        0.3339
     11 O           0.9084    0.5898   18.3281 O.2     1  UNL1       -0.2462
     12 N           1.1620    0.6010   20.9139 N.ar    1  UNL1       -0.2776
     13 C           1.9400   -0.6796   20.8431 C.3     1  UNL1        0.1351
     14 N           0.8825    1.9036   26.0674 N.pl3   1  UNL1       -0.2932
     15 C           1.9676    2.7149   26.7111 C.3     1  UNL1        0.0922
     16 C           2.1139    2.7213   28.2040 C.3     1  UNL1        0.0228
     17 C           1.1752    1.9165   29.0531 C.3     1  UNL1        0.0177
     18 C           0.0901    1.1052   28.4095 C.3     1  UNL1        0.0575
     19 C          -1.0860    0.1851   28.2670 C.3     1  UNL1        0.0173
     20 N          -0.1720    0.7921   29.8528 N.3     1  UNL1       -0.3219
     21 C          -0.0562    1.0987   26.9166 C.3     1  UNL1        0.1062
     22 H           0.5046    1.2847   30.4359 H       1  UNL1        0.1188
     23 H          -0.0835   -0.2127   30.0043 H       1  UNL1        0.1188
     24 C          -0.6740    4.1491   24.2830 C.3     1  UNL1        0.1338
     25 C          -1.3128    4.5843   27.1817 C.3     1  UNL1        0.0308
     26 C          -2.4123    4.2739   26.2099 C.ar    1  UNL1       -0.0238
     27 C          -3.8313    4.1812   26.6873 C.ar    1  UNL1       -0.0022
     28 C          -4.9309    3.8708   25.7155 C.ar    1  UNL1        0.0293
     29 C          -4.6115    3.6532   24.2661 C.ar    1  UNL1        0.1399
     30 F          -5.7111    3.3429   23.2942 F       1  UNL1       -0.2042
     31 C          -3.1926    3.7460   23.7886 C.ar    1  UNL1        0.0269
     32 C          -2.0930    4.0563   24.7605 C.ar    1  UNL1       -0.0013
@<TRIPOS>BOND
     1    25    26    1
     2    26    27   ar
     3    27    28   ar
     4    28    29   ar
     5    29    30    1
     6    29    31   ar
     7    31    32   ar
     8    32    24    1
     9    24     1    1
    10     1     2   ar
    11     2    14    1
    12    14    15    1
    13    15    16    1
    14    16    17    1
    15    17    18    1
    16    18    19    1
    17    18    20    1
    18    18    21    1
    19     2     3   ar
    20     3     4   ar
    21     4     5   ar
    22     5     6   ar
    23     6     7    2
    24     6     8   ar
    25     8     9    1
    26     8    10   ar
    27    10    11    2
    28    10    12   ar
    29    12    13    1
    30    32    26   ar
    31     5     1   ar
    32    21    14    1
    33    12     4   ar
    34    20    22    1
    35    20    23    1
@<TRIPOS>MOLECULE
*****
 32 35 0 0 0
SMALL
GASTEIGER

@<TRIPOS>ATOM
      1 N          -7.5158  -17.0547   22.7007 N.ar    1  UNL1       -0.3068
      2 C          -6.7963  -18.1835   22.0239 C.ar    1  UNL1        0.1142
      3 C          -7.8110  -19.0001   21.2798 C.ar    1  UNL1        0.0515
      4 C          -9.1575  -18.3759   21.4967 C.ar    1  UNL1        0.0871
      5 C          -8.9752  -17.1736   22.3749 C.ar    1  UNL1        0.1342
      6 C         -10.1615  -16.3424   22.7644 C.ar    1  UNL1        0.2816
      7 O          -9.9791  -15.1401   23.6426 O.2     1  UNL1       -0.2652
      8 N         -11.5302  -16.7135   22.2757 N.ar    1  UNL1       -0.2455
      9 C         -12.7166  -15.8823   22.6652 C.3     1  UNL1        0.1383
     10 C         -11.7126  -17.9158   21.3975 C.ar    1  UNL1        0.3339
     11 O         -13.0814  -18.2869   20.9088 O.2     1  UNL1       -0.2462
     12 N         -10.5263  -18.7470   21.0080 N.ar    1  UNL1       -0.2776
     13 C         -10.7087  -19.9493   20.1298 C.3     1  UNL1        0.1351
     14 N          -5.3211  -18.4491   22.0812 N.pl3   1  UNL1       -0.2932
     15 C          -4.4723  -17.7501   23.1014 C.3     1  UNL1        0.0922
     16 C          -2.9971  -18.0158   23.1586 C.3     1  UNL1        0.0228
     17 C          -2.3707  -18.9804   22.1956 C.3     1  UNL1        0.0177
     18 C          -3.2196  -19.6793   21.1754 C.3     1  UNL1        0.0575
     19 C          -3.6023  -20.5791   20.0379 C.3     1  UNL1        0.0173
     20 N          -1.8773  -20.2574   20.8376 N.3     1  UNL1       -0.3219
     21 C          -4.6948  -19.4137   21.1182 C.3     1  UNL1        0.1062
     22 H          -1.1722  -19.8681   21.4634 H       1  UNL1        0.1188
     23 H          -1.6406  -20.0262   19.8728 H       1  UNL1        0.1188
     24 C          -6.8865  -15.9933   23.5536 C.3     1  UNL1        0.1338
     25 C          -4.9607  -14.5562   25.3497 C.3     1  UNL1        0.0308
     26 C          -6.1337  -15.2837   25.9369 C.ar    1  UNL1       -0.0238
     27 C          -6.3439  -15.2927   27.4221 C.ar    1  UNL1       -0.0022
     28 C          -7.5169  -16.0201   28.0092 C.ar    1  UNL1        0.0293
     29 C          -8.4798  -16.7387   27.1111 C.ar    1  UNL1        0.1399
     30 F          -9.6529  -17.4662   27.6982 F       1  UNL1       -0.2042
     31 C          -8.2697  -16.7298   25.6259 C.ar    1  UNL1        0.0269
     32 C          -7.0966  -16.0023   25.0387 C.ar    1  UNL1       -0.0013
@<TRIPOS>BOND
     1    25    26    1
     2    26    27   ar
     3    27    28   ar
     4    28    29   ar
     5    29    30    1
     6    29    31   ar
     7    31    32   ar
     8    32    24    1
     9    24     1    1
    10     1     2   ar
    11     2    14    1
    12    14    15    1
    13    15    16    1
    14    16    17    1
    15    17    18    1
    16    18    19    1
    17    18    20    1
    18    18    21    1
    19     2     3   ar
    20     3     4   ar
    21     4     5   ar
    22     5     6   ar
    23     6     7    2
    24     6     8   ar
    25     8     9    1
    26     8    10   ar
    27    10    11    2
    28    10    12   ar
    29    12    13    1
    30    32    26   ar
    31     5     1   ar
    32    21    14    1
    33    12     4   ar
    34    20    22    1
    35    20    23    1
@<TRIPOS>MOLECULE
*****
 32 35 0 0 0
SMALL
GASTEIGER

@<TRIPOS>ATOM
      1 N           3.2969   -0.9705   22.7797 N.ar    1  UNL1       -0.3068
      2 C           4.3868   -1.9458   22.4466 C.ar    1  UNL1        0.1142
      3 C           5.0721   -2.3295   23.7245 C.ar    1  UNL1        0.0515
      4 C           4.4057   -1.5913   24.8475 C.ar    1  UNL1        0.0871
      5 C           3.3086   -0.7514   24.2635 C.ar    1  UNL1        0.1342
      6 C           2.4620    0.1044   25.1585 C.ar    1  UNL1        0.2816
      7 O           1.3649    0.9443   24.5745 O.2     1  UNL1       -0.2652
      8 N           2.7125    0.1204   26.6373 N.ar    1  UNL1       -0.2455
      9 C           1.8659    0.9762   27.5322 C.3     1  UNL1        0.1383
     10 C           3.8096   -0.7195   27.2212 C.ar    1  UNL1        0.3339
     11 O           4.0601   -0.7036   28.7001 O.2     1  UNL1       -0.2462
     12 N           4.6562   -1.5754   26.3263 N.ar    1  UNL1       -0.2776
     13 C           5.7533   -2.4152   26.9103 C.3     1  UNL1        0.1351
     14 N           4.7309   -2.4491   21.0761 N.pl3   1  UNL1       -0.2932
     15 C           4.0710   -3.6866   20.5439 C.3     1  UNL1        0.0922
     16 C           4.4152   -4.1898   19.1734 C.3     1  UNL1        0.0228
     17 C           5.4193   -3.4556   18.3350 C.3     1  UNL1        0.0177
     18 C           6.0792   -2.2182   18.8672 C.3     1  UNL1        0.0575
     19 C           6.9655   -1.0098   18.9311 C.3     1  UNL1        0.0173
     20 N           6.7312   -2.3017   17.5189 N.3     1  UNL1       -0.3219
     21 C           5.7350   -1.7149   20.2377 C.3     1  UNL1        0.1062
     22 H           6.3756   -3.1168   17.0192 H       1  UNL1        0.1188
     23 H           7.7410   -2.3874   17.6342 H       1  UNL1        0.1188
     24 C           2.3599   -0.3273   21.8008 C.3     1  UNL1        0.1338
     25 C           3.7162    2.3484   21.8367 C.3     1  UNL1        0.0308
     26 C           3.5709    1.5985   20.5458 C.ar    1  UNL1       -0.0238
     27 C           4.1038    2.1864   19.2728 C.ar    1  UNL1       -0.0022
     28 C           3.9585    1.4365   17.9819 C.ar    1  UNL1        0.0293
     29 C           3.2803    0.0986   17.9640 C.ar    1  UNL1        0.1399
     30 F           3.1350   -0.6513   16.6730 F       1  UNL1       -0.2042
     31 C           2.7475   -0.4893   19.2369 C.ar    1  UNL1        0.0269
     32 C           2.8928    0.2606   20.5278 C.ar    1  UNL1       -0.0013
@<TRIPOS>BOND
     1    25    26    1
     2    26    27   ar
     3    27    28   ar
     4    28    29   ar
     5    29    30    1
     6    29    31   ar
     7    31    32   ar
     8    32    24    1
     9    24     1    1
    10     1     2   ar
    11     2    14    1
    12    14    15    1
    13    15    16    1
    14    16    17    1
    15    17    18    1
    16    18    19    1
    17    18    20    1
    18    18    21    1
    19     2     3   ar
    20     3     4   ar
    21     4     5   ar
    22     5     6   ar
    23     6     7    2
    24     6     8   ar
    25     8     9    1
    26     8    10   ar
    27    10    11    2
    28    10    12   ar
    29    12    13    1
    30    32    26   ar
    31     5     1   ar
    32    21    14    1
    33    12     4   ar
    34    20    22    1
    35    20    23    1
