@<TRIPOS>MOLECULE
*****
 46 51 0 0 0
SMALL
GASTEIGER

@<TRIPOS>ATOM
      1 C          -2.3927    4.5572   24.4768 C.ar    1  UNL1        0.1348
      2 C          -1.7872    5.3594   25.5903 C.ar    1  UNL1        0.0346
      3 C          -0.3888    5.0694   26.0490 C.ar    1  UNL1        0.0065
      4 C           0.4040    3.9773   25.3944 C.ar    1  UNL1        0.0432
      5 C          -0.2015    3.1752   24.2809 C.ar    1  UNL1        0.1256
      6 N          -1.5999    3.4651   23.8221 N.ar    1  UNL1       -0.2222
      7 C           1.8024    3.6874   25.8531 C.ar    1  UNL1        0.0850
      8 C           2.1881    2.8001   26.9994 C.ar    1  UNL1        0.0992
      9 N           3.6847    2.7981   27.1009 N.ar    1  UNL1       -0.2265
     10 C           4.2239    3.6842   26.0173 C.ar    1  UNL1        0.1474
     11 C           5.6239    4.0616   25.6332 C.ar    1  UNL1        0.0332
     12 C           5.8606    4.9885   24.4779 C.ar    1  UNL1       -0.0174
     13 C           7.2606    5.3659   24.0937 C.3     1  UNL1        0.0312
     14 C           4.6973    5.5381   23.7066 C.ar    1  UNL1        0.0149
     15 C           3.2973    5.1607   24.0908 C.ar    1  UNL1        0.0811
     16 N           3.0606    4.2337   25.2462 N.ar    1  UNL1       -0.2888
     17 C           1.2432    2.0470   27.8883 C.ar    1  UNL1        0.0253
     18 C           0.2740    1.0682   27.2943 C.ar    1  UNL1        0.0224
     19 C          -0.6709    0.3152   28.1831 C.ar    1  UNL1        0.1021
     20 N          -0.6467    0.5408   29.6658 N.ar    1  UNL1       -0.2101
     21 C           0.3225    1.5196   30.2597 C.ar    1  UNL1        0.2250
     22 C           1.2674    2.2727   29.3709 C.ar    1  UNL1        0.0593
     23 O           0.3467    1.7453   31.7425 O.3     1  UNL1       -0.4561
     24 C           1.6164    2.1762   32.4149 C.3     1  UNL1        0.2542
     25 C          -4.9599    4.3869   24.8377 C.2     1  UNL1        0.2414
     26 O          -4.7305    3.6366   26.1162 O.2     1  UNL1       -0.2733
     27 N          -3.7911    4.8472   24.0181 N.am    1  UNL1       -0.2682
     28 H          -3.9417    5.3396   23.1790 H       1  UNL1        0.1563
     29 C          -6.3583    4.6769   24.3789 C.3     1  UNL1        0.1319
     30 C          -7.1737    5.7259   25.0752 C.3     1  UNL1        0.0270
     31 C          -6.8632    4.4851   21.8376 C.3     1  UNL1        0.0862
     32 N          -6.9413    3.9178   23.2240 N.3     1  UNL1       -0.2902
     33 H          -6.4711    3.0130   23.1989 H       1  UNL1        0.1237
     34 C           0.5913    2.0830   23.6261 C.1     1  UNL1       -0.0404
     35 C           1.3842    0.9908   22.9715 C.1     1  UNL1       -0.0583
     36 C           2.1770   -0.1013   22.3167 C.ar    1  UNL1        0.0420
     37 C           1.9888   -0.3933   20.8575 C.ar    1  UNL1        0.0083
     38 C           2.7816   -1.4854   20.2028 C.ar    1  UNL1        0.0018
     39 C           3.7626   -2.2856   21.0074 C.ar    1  UNL1        0.0137
     40 C           4.5555   -3.3777   20.3526 C.ar    1  UNL1        0.0594
     41 C           4.3673   -3.6697   18.8934 C.3     1  UNL1        0.0521
     42 N           5.5365   -4.1779   21.1571 N.ar    1  UNL1       -0.2481
     43 C           5.7248   -3.8859   22.6164 C.ar    1  UNL1        0.0984
     44 C           4.9319   -2.7938   23.2711 C.ar    1  UNL1        0.0207
     45 C           3.9509   -1.9936   22.4665 C.ar    1  UNL1        0.0033
     46 C           3.1581   -0.9015   23.1212 C.ar    1  UNL1        0.0083
@<TRIPOS>BOND
     1    31    32    1
     2    32    29    1
     3    29    30    1
     4    29    25    1
     5    25    26    2
     6    25    27   am
     7    27     1    1
     8     1     2   ar
     9     2     3   ar
    10     3     4   ar
    11     4     7    1
    12     7     8   ar
    13     8    17    1
    14    17    18   ar
    15    18    19   ar
    16    19    20   ar
    17    20    21   ar
    18    21    23    1
    19    23    24    1
    20    21    22   ar
    21     8     9   ar
    22     9    10   ar
    23    10    11   ar
    24    11    12   ar
    25    12    13    1
    26    12    14   ar
    27    14    15   ar
    28    15    16   ar
    29     4     5   ar
    30     5    34    1
    31    34    35    3
    32    35    36    1
    33    36    37   ar
    34    37    38   ar
    35    38    39   ar
    36    39    40   ar
    37    40    41    1
    38    40    42   ar
    39    42    43   ar
    40    43    44   ar
    41    44    45   ar
    42    45    46   ar
    43     5     6   ar
    44     6     1   ar
    45    16     7   ar
    46    46    36   ar
    47    22    17   ar
    48    16    10   ar
    49    45    39   ar
    50    32    33    1
    51    27    28    1
@<TRIPOS>MOLECULE
*****
 46 51 0 0 0
SMALL
GASTEIGER

@<TRIPOS>ATOM
      1 C          -2.3923    4.5524   24.7195 C.ar    1  UNL1        0.1348
      2 C          -1.7691    5.1086   25.9654 C.ar    1  UNL1        0.0346
      3 C          -0.3669    4.7272   26.3372 C.ar    1  UNL1        0.0065
      4 C           0.4122    3.7896   25.4632 C.ar    1  UNL1        0.0432
      5 C          -0.2110    3.2335   24.2173 C.ar    1  UNL1        0.1256
      6 N          -1.6132    3.6149   23.8455 N.ar    1  UNL1       -0.2222
      7 C           1.8144    3.4083   25.8350 C.ar    1  UNL1        0.0850
      8 C           2.2129    2.5117   26.9697 C.ar    1  UNL1        0.0992
      9 N           3.7091    2.4058   26.9735 N.ar    1  UNL1       -0.2265
     10 C           4.2355    3.2369   25.8411 C.ar    1  UNL1        0.1474
     11 C           5.6297    3.5096   25.3597 C.ar    1  UNL1        0.0332
     12 C           5.8529    4.4018   24.1748 C.ar    1  UNL1       -0.0174
     13 C           7.2472    4.6744   23.6934 C.3     1  UNL1        0.0312
     14 C           4.6820    5.0213   23.4711 C.ar    1  UNL1        0.0149
     15 C           3.2878    4.7487   23.9525 C.ar    1  UNL1        0.0811
     16 N           3.0645    3.8564   25.1375 N.ar    1  UNL1       -0.2888
     17 C           1.2790    1.8392   27.9318 C.ar    1  UNL1        0.0253
     18 C           0.2309    0.8941   27.4232 C.ar    1  UNL1        0.0224
     19 C          -0.7030    0.2216   28.3853 C.ar    1  UNL1        0.1021
     20 N          -0.5888    0.4940   29.8559 N.ar    1  UNL1       -0.2101
     21 C           0.4592    1.4390   30.3644 C.ar    1  UNL1        0.2250
     22 C           1.3931    2.1115   29.4024 C.ar    1  UNL1        0.0593
     23 O           0.5734    1.7114   31.8351 O.3     1  UNL1       -0.4561
     24 C           1.2838    2.9414   32.3171 C.3     1  UNL1        0.2542
     25 C          -4.9479    4.4507   25.1761 C.2     1  UNL1        0.2414
     26 O          -4.6990    3.5862   26.3764 O.2     1  UNL1       -0.2733
     27 N          -3.7945    4.9338   24.3477 N.am    1  UNL1       -0.2682
     28 H          -3.9578    5.5012   23.5599 H       1  UNL1        0.1563
     29 C          -6.3501    4.8321   24.8042 C.3     1  UNL1        0.1319
     30 C          -7.0260    5.9759   25.5007 C.3     1  UNL1        0.0270
     31 C          -7.2496    4.6700   22.3722 C.3     1  UNL1        0.0862
     32 N          -7.0765    4.0698   23.7360 N.3     1  UNL1       -0.2902
     33 H          -6.5753    3.1905   23.6092 H       1  UNL1        0.1237
     34 C           0.5681    2.2959   23.3432 C.1     1  UNL1       -0.0404
     35 C           1.3471    1.3583   22.4692 C.1     1  UNL1       -0.0583
     36 C           2.1262    0.4207   21.5950 C.ar    1  UNL1        0.0420
     37 C           2.7856   -0.7874   22.1915 C.ar    1  UNL1        0.0083
     38 C           3.5646   -1.7249   21.3174 C.ar    1  UNL1        0.0018
     39 C           3.6842   -1.4544   19.8468 C.ar    1  UNL1        0.0137
     40 C           4.4633   -2.3920   18.9727 C.ar    1  UNL1        0.0594
     41 C           5.1227   -3.6001   19.5692 C.3     1  UNL1        0.0521
     42 N           4.5829   -2.1215   17.5022 N.ar    1  UNL1       -0.2481
     43 C           3.9235   -0.9134   16.9057 C.ar    1  UNL1        0.0984
     44 C           3.1445    0.0241   17.7798 C.ar    1  UNL1        0.0207
     45 C           3.0249   -0.2464   19.2504 C.ar    1  UNL1        0.0033
     46 C           2.2458    0.6912   20.1245 C.ar    1  UNL1        0.0083
@<TRIPOS>BOND
     1    31    32    1
     2    32    29    1
     3    29    30    1
     4    29    25    1
     5    25    26    2
     6    25    27   am
     7    27     1    1
     8     1     2   ar
     9     2     3   ar
    10     3     4   ar
    11     4     7    1
    12     7     8   ar
    13     8    17    1
    14    17    18   ar
    15    18    19   ar
    16    19    20   ar
    17    20    21   ar
    18    21    23    1
    19    23    24    1
    20    21    22   ar
    21     8     9   ar
    22     9    10   ar
    23    10    11   ar
    24    11    12   ar
    25    12    13    1
    26    12    14   ar
    27    14    15   ar
    28    15    16   ar
    29     4     5   ar
    30     5    34    1
    31    34    35    3
    32    35    36    1
    33    36    37   ar
    34    37    38   ar
    35    38    39   ar
    36    39    40   ar
    37    40    41    1
    38    40    42   ar
    39    42    43   ar
    40    43    44   ar
    41    44    45   ar
    42    45    46   ar
    43     5     6   ar
    44     6     1   ar
    45    16     7   ar
    46    46    36   ar
    47    22    17   ar
    48    16    10   ar
    49    45    39   ar
    50    32    33    1
    51    27    28    1
@<TRIPOS>MOLECULE
*****
 46 51 0 0 0
SMALL
GASTEIGER

@<TRIPOS>ATOM
      1 C           2.7173   -0.1952   29.8303 C.ar    1  UNL1        0.1348
      2 C           2.1665    1.1782   30.0755 C.ar    1  UNL1        0.0346
      3 C           1.8858    2.0913   28.9190 C.ar    1  UNL1        0.0065
      4 C           2.1559    1.6308   27.5172 C.ar    1  UNL1        0.0432
      5 C           2.7066    0.2573   27.2720 C.ar    1  UNL1        0.1256
      6 N           2.9873   -0.6557   28.4285 N.ar    1  UNL1       -0.2222
      7 C           1.8752    2.5439   26.3607 C.ar    1  UNL1        0.0850
      8 C           2.9004    3.2737   25.5445 C.ar    1  UNL1        0.0992
      9 N           2.1789    4.0683   24.4967 N.ar    1  UNL1       -0.2265
     10 C           0.7076    3.8295   24.6652 C.ar    1  UNL1        0.1474
     11 C          -0.4854    4.3482   23.9186 C.ar    1  UNL1        0.0332
     12 C          -1.8662    3.9248   24.3239 C.ar    1  UNL1       -0.0174
     13 C          -3.0592    4.4436   23.5773 C.3     1  UNL1        0.0312
     14 C          -2.0539    2.9827   25.4760 C.ar    1  UNL1        0.0149
     15 C          -0.8609    2.4640   26.2226 C.ar    1  UNL1        0.0811
     16 N           0.5199    2.8874   25.8173 N.ar    1  UNL1       -0.2888
     17 C           4.3864    3.2187   25.7415 C.ar    1  UNL1        0.0253
     18 C           5.0185    3.9496   26.8889 C.ar    1  UNL1        0.0224
     19 C           6.5044    3.8946   27.0860 C.ar    1  UNL1        0.1021
     20 N           7.3584    3.1086   26.1357 N.ar    1  UNL1       -0.2101
     21 C           6.7264    2.3777   24.9884 C.ar    1  UNL1        0.2250
     22 C           5.2404    2.4328   24.7914 C.ar    1  UNL1        0.0593
     23 O           7.5804    1.5917   24.0382 O.3     1  UNL1       -0.4561
     24 C           7.0076    0.4058   23.3204 C.3     1  UNL1        0.2542
     25 C           4.3754   -1.1686   31.5777 C.2     1  UNL1        0.2414
     26 O           5.4721   -0.3159   31.0119 O.2     1  UNL1       -0.2733
     27 N           2.9980   -1.1083   30.9868 N.am    1  UNL1       -0.2682
     28 H           2.2781   -1.6680   31.3581 H       1  UNL1        0.1563
     29 C           4.6560   -2.0816   32.7342 C.3     1  UNL1        0.1319
     30 C           4.2513   -1.6805   34.1218 C.3     1  UNL1        0.0270
     31 C           6.7974   -3.4293   32.1442 C.3     1  UNL1        0.0862
     32 N           5.3414   -3.3957   32.5032 N.3     1  UNL1       -0.2902
     33 H           5.2372   -3.9371   33.3614 H       1  UNL1        0.1237
     34 C           2.9767   -0.2032   25.8702 C.1     1  UNL1       -0.0404
     35 C           3.2467   -0.6637   24.4684 C.1     1  UNL1       -0.0583
     36 C           3.5168   -1.1242   23.0666 C.ar    1  UNL1        0.0420
     37 C           4.1689   -2.4535   22.8263 C.ar    1  UNL1        0.0083
     38 C           4.4389   -2.9139   21.4246 C.ar    1  UNL1        0.0018
     39 C           4.0568   -2.0451   20.2630 C.ar    1  UNL1        0.0137
     40 C           4.3269   -2.5056   18.8612 C.ar    1  UNL1        0.0594
     41 C           4.9790   -3.8349   18.6210 C.3     1  UNL1        0.0521
     42 N           3.9448   -1.6368   17.6996 N.ar    1  UNL1       -0.2481
     43 C           3.2927   -0.3075   17.9399 C.ar    1  UNL1        0.0984
     44 C           3.0226    0.1530   19.3417 C.ar    1  UNL1        0.0207
     45 C           3.4047   -0.7159   20.5033 C.ar    1  UNL1        0.0033
     46 C           3.1347   -0.2554   21.9050 C.ar    1  UNL1        0.0083
@<TRIPOS>BOND
     1    31    32    1
     2    32    29    1
     3    29    30    1
     4    29    25    1
     5    25    26    2
     6    25    27   am
     7    27     1    1
     8     1     2   ar
     9     2     3   ar
    10     3     4   ar
    11     4     7    1
    12     7     8   ar
    13     8    17    1
    14    17    18   ar
    15    18    19   ar
    16    19    20   ar
    17    20    21   ar
    18    21    23    1
    19    23    24    1
    20    21    22   ar
    21     8     9   ar
    22     9    10   ar
    23    10    11   ar
    24    11    12   ar
    25    12    13    1
    26    12    14   ar
    27    14    15   ar
    28    15    16   ar
    29     4     5   ar
    30     5    34    1
    31    34    35    3
    32    35    36    1
    33    36    37   ar
    34    37    38   ar
    35    38    39   ar
    36    39    40   ar
    37    40    41    1
    38    40    42   ar
    39    42    43   ar
    40    43    44   ar
    41    44    45   ar
    42    45    46   ar
    43     5     6   ar
    44     6     1   ar
    45    16     7   ar
    46    46    36   ar
    47    22    17   ar
    48    16    10   ar
    49    45    39   ar
    50    32    33    1
    51    27    28    1
@<TRIPOS>MOLECULE
*****
 46 51 0 0 0
SMALL
GASTEIGER

@<TRIPOS>ATOM
      1 C          -2.7027    4.6484   21.2911 C.ar    1  UNL1        0.1348
      2 C          -2.5481    5.4766   22.5321 C.ar    1  UNL1        0.0346
      3 C          -1.4729    5.1469   23.5247 C.ar    1  UNL1        0.0065
      4 C          -0.5523    3.9890   23.2763 C.ar    1  UNL1        0.0432
      5 C          -0.7069    3.1608   22.0353 C.ar    1  UNL1        0.1256
      6 N          -1.7821    3.4905   21.0427 N.ar    1  UNL1       -0.2222
      7 C           0.5228    3.6593   24.2690 C.ar    1  UNL1        0.0850
      8 C           1.9467    4.1279   24.2147 C.ar    1  UNL1        0.0992
      9 N           2.6668    3.5613   25.4023 N.ar    1  UNL1       -0.2265
     10 C           1.6879    2.7425   26.1906 C.ar    1  UNL1        0.1474
     11 C           1.8319    1.9497   27.4558 C.ar    1  UNL1        0.0332
     12 C           0.6509    1.2174   28.0204 C.ar    1  UNL1       -0.0174
     13 C           0.7949    0.4245   29.2856 C.3     1  UNL1        0.0312
     14 C          -0.6742    1.2779   27.3200 C.ar    1  UNL1        0.0149
     15 C          -0.8182    2.0708   26.0549 C.ar    1  UNL1        0.0811
     16 N           0.3629    2.8031   25.4902 N.ar    1  UNL1       -0.2888
     17 C           2.5455    5.0085   23.1582 C.ar    1  UNL1        0.0253
     18 C           2.7156    6.4768   23.4136 C.ar    1  UNL1        0.0224
     19 C           3.3143    7.3574   22.3572 C.ar    1  UNL1        0.1021
     20 N           3.7430    6.7697   21.0454 N.ar    1  UNL1       -0.2101
     21 C           3.5729    5.3015   20.7900 C.ar    1  UNL1        0.2250
     22 C           2.9741    4.4209   21.8465 C.ar    1  UNL1        0.0593
     23 O           4.0015    4.7138   19.4782 O.3     1  UNL1       -0.4561
     24 C           3.0803    3.7958   18.7308 C.3     1  UNL1        0.2542
     25 C          -5.0854    4.2442   20.3376 C.2     1  UNL1        0.2414
     26 O          -5.3179    3.1805   21.3695 O.2     1  UNL1       -0.2733
     27 N          -3.7778    4.9781   20.2985 N.am    1  UNL1       -0.2682
     28 H          -3.6253    5.6762   19.6212 H       1  UNL1        0.1563
     29 C          -6.1606    4.5739   19.3450 C.3     1  UNL1        0.1319
     30 C          -5.8632    4.5312   17.8754 C.3     1  UNL1        0.0270
     31 C          -8.2249    6.1487   19.2512 C.3     1  UNL1        0.0862
     32 N          -7.5331    4.9463   19.8220 N.3     1  UNL1       -0.2902
     33 H          -8.1363    4.1446   19.6381 H       1  UNL1        0.1237
     34 C           0.2138    2.0029   21.7868 C.1     1  UNL1       -0.0404
     35 C           1.1343    0.8450   21.5384 C.1     1  UNL1       -0.0583
     36 C           2.0550   -0.3129   21.2899 C.ar    1  UNL1        0.0420
     37 C           2.1177   -0.9428   19.9300 C.ar    1  UNL1        0.0083
     38 C           3.0383   -2.1007   19.6816 C.ar    1  UNL1        0.0018
     39 C           3.8962   -2.6287   20.7931 C.ar    1  UNL1        0.0137
     40 C           4.8168   -3.7867   20.5446 C.ar    1  UNL1        0.0594
     41 C           4.8796   -4.4165   19.1848 C.3     1  UNL1        0.0521
     42 N           5.6747   -4.3146   21.6561 N.ar    1  UNL1       -0.2481
     43 C           5.6119   -3.6847   23.0160 C.ar    1  UNL1        0.0984
     44 C           4.6912   -2.5268   23.2644 C.ar    1  UNL1        0.0207
     45 C           3.8334   -1.9988   22.1530 C.ar    1  UNL1        0.0033
     46 C           2.9128   -0.8409   22.4014 C.ar    1  UNL1        0.0083
@<TRIPOS>BOND
     1    31    32    1
     2    32    29    1
     3    29    30    1
     4    29    25    1
     5    25    26    2
     6    25    27   am
     7    27     1    1
     8     1     2   ar
     9     2     3   ar
    10     3     4   ar
    11     4     7    1
    12     7     8   ar
    13     8    17    1
    14    17    18   ar
    15    18    19   ar
    16    19    20   ar
    17    20    21   ar
    18    21    23    1
    19    23    24    1
    20    21    22   ar
    21     8     9   ar
    22     9    10   ar
    23    10    11   ar
    24    11    12   ar
    25    12    13    1
    26    12    14   ar
    27    14    15   ar
    28    15    16   ar
    29     4     5   ar
    30     5    34    1
    31    34    35    3
    32    35    36    1
    33    36    37   ar
    34    37    38   ar
    35    38    39   ar
    36    39    40   ar
    37    40    41    1
    38    40    42   ar
    39    42    43   ar
    40    43    44   ar
    41    44    45   ar
    42    45    46   ar
    43     5     6   ar
    44     6     1   ar
    45    16     7   ar
    46    46    36   ar
    47    22    17   ar
    48    16    10   ar
    49    45    39   ar
    50    32    33    1
    51    27    28    1
@<TRIPOS>MOLECULE
*****
 46 51 0 0 0
SMALL
GASTEIGER

@<TRIPOS>ATOM
      1 C           3.4573   -0.5615   25.1234 C.ar    1  UNL1        0.1348
      2 C           4.8408   -0.8168   24.6030 C.ar    1  UNL1        0.0346
      3 C           5.2107   -0.3878   23.2141 C.ar    1  UNL1        0.0065
      4 C           4.1972    0.2965   22.3455 C.ar    1  UNL1        0.0432
      5 C           2.8138    0.5518   22.8659 C.ar    1  UNL1        0.1256
      6 N           2.4438    0.1228   24.2548 N.ar    1  UNL1       -0.2222
      7 C           4.5672    0.7255   20.9566 C.ar    1  UNL1        0.0850
      8 C           4.8377   -0.1846   19.7953 C.ar    1  UNL1        0.0992
      9 N           5.1693    0.6674   18.6061 N.ar    1  UNL1       -0.2265
     10 C           5.1037    2.1040   19.0324 C.ar    1  UNL1        0.1474
     11 C           5.3347    3.3841   18.2855 C.ar    1  UNL1        0.0332
     12 C           5.1937    4.7002   18.9913 C.ar    1  UNL1       -0.0174
     13 C           5.4247    5.9803   18.2444 C.3     1  UNL1        0.0312
     14 C           4.8216    4.7362   20.4440 C.ar    1  UNL1        0.0149
     15 C           4.5905    3.4560   21.1909 C.ar    1  UNL1        0.0811
     16 N           4.7316    2.1399   20.4851 N.ar    1  UNL1       -0.2888
     17 C           4.7857   -1.6835   19.8191 C.ar    1  UNL1        0.0253
     18 C           3.5463   -2.3983   19.3684 C.ar    1  UNL1        0.0224
     19 C           3.4943   -3.8972   19.3921 C.ar    1  UNL1        0.1021
     20 N           4.6817   -4.6814   19.8665 N.ar    1  UNL1       -0.2101
     21 C           5.9211   -3.9666   20.3172 C.ar    1  UNL1        0.2250
     22 C           5.9730   -2.4677   20.2935 C.ar    1  UNL1        0.0593
     23 O           7.1085   -4.7508   20.7917 O.3     1  UNL1       -0.4561
     24 C           8.4509   -4.0899   20.8957 C.3     1  UNL1        0.2542
     25 C           2.8503    0.0389   27.5771 C.2     1  UNL1        0.2414
     26 O           2.9833    1.4975   27.2531 O.2     1  UNL1       -0.2733
     27 N           3.0874   -0.9906   26.5123 N.am    1  UNL1       -0.2682
     28 H           3.0001   -1.9478   26.7250 H       1  UNL1        0.1563
     29 C           2.4804   -0.3901   28.9660 C.3     1  UNL1        0.1319
     30 C           3.5525   -0.6309   29.9872 C.3     1  UNL1        0.0270
     31 C          -0.0323    0.1280   28.5562 C.3     1  UNL1        0.0862
     32 N           1.0384   -0.5782   29.3338 N.3     1  UNL1       -0.2902
     33 H           0.8442   -1.5770   29.2621 H       1  UNL1        0.1237
     34 C           1.8002    1.2361   21.9973 C.1     1  UNL1       -0.0404
     35 C           0.7866    1.9205   21.1288 C.1     1  UNL1       -0.0583
     36 C          -0.2270    2.6048   20.2602 C.ar    1  UNL1        0.0420
     37 C           0.1518    3.0611   18.8824 C.ar    1  UNL1        0.0083
     38 C          -0.8618    3.7454   18.0139 C.ar    1  UNL1        0.0018
     39 C          -2.2542    3.9734   18.5232 C.ar    1  UNL1        0.0137
     40 C          -3.2678    4.6578   17.6546 C.ar    1  UNL1        0.0594
     41 C          -2.8890    5.1140   16.2769 C.3     1  UNL1        0.0521
     42 N          -4.6601    4.8859   18.1639 N.ar    1  UNL1       -0.2481
     43 C          -5.0389    4.4296   19.5418 C.ar    1  UNL1        0.0984
     44 C          -4.0253    3.7453   20.4103 C.ar    1  UNL1        0.0207
     45 C          -2.6329    3.5172   19.9010 C.ar    1  UNL1        0.0033
     46 C          -1.6194    2.8329   20.7695 C.ar    1  UNL1        0.0083
@<TRIPOS>BOND
     1    31    32    1
     2    32    29    1
     3    29    30    1
     4    29    25    1
     5    25    26    2
     6    25    27   am
     7    27     1    1
     8     1     2   ar
     9     2     3   ar
    10     3     4   ar
    11     4     7    1
    12     7     8   ar
    13     8    17    1
    14    17    18   ar
    15    18    19   ar
    16    19    20   ar
    17    20    21   ar
    18    21    23    1
    19    23    24    1
    20    21    22   ar
    21     8     9   ar
    22     9    10   ar
    23    10    11   ar
    24    11    12   ar
    25    12    13    1
    26    12    14   ar
    27    14    15   ar
    28    15    16   ar
    29     4     5   ar
    30     5    34    1
    31    34    35    3
    32    35    36    1
    33    36    37   ar
    34    37    38   ar
    35    38    39   ar
    36    39    40   ar
    37    40    41    1
    38    40    42   ar
    39    42    43   ar
    40    43    44   ar
    41    44    45   ar
    42    45    46   ar
    43     5     6   ar
    44     6     1   ar
    45    16     7   ar
    46    46    36   ar
    47    22    17   ar
    48    16    10   ar
    49    45    39   ar
    50    32    33    1
    51    27    28    1
@<TRIPOS>MOLECULE
*****
 46 51 0 0 0
SMALL
GASTEIGER

@<TRIPOS>ATOM
      1 C          -0.4574    2.5889   27.4025 C.ar    1  UNL1        0.1348
      2 C          -1.3372    3.7396   27.0132 C.ar    1  UNL1        0.0346
      3 C          -1.4748    4.1237   25.5697 C.ar    1  UNL1        0.0065
      4 C          -0.7325    3.3570   24.5156 C.ar    1  UNL1        0.0432
      5 C           0.1473    2.2063   24.9050 C.ar    1  UNL1        0.1256
      6 N           0.2849    1.8222   26.3484 N.ar    1  UNL1       -0.2222
      7 C          -0.8701    3.7410   23.0722 C.ar    1  UNL1        0.0850
      8 C           0.2139    4.3061   22.2029 C.ar    1  UNL1        0.0992
      9 N          -0.3618    4.5418   20.8380 N.ar    1  UNL1       -0.2265
     10 C          -1.8018    4.1223   20.8637 C.ar    1  UNL1        0.1474
     11 C          -2.8675    4.1271   19.8082 C.ar    1  UNL1        0.0332
     12 C          -4.2474    3.6369   20.1334 C.ar    1  UNL1       -0.0174
     13 C          -5.3131    3.6417   19.0779 C.3     1  UNL1        0.0312
     14 C          -4.5616    3.1421   21.5142 C.ar    1  UNL1        0.0149
     15 C          -3.4958    3.1373   22.5697 C.ar    1  UNL1        0.0811
     16 N          -2.1159    3.6275   22.2444 N.ar    1  UNL1       -0.2888
     17 C           1.6259    4.5863   22.6246 C.ar    1  UNL1        0.0253
     18 C           1.8939    5.4519   23.8201 C.ar    1  UNL1        0.0224
     19 C           3.3059    5.7321   24.2417 C.ar    1  UNL1        0.1021
     20 N           4.4499    5.1469   23.4679 N.ar    1  UNL1       -0.2101
     21 C           4.1819    4.2814   22.2725 C.ar    1  UNL1        0.2250
     22 C           2.7699    4.0011   21.8509 C.ar    1  UNL1        0.0593
     23 O           5.3259    3.6961   21.4987 O.3     1  UNL1       -0.4561
     24 C           5.0604    2.8908   20.2614 C.3     1  UNL1        0.2542
     25 C           0.8972    2.6181   29.6193 C.2     1  UNL1        0.2414
     26 O           1.9768    3.4154   28.9492 O.2     1  UNL1       -0.2733
     27 N          -0.3198    2.2049   28.8460 N.am    1  UNL1       -0.2682
     28 H          -1.0283    1.6816   29.2858 H       1  UNL1        0.1563
     29 C           1.0348    2.2340   31.0628 C.3     1  UNL1        0.1319
     30 C           2.1016    1.2669   31.4832 C.3     1  UNL1        0.0270
     31 C           0.0230    4.3043   32.2629 C.3     1  UNL1        0.0862
     32 N           0.1057    2.8170   32.0858 N.3     1  UNL1       -0.2902
     33 H          -0.8329    2.4962   31.8480 H       1  UNL1        0.1237
     34 C           0.8897    1.4395   23.8508 C.1     1  UNL1       -0.0404
     35 C           1.6320    0.6728   22.7968 C.1     1  UNL1       -0.0583
     36 C           2.3743   -0.0939   21.7426 C.ar    1  UNL1        0.0420
     37 C           3.1268   -1.3383   22.1104 C.ar    1  UNL1        0.0083
     38 C           3.8691   -2.1050   21.0563 C.ar    1  UNL1        0.0018
     39 C           3.8588   -1.6273   19.6344 C.ar    1  UNL1        0.0137
     40 C           4.6012   -2.3940   18.5803 C.ar    1  UNL1        0.0594
     41 C           5.3536   -3.6384   18.9481 C.3     1  UNL1        0.0521
     42 N           4.5909   -1.9164   17.1584 N.ar    1  UNL1       -0.2481
     43 C           3.8384   -0.6720   16.7907 C.ar    1  UNL1        0.0984
     44 C           3.0961    0.0947   17.8448 C.ar    1  UNL1        0.0207
     45 C           3.1063   -0.3829   19.2666 C.ar    1  UNL1        0.0033
     46 C           2.3641    0.3837   20.3208 C.ar    1  UNL1        0.0083
@<TRIPOS>BOND
     1    31    32    1
     2    32    29    1
     3    29    30    1
     4    29    25    1
     5    25    26    2
     6    25    27   am
     7    27     1    1
     8     1     2   ar
     9     2     3   ar
    10     3     4   ar
    11     4     7    1
    12     7     8   ar
    13     8    17    1
    14    17    18   ar
    15    18    19   ar
    16    19    20   ar
    17    20    21   ar
    18    21    23    1
    19    23    24    1
    20    21    22   ar
    21     8     9   ar
    22     9    10   ar
    23    10    11   ar
    24    11    12   ar
    25    12    13    1
    26    12    14   ar
    27    14    15   ar
    28    15    16   ar
    29     4     5   ar
    30     5    34    1
    31    34    35    3
    32    35    36    1
    33    36    37   ar
    34    37    38   ar
    35    38    39   ar
    36    39    40   ar
    37    40    41    1
    38    40    42   ar
    39    42    43   ar
    40    43    44   ar
    41    44    45   ar
    42    45    46   ar
    43     5     6   ar
    44     6     1   ar
    45    16     7   ar
    46    46    36   ar
    47    22    17   ar
    48    16    10   ar
    49    45    39   ar
    50    32    33    1
    51    27    28    1
@<TRIPOS>MOLECULE
*****
 46 51 0 0 0
SMALL
GASTEIGER

@<TRIPOS>ATOM
      1 C          -0.2300    1.7522   20.4942 C.ar    1  UNL1        0.1348
      2 C           0.1972    1.7059   19.0571 C.ar    1  UNL1        0.0346
      3 C           1.4619    0.9967   18.6731 C.ar    1  UNL1        0.0065
      4 C           2.2995    0.3338   19.7262 C.ar    1  UNL1        0.0432
      5 C           1.8722    0.3801   21.1633 C.ar    1  UNL1        0.1256
      6 N           0.6075    1.0893   21.5473 N.ar    1  UNL1       -0.2222
      7 C           3.5642   -0.3754   19.3422 C.ar    1  UNL1        0.0850
      8 C           4.8760    0.2752   19.0168 C.ar    1  UNL1        0.0992
      9 N           5.8617   -0.8070   18.6897 N.ar    1  UNL1       -0.2265
     10 C           5.1592   -2.1266   18.8129 C.ar    1  UNL1        0.1474
     11 C           5.6290   -3.5366   18.6100 C.ar    1  UNL1        0.0332
     12 C           4.6788   -4.6798   18.8104 C.ar    1  UNL1       -0.0174
     13 C           5.1486   -6.0898   18.6075 C.3     1  UNL1        0.0312
     14 C           3.2588   -4.4132   19.2137 C.ar    1  UNL1        0.0149
     15 C           2.7890   -3.0032   19.4166 C.ar    1  UNL1        0.0811
     16 N           3.7393   -1.8598   19.2162 N.ar    1  UNL1       -0.2888
     17 C           5.1533    1.7494   19.0183 C.ar    1  UNL1        0.0253
     18 C           5.8608    2.3783   20.1820 C.ar    1  UNL1        0.0224
     19 C           6.1382    3.8524   20.1835 C.ar    1  UNL1        0.1021
     20 N           5.7081    4.6977   19.0213 N.ar    1  UNL1       -0.2101
     21 C           5.0007    4.0688   17.8577 C.ar    1  UNL1        0.2250
     22 C           4.7233    2.5946   17.8562 C.ar    1  UNL1        0.0593
     23 O           4.5706    4.9140   16.6956 O.3     1  UNL1       -0.4561
     24 C           3.2084    5.5419   16.6883 C.3     1  UNL1        0.2542
     25 C          -1.4297    3.8104   21.5308 C.2     1  UNL1        0.2414
     26 O          -0.0998    4.4502   21.7995 O.2     1  UNL1       -0.2733
     27 N          -1.4948    2.4614   20.8781 N.am    1  UNL1       -0.2682
     28 H          -2.3676    2.0415   20.7018 H       1  UNL1        0.1563
     29 C          -2.6945    4.5196   21.9148 C.3     1  UNL1        0.1319
     30 C          -3.0197    5.8532   21.3100 C.3     1  UNL1        0.0270
     31 C          -4.8869    3.2228   22.4261 C.3     1  UNL1        0.0862
     32 N          -3.6339    3.8952   22.9035 N.3     1  UNL1       -0.2902
     33 H          -3.0993    3.1929   23.4147 H       1  UNL1        0.1237
     34 C           2.7097   -0.2829   22.2165 C.1     1  UNL1       -0.0404
     35 C           3.5472   -0.9457   23.2696 C.1     1  UNL1       -0.0583
     36 C           4.3847   -1.6087   24.3228 C.ar    1  UNL1        0.0420
     37 C           4.2836   -1.1636   25.7516 C.ar    1  UNL1        0.0083
     38 C           5.1211   -1.8265   26.8047 C.ar    1  UNL1        0.0018
     39 C           6.0597   -2.9345   26.4290 C.ar    1  UNL1        0.0137
     40 C           6.8972   -3.5975   27.4822 C.ar    1  UNL1        0.0594
     41 C           6.7961   -3.1524   28.9110 C.3     1  UNL1        0.0521
     42 N           7.8359   -4.7055   27.1065 N.ar    1  UNL1       -0.2481
     43 C           7.9370   -5.1506   25.6776 C.ar    1  UNL1        0.0984
     44 C           7.0995   -4.4877   24.6245 C.ar    1  UNL1        0.0207
     45 C           6.1609   -3.3797   25.0002 C.ar    1  UNL1        0.0033
     46 C           5.3234   -2.7167   23.9471 C.ar    1  UNL1        0.0083
@<TRIPOS>BOND
     1    31    32    1
     2    32    29    1
     3    29    30    1
     4    29    25    1
     5    25    26    2
     6    25    27   am
     7    27     1    1
     8     1     2   ar
     9     2     3   ar
    10     3     4   ar
    11     4     7    1
    12     7     8   ar
    13     8    17    1
    14    17    18   ar
    15    18    19   ar
    16    19    20   ar
    17    20    21   ar
    18    21    23    1
    19    23    24    1
    20    21    22   ar
    21     8     9   ar
    22     9    10   ar
    23    10    11   ar
    24    11    12   ar
    25    12    13    1
    26    12    14   ar
    27    14    15   ar
    28    15    16   ar
    29     4     5   ar
    30     5    34    1
    31    34    35    3
    32    35    36    1
    33    36    37   ar
    34    37    38   ar
    35    38    39   ar
    36    39    40   ar
    37    40    41    1
    38    40    42   ar
    39    42    43   ar
    40    43    44   ar
    41    44    45   ar
    42    45    46   ar
    43     5     6   ar
    44     6     1   ar
    45    16     7   ar
    46    46    36   ar
    47    22    17   ar
    48    16    10   ar
    49    45    39   ar
    50    32    33    1
    51    27    28    1
@<TRIPOS>MOLECULE
*****
 46 51 0 0 0
SMALL
GASTEIGER

@<TRIPOS>ATOM
      1 C           6.0311   -2.9233   24.5067 C.ar    1  UNL1        0.1348
      2 C           7.0950   -2.4038   23.5858 C.ar    1  UNL1        0.0346
      3 C           6.8959   -1.1014   22.8688 C.ar    1  UNL1        0.0065
      4 C           5.6328   -0.3184   23.0728 C.ar    1  UNL1        0.0432
      5 C           4.5689   -0.8379   23.9937 C.ar    1  UNL1        0.1256
      6 N           4.7680   -2.1403   24.7107 N.ar    1  UNL1       -0.2222
      7 C           5.4337    0.9840   22.3558 C.ar    1  UNL1        0.0850
      8 C           5.2399    1.1566   20.8785 C.ar    1  UNL1        0.0992
      9 N           5.0798    2.6218   20.5999 N.ar    1  UNL1       -0.2265
     10 C           5.1748    3.3548   21.9052 C.ar    1  UNL1        0.1474
     11 C           5.0903    4.8132   22.2458 C.ar    1  UNL1        0.0332
     12 C           5.2245    5.2593   23.6715 C.ar    1  UNL1       -0.0174
     13 C           5.1401    6.7177   24.0121 C.3     1  UNL1        0.0312
     14 C           5.4433    4.2472   24.7568 C.ar    1  UNL1        0.0149
     15 C           5.5277    2.7888   24.4162 C.ar    1  UNL1        0.0811
     16 N           5.3935    2.3426   22.9904 N.ar    1  UNL1       -0.2888
     17 C           5.2111    0.0570   19.8586 C.ar    1  UNL1        0.0253
     18 C           6.1691    0.0792   18.7045 C.ar    1  UNL1        0.0224
     19 C           6.1404   -1.0204   17.6847 C.ar    1  UNL1        0.1021
     20 N           5.1537   -2.1422   17.8189 N.ar    1  UNL1       -0.2101
     21 C           4.1958   -2.1644   18.9729 C.ar    1  UNL1        0.2250
     22 C           4.2245   -1.0648   19.9928 C.ar    1  UNL1        0.0593
     23 O           3.2091   -3.2862   19.1071 O.3     1  UNL1       -0.4561
     24 C           3.6934   -4.7005   19.2296 C.3     1  UNL1        0.2542
     25 C           6.8870   -4.2468   26.5720 C.2     1  UNL1        0.2414
     26 O           7.3448   -2.9655   27.2035 O.2     1  UNL1       -0.2733
     27 N           6.2302   -4.2257   25.2237 N.am    1  UNL1       -0.2682
     28 H           5.9298   -5.0667   24.8092 H       1  UNL1        0.1563
     29 C           7.0861   -5.5493   27.2890 C.3     1  UNL1        0.1319
     30 C           8.0588   -6.5585   26.7546 C.3     1  UNL1        0.0270
     31 C           6.9020   -5.5151   29.8803 C.3     1  UNL1        0.0862
     32 N           6.3127   -5.8425   28.5402 N.3     1  UNL1       -0.2902
     33 H           5.4347   -5.3280   28.4711 H       1  UNL1        0.1237
     34 C           3.3058   -0.0550   24.1977 C.1     1  UNL1       -0.0404
     35 C           2.0427    0.7280   24.4017 C.1     1  UNL1       -0.0583
     36 C           0.7795    1.5109   24.6057 C.ar    1  UNL1        0.0420
     37 C           0.0956    1.4966   25.9406 C.ar    1  UNL1        0.0083
     38 C          -1.1674    2.2796   26.1446 C.ar    1  UNL1        0.0018
     39 C          -1.7466    3.0767   25.0136 C.ar    1  UNL1        0.0137
     40 C          -3.0097    3.8597   25.2176 C.ar    1  UNL1        0.0594
     41 C          -3.6936    3.8454   26.5525 C.3     1  UNL1        0.0521
     42 N          -3.5889    4.6568   24.0866 N.ar    1  UNL1       -0.2481
     43 C          -2.9049    4.6711   22.7517 C.ar    1  UNL1        0.0984
     44 C          -1.6419    3.8882   22.5477 C.ar    1  UNL1        0.0207
     45 C          -1.0627    3.0910   23.6787 C.ar    1  UNL1        0.0033
     46 C           0.2004    2.3081   23.4748 C.ar    1  UNL1        0.0083
@<TRIPOS>BOND
     1    31    32    1
     2    32    29    1
     3    29    30    1
     4    29    25    1
     5    25    26    2
     6    25    27   am
     7    27     1    1
     8     1     2   ar
     9     2     3   ar
    10     3     4   ar
    11     4     7    1
    12     7     8   ar
    13     8    17    1
    14    17    18   ar
    15    18    19   ar
    16    19    20   ar
    17    20    21   ar
    18    21    23    1
    19    23    24    1
    20    21    22   ar
    21     8     9   ar
    22     9    10   ar
    23    10    11   ar
    24    11    12   ar
    25    12    13    1
    26    12    14   ar
    27    14    15   ar
    28    15    16   ar
    29     4     5   ar
    30     5    34    1
    31    34    35    3
    32    35    36    1
    33    36    37   ar
    34    37    38   ar
    35    38    39   ar
    36    39    40   ar
    37    40    41    1
    38    40    42   ar
    39    42    43   ar
    40    43    44   ar
    41    44    45   ar
    42    45    46   ar
    43     5     6   ar
    44     6     1   ar
    45    16     7   ar
    46    46    36   ar
    47    22    17   ar
    48    16    10   ar
    49    45    39   ar
    50    32    33    1
    51    27    28    1
@<TRIPOS>MOLECULE
*****
 46 51 0 0 0
SMALL
GASTEIGER

@<TRIPOS>ATOM
      1 C           5.7044   -0.7961   30.1077 C.ar    1  UNL1        0.1348
      2 C           5.1452    0.5425   30.4889 C.ar    1  UNL1        0.0346
      3 C           4.4642    1.3923   29.4573 C.ar    1  UNL1        0.0065
      4 C           4.3424    0.9034   28.0445 C.ar    1  UNL1        0.0432
      5 C           4.9016   -0.4352   27.6632 C.ar    1  UNL1        0.1256
      6 N           5.5826   -1.2849   28.6948 N.ar    1  UNL1       -0.2222
      7 C           3.6615    1.7532   27.0129 C.ar    1  UNL1        0.0850
      8 C           2.1943    2.0589   26.9512 C.ar    1  UNL1        0.0992
      9 N           1.9541    2.9411   25.7621 N.ar    1  UNL1       -0.2265
     10 C           3.2729    3.1806   25.0887 C.ar    1  UNL1        0.1474
     11 C           3.6493    3.9723   23.8716 C.ar    1  UNL1        0.0332
     12 C           5.0809    4.0298   23.4275 C.ar    1  UNL1       -0.0174
     13 C           5.4573    4.8215   22.2103 C.3     1  UNL1        0.0312
     14 C           6.1362    3.2956   24.2005 C.ar    1  UNL1        0.0149
     15 C           5.7598    2.5039   25.4176 C.ar    1  UNL1        0.0811
     16 N           4.3281    2.4464   25.8618 N.ar    1  UNL1       -0.2888
     17 C           1.1504    1.5686   27.9104 C.ar    1  UNL1        0.0253
     18 C           0.0802    0.6293   27.4385 C.ar    1  UNL1        0.0224
     19 C          -0.9636    0.1390   28.3976 C.ar    1  UNL1        0.1021
     20 N          -0.9374    0.5880   29.8286 N.ar    1  UNL1       -0.2101
     21 C           0.1327    1.5272   30.3005 C.ar    1  UNL1        0.2250
     22 C           1.1766    2.0175   29.3413 C.ar    1  UNL1        0.0593
     23 O           0.1590    1.9761   31.7315 O.3     1  UNL1       -0.4561
     24 C           0.6677    3.3436   32.0793 C.3     1  UNL1        0.2542
     25 C           7.8507   -1.9427   31.0180 C.2     1  UNL1        0.2414
     26 O           8.6351   -1.3898   29.8651 O.2     1  UNL1       -0.2733
     27 N           6.3854   -1.6458   31.1393 N.am    1  UNL1       -0.2682
     28 H           5.8706   -2.0087   31.8959 H       1  UNL1        0.1563
     29 C           8.5316   -2.7924   32.0496 C.3     1  UNL1        0.1319
     30 C           9.1957   -2.1498   33.2312 C.3     1  UNL1        0.0270
     31 C           7.3441   -4.9982   31.3608 C.3     1  UNL1        0.0862
     32 N           8.5486   -4.2848   31.8997 N.3     1  UNL1       -0.2902
     33 H           9.3261   -4.5096   31.2790 H       1  UNL1        0.1237
     34 C           4.7799   -0.9241   26.2503 C.1     1  UNL1       -0.0404
     35 C           4.6581   -1.4130   24.8375 C.1     1  UNL1       -0.0583
     36 C           4.5363   -1.9020   23.4246 C.ar    1  UNL1        0.0420
     37 C           4.7716   -3.3493   23.1090 C.ar    1  UNL1        0.0083
     38 C           4.6498   -3.8382   21.6961 C.ar    1  UNL1        0.0018
     39 C           4.2928   -2.8796   20.5990 C.ar    1  UNL1        0.0137
     40 C           4.1710   -3.3686   19.1861 C.ar    1  UNL1        0.0594
     41 C           4.4063   -4.8159   18.8704 C.3     1  UNL1        0.0521
     42 N           3.8139   -2.4100   18.0889 N.ar    1  UNL1       -0.2481
     43 C           3.5787   -0.9626   18.4047 C.ar    1  UNL1        0.0984
     44 C           3.7004   -0.4737   19.8175 C.ar    1  UNL1        0.0207
     45 C           4.0575   -1.4323   20.9147 C.ar    1  UNL1        0.0033
     46 C           4.1792   -0.9434   22.3275 C.ar    1  UNL1        0.0083
@<TRIPOS>BOND
     1    31    32    1
     2    32    29    1
     3    29    30    1
     4    29    25    1
     5    25    26    2
     6    25    27   am
     7    27     1    1
     8     1     2   ar
     9     2     3   ar
    10     3     4   ar
    11     4     7    1
    12     7     8   ar
    13     8    17    1
    14    17    18   ar
    15    18    19   ar
    16    19    20   ar
    17    20    21   ar
    18    21    23    1
    19    23    24    1
    20    21    22   ar
    21     8     9   ar
    22     9    10   ar
    23    10    11   ar
    24    11    12   ar
    25    12    13    1
    26    12    14   ar
    27    14    15   ar
    28    15    16   ar
    29     4     5   ar
    30     5    34    1
    31    34    35    3
    32    35    36    1
    33    36    37   ar
    34    37    38   ar
    35    38    39   ar
    36    39    40   ar
    37    40    41    1
    38    40    42   ar
    39    42    43   ar
    40    43    44   ar
    41    44    45   ar
    42    45    46   ar
    43     5     6   ar
    44     6     1   ar
    45    16     7   ar
    46    46    36   ar
    47    22    17   ar
    48    16    10   ar
    49    45    39   ar
    50    32    33    1
    51    27    28    1
