@<TRIPOS>MOLECULE
*****
 20 20 0 0 0
SMALL
GASTEIGER

@<TRIPOS>ATOM
      1 N          -7.3554  -16.3900   23.7666 N.am    1  UNL1       -0.2863
      2 C          -8.2890  -16.0336   22.6480 C.2     1  UNL1        0.3235
      3 O          -7.8239  -15.1355   21.5402 O.2     1  UNL1       -0.2491
      4 N          -9.6878  -16.5753   22.6371 N.ar    1  UNL1       -0.2113
      5 C         -10.1529  -17.4733   23.7448 C.ar    1  UNL1        0.1231
      6 C         -11.5517  -18.0150   23.7340 C.ar    1  UNL1        0.2134
      7 F         -12.0168  -18.9131   24.8418 F       1  UNL1       -0.1975
      8 C         -12.4853  -17.6586   22.6154 C.ar    1  UNL1        0.2901
      9 O         -13.8840  -18.2003   22.6045 O.2     1  UNL1       -0.2646
     10 N         -12.0201  -16.7605   21.5076 N.ar    1  UNL1       -0.2722
     11 C         -10.6214  -16.2189   21.5185 C.ar    1  UNL1        0.3378
     12 O         -10.1563  -15.3208   20.4107 O.2     1  UNL1       -0.2460
     13 H          -7.6607  -16.9794   24.4936 H       1  UNL1        0.1512
     14 H         -12.6329  -16.5266   20.7734 H       1  UNL1        0.1735
     15 C          -5.9567  -15.8483   23.7774 C.3     1  UNL1        0.0911
     16 C          -5.4200  -15.1820   25.0095 C.3     1  UNL1        0.0213
     17 C          -5.6608  -15.7932   26.3580 C.3     1  UNL1        0.0018
     18 C          -6.6085  -15.1395   27.3194 C.3     1  UNL1        0.0001
     19 C          -8.5816  -16.8191   27.1291 C.3     1  UNL1        0.0000
     20 C          -8.0810  -15.4080   27.2206 C.3     1  UNL1        0.0000
@<TRIPOS>BOND
     1    19    20    1
     2    20    18    1
     3    18    17    1
     4    17    16    1
     5    16    15    1
     6    15     1    1
     7     1     2   am
     8     2     3    2
     9     2     4   am
    10     4     5   ar
    11     5     6   ar
    12     6     7    1
    13     6     8   ar
    14     8     9    2
    15     8    10   ar
    16    10    11   ar
    17    11    12    2
    18    11     4   ar
    19     1    13    1
    20    10    14    1
@<TRIPOS>MOLECULE
*****
 20 20 0 0 0
SMALL
GASTEIGER

@<TRIPOS>ATOM
      1 N         -11.1945  -16.9900   23.1361 N.am    1  UNL1       -0.2863
      2 C         -10.0436  -16.2839   22.4829 C.2     1  UNL1        0.3235
      3 O         -10.0968  -15.9573   21.0199 O.2     1  UNL1       -0.2491
      4 N          -8.8394  -15.9043   23.2928 N.ar    1  UNL1       -0.2113
      5 C          -8.7861  -16.2308   24.7558 C.ar    1  UNL1        0.1231
      6 C          -7.5819  -15.8512   25.5657 C.ar    1  UNL1        0.2134
      7 F          -7.5287  -16.1778   27.0288 F       1  UNL1       -0.1975
      8 C          -6.4310  -15.1452   24.9125 C.ar    1  UNL1        0.2901
      9 O          -5.2268  -14.7656   25.7223 O.2     1  UNL1       -0.2646
     10 N          -6.4842  -14.8186   23.4495 N.ar    1  UNL1       -0.2722
     11 C          -7.6884  -15.1982   22.6396 C.ar    1  UNL1        0.3378
     12 O          -7.7416  -14.8716   21.1765 O.2     1  UNL1       -0.2460
     13 H         -11.1596  -17.2043   24.0964 H       1  UNL1        0.1512
     14 H          -5.7288  -14.3552   23.0207 H       1  UNL1        0.1735
     15 C         -12.3987  -17.3695   22.3262 C.3     1  UNL1        0.0911
     16 C         -12.2814  -18.4065   21.2487 C.3     1  UNL1        0.0213
     17 C         -11.1518  -19.3930   21.2771 C.3     1  UNL1        0.0018
     18 C         -10.9479  -20.2654   22.4801 C.3     1  UNL1        0.0001
     19 C          -8.4421  -19.6014   22.6540 C.3     1  UNL1        0.0000
     20 C          -9.6873  -20.1505   23.2849 C.3     1  UNL1        0.0000
@<TRIPOS>BOND
     1    19    20    1
     2    20    18    1
     3    18    17    1
     4    17    16    1
     5    16    15    1
     6    15     1    1
     7     1     2   am
     8     2     3    2
     9     2     4   am
    10     4     5   ar
    11     5     6   ar
    12     6     7    1
    13     6     8   ar
    14     8     9    2
    15     8    10   ar
    16    10    11   ar
    17    11    12    2
    18    11     4   ar
    19     1    13    1
    20    10    14    1
@<TRIPOS>MOLECULE
*****
 20 20 0 0 0
SMALL
GASTEIGER

@<TRIPOS>ATOM
      1 N          -8.5637  -19.1141   20.2787 N.am    1  UNL1       -0.2863
      2 C          -7.6585  -18.4462   21.2708 C.2     1  UNL1        0.3235
      3 O          -8.1972  -17.3805   22.1786 O.2     1  UNL1       -0.2491
      4 N          -6.2147  -18.8438   21.3552 N.ar    1  UNL1       -0.2113
      5 C          -5.6760  -19.9095   20.4474 C.ar    1  UNL1        0.1231
      6 C          -4.2321  -20.3071   20.5318 C.ar    1  UNL1        0.2134
      7 F          -3.6934  -21.3729   19.6239 F       1  UNL1       -0.1975
      8 C          -3.3269  -19.6391   21.5239 C.ar    1  UNL1        0.2901
      9 O          -1.8831  -20.0368   21.6083 O.2     1  UNL1       -0.2646
     10 N          -3.8656  -18.5735   22.4317 N.ar    1  UNL1       -0.2722
     11 C          -5.3095  -18.1758   22.3473 C.ar    1  UNL1        0.3378
     12 O          -5.8482  -17.1101   23.2552 O.2     1  UNL1       -0.2460
     13 H          -8.2101  -19.8136   19.6829 H       1  UNL1        0.1512
     14 H          -3.2716  -18.1350   23.0829 H       1  UNL1        0.1735
     15 C         -10.0076  -18.7165   20.1943 C.3     1  UNL1        0.0911
     16 C         -11.0614  -19.5810   20.8206 C.3     1  UNL1        0.0213
     17 C         -11.0442  -19.8322   22.2993 C.3     1  UNL1        0.0018
     18 C         -11.3852  -18.7250   23.2521 C.3     1  UNL1        0.0001
     19 C         -13.7783  -18.0074   23.9650 C.3     1  UNL1        0.0000
     20 C         -12.6131  -17.8935   23.0271 C.3     1  UNL1        0.0000
@<TRIPOS>BOND
     1    19    20    1
     2    20    18    1
     3    18    17    1
     4    17    16    1
     5    16    15    1
     6    15     1    1
     7     1     2   am
     8     2     3    2
     9     2     4   am
    10     4     5   ar
    11     5     6   ar
    12     6     7    1
    13     6     8   ar
    14     8     9    2
    15     8    10   ar
    16    10    11   ar
    17    11    12    2
    18    11     4   ar
    19     1    13    1
    20    10    14    1
@<TRIPOS>MOLECULE
*****
 20 20 0 0 0
SMALL
GASTEIGER

@<TRIPOS>ATOM
      1 N          -7.4363  -17.0368   23.2050 N.am    1  UNL1       -0.2863
      2 C          -7.2074  -18.1270   22.2005 C.2     1  UNL1        0.3235
      3 O          -8.3646  -18.6954   21.4339 O.2     1  UNL1       -0.2491
      4 N          -5.8213  -18.6487   21.9627 N.ar    1  UNL1       -0.2113
      5 C          -4.6642  -18.0803   22.7294 C.ar    1  UNL1        0.1231
      6 C          -3.2781  -18.6020   22.4916 C.ar    1  UNL1        0.2134
      7 F          -2.1209  -18.0335   23.2583 F       1  UNL1       -0.1975
      8 C          -3.0492  -19.6922   21.4871 C.ar    1  UNL1        0.2901
      9 O          -1.6631  -20.2140   21.2493 O.2     1  UNL1       -0.2646
     10 N          -4.2063  -20.2607   20.7204 N.ar    1  UNL1       -0.2722
     11 C          -5.5924  -19.7389   20.9582 C.ar    1  UNL1        0.3378
     12 O          -6.7496  -20.3074   20.1915 O.2     1  UNL1       -0.2460
     13 H          -6.6769  -16.6636   23.7082 H       1  UNL1        0.1512
     14 H          -4.0561  -20.9762   20.0612 H       1  UNL1        0.1735
     15 C          -8.8224  -16.5150   23.4428 C.3     1  UNL1        0.0911
     16 C          -9.1593  -15.8461   24.7425 C.3     1  UNL1        0.0213
     17 C          -8.6210  -16.3954   26.0303 C.3     1  UNL1        0.0018
     18 C          -8.0585  -15.4665   27.0650 C.3     1  UNL1        0.0001
     19 C          -5.6467  -15.2979   26.1137 C.3     1  UNL1        0.0000
     20 C          -6.5764  -15.3997   27.2865 C.3     1  UNL1        0.0000
@<TRIPOS>BOND
     1    19    20    1
     2    20    18    1
     3    18    17    1
     4    17    16    1
     5    16    15    1
     6    15     1    1
     7     1     2   am
     8     2     3    2
     9     2     4   am
    10     4     5   ar
    11     5     6   ar
    12     6     7    1
    13     6     8   ar
    14     8     9    2
    15     8    10   ar
    16    10    11   ar
    17    11    12    2
    18    11     4   ar
    19     1    13    1
    20    10    14    1
@<TRIPOS>MOLECULE
*****
 20 20 0 0 0
SMALL
GASTEIGER

@<TRIPOS>ATOM
      1 N          -7.8457  -17.4070   22.9964 N.am    1  UNL1       -0.2863
      2 C          -7.4763  -18.4732   22.0081 C.2     1  UNL1        0.3235
      3 O          -8.5422  -19.1372   21.1878 O.2     1  UNL1       -0.2491
      4 N          -6.0410  -18.8753   21.8400 N.ar    1  UNL1       -0.2113
      5 C          -4.9751  -18.2112   22.6602 C.ar    1  UNL1        0.1231
      6 C          -3.5398  -18.6133   22.4921 C.ar    1  UNL1        0.2134
      7 F          -2.4739  -17.9492   23.3124 F       1  UNL1       -0.1975
      8 C          -3.1704  -19.6795   21.5038 C.ar    1  UNL1        0.2901
      9 O          -1.7352  -20.0816   21.3358 O.2     1  UNL1       -0.2646
     10 N          -4.2363  -20.3435   20.6836 N.ar    1  UNL1       -0.2722
     11 C          -5.6716  -19.9414   20.8517 C.ar    1  UNL1        0.3378
     12 O          -6.7376  -20.6056   20.0314 O.2     1  UNL1       -0.2460
     13 H          -7.1461  -16.9711   23.5347 H       1  UNL1        0.1512
     14 H          -3.9939  -21.0433   20.0349 H       1  UNL1        0.1735
     15 C          -9.2810  -17.0049   23.1645 C.3     1  UNL1        0.0911
     16 C         -10.1475  -17.7166   24.1609 C.3     1  UNL1        0.0213
     17 C         -11.3222  -18.5232   23.6923 C.3     1  UNL1        0.0018
     18 C         -12.5345  -17.8326   23.1417 C.3     1  UNL1        0.0001
     19 C         -12.3541  -16.4541   20.9468 C.3     1  UNL1        0.0000
     20 C         -12.7254  -17.7216   21.6580 C.3     1  UNL1        0.0000
@<TRIPOS>BOND
     1    19    20    1
     2    20    18    1
     3    18    17    1
     4    17    16    1
     5    16    15    1
     6    15     1    1
     7     1     2   am
     8     2     3    2
     9     2     4   am
    10     4     5   ar
    11     5     6   ar
    12     6     7    1
    13     6     8   ar
    14     8     9    2
    15     8    10   ar
    16    10    11   ar
    17    11    12    2
    18    11     4   ar
    19     1    13    1
    20    10    14    1
@<TRIPOS>MOLECULE
*****
 20 20 0 0 0
SMALL
GASTEIGER

@<TRIPOS>ATOM
      1 N          -5.8320  -19.2648   21.8306 N.am    1  UNL1       -0.2863
      2 C          -6.5960  -18.0331   22.2166 C.2     1  UNL1        0.3235
      3 O          -5.9385  -16.9731   23.0497 O.2     1  UNL1       -0.2491
      4 N          -8.0175  -17.8614   21.7696 N.ar    1  UNL1       -0.2113
      5 C          -8.6750  -18.9213   20.9364 C.ar    1  UNL1        0.1231
      6 C         -10.0964  -18.7496   20.4894 C.ar    1  UNL1        0.2134
      7 F         -10.7539  -19.8097   19.6562 F       1  UNL1       -0.1975
      8 C         -10.8605  -17.5179   20.8754 C.ar    1  UNL1        0.2901
      9 O         -12.2820  -17.3461   20.4284 O.2     1  UNL1       -0.2646
     10 N         -10.2030  -16.4579   21.7086 N.ar    1  UNL1       -0.2722
     11 C          -8.7815  -16.6297   22.1556 C.ar    1  UNL1        0.3378
     12 O          -8.1240  -15.5696   22.9888 O.2     1  UNL1       -0.2460
     13 H          -6.2635  -19.9606   21.2837 H       1  UNL1        0.1512
     14 H         -10.7044  -15.6495   21.9620 H       1  UNL1        0.1735
     15 C          -4.4105  -19.4366   22.2776 C.3     1  UNL1        0.0911
     16 C          -3.3621  -19.8676   21.2951 C.3     1  UNL1        0.0213
     17 C          -3.4893  -19.4905   19.8489 C.3     1  UNL1        0.0018
     18 C          -3.0433  -18.1355   19.3851 C.3     1  UNL1        0.0001
     19 C          -0.5100  -17.7873   19.8450 C.3     1  UNL1        0.0000
     20 C          -1.6457  -17.9392   18.8769 C.3     1  UNL1        0.0000
@<TRIPOS>BOND
     1    19    20    1
     2    20    18    1
     3    18    17    1
     4    17    16    1
     5    16    15    1
     6    15     1    1
     7     1     2   am
     8     2     3    2
     9     2     4   am
    10     4     5   ar
    11     5     6   ar
    12     6     7    1
    13     6     8   ar
    14     8     9    2
    15     8    10   ar
    16    10    11   ar
    17    11    12    2
    18    11     4   ar
    19     1    13    1
    20    10    14    1
@<TRIPOS>MOLECULE
*****
 20 20 0 0 0
SMALL
GASTEIGER

@<TRIPOS>ATOM
      1 N          -6.6013  -20.1840   21.4142 N.am    1  UNL1       -0.2863
      2 C          -7.8001  -19.4811   20.8497 C.2     1  UNL1        0.3235
      3 O          -7.8019  -19.0334   19.4181 O.2     1  UNL1       -0.2491
      4 N          -8.9972  -19.2258   21.7169 N.ar    1  UNL1       -0.2113
      5 C          -8.9954  -19.6735   23.1485 C.ar    1  UNL1        0.1231
      6 C         -10.1924  -19.4183   24.0156 C.ar    1  UNL1        0.2134
      7 F         -10.1906  -19.8660   25.4473 F       1  UNL1       -0.1975
      8 C         -11.3912  -18.7153   23.4512 C.ar    1  UNL1        0.2901
      9 O         -12.5883  -18.4601   24.3183 O.2     1  UNL1       -0.2646
     10 N         -11.3930  -18.2677   22.0196 N.ar    1  UNL1       -0.2722
     11 C         -10.1960  -18.5229   21.1524 C.ar    1  UNL1        0.3378
     12 O         -10.1978  -18.0752   19.7208 O.2     1  UNL1       -0.2460
     13 H          -6.6001  -20.4779   22.3538 H       1  UNL1        0.1512
     14 H         -12.1799  -17.8063   21.6491 H       1  UNL1        0.1735
     15 C          -5.4043  -20.4393   20.5470 C.3     1  UNL1        0.0911
     16 C          -4.2771  -19.4501   20.5145 C.3     1  UNL1        0.0213
     17 C          -2.9068  -19.8594   20.9670 C.3     1  UNL1        0.0018
     18 C          -1.9846  -18.8459   21.5772 C.3     1  UNL1        0.0001
     19 C          -2.1869  -16.2765   21.9051 C.3     1  UNL1        0.0000
     20 C          -2.5477  -17.6717   22.3216 C.3     1  UNL1        0.0000
@<TRIPOS>BOND
     1    19    20    1
     2    20    18    1
     3    18    17    1
     4    17    16    1
     5    16    15    1
     6    15     1    1
     7     1     2   am
     8     2     3    2
     9     2     4   am
    10     4     5   ar
    11     5     6   ar
    12     6     7    1
    13     6     8   ar
    14     8     9    2
    15     8    10   ar
    16    10    11   ar
    17    11    12    2
    18    11     4   ar
    19     1    13    1
    20    10    14    1
@<TRIPOS>MOLECULE
*****
 20 20 0 0 0
SMALL
GASTEIGER

@<TRIPOS>ATOM
      1 N          -8.2343  -17.9211   22.1434 N.am    1  UNL1       -0.2863
      2 C          -6.9523  -17.4992   22.7980 C.2     1  UNL1        0.3235
      3 O          -6.9579  -16.4008   23.8195 O.2     1  UNL1       -0.2491
      4 N          -5.6648  -18.1756   22.4310 N.ar    1  UNL1       -0.2113
      5 C          -5.6592  -19.2740   21.4095 C.ar    1  UNL1        0.1231
      6 C          -4.3717  -19.9504   21.0425 C.ar    1  UNL1        0.2134
      7 F          -4.3662  -21.0488   20.0210 F       1  UNL1       -0.1975
      8 C          -3.0897  -19.5285   21.6971 C.ar    1  UNL1        0.2901
      9 O          -1.8022  -20.2049   21.3301 O.2     1  UNL1       -0.2646
     10 N          -3.0953  -18.4301   22.7186 N.ar    1  UNL1       -0.2722
     11 C          -4.3828  -17.7537   23.0856 C.ar    1  UNL1        0.3378
     12 O          -4.3883  -16.6553   24.1071 O.2     1  UNL1       -0.2460
     13 H          -8.2307  -18.6420   21.4729 H       1  UNL1        0.1512
     14 H          -2.2539  -18.1532   23.1482 H       1  UNL1        0.1735
     15 C          -9.5219  -17.2446   22.5104 C.3     1  UNL1        0.0911
     16 C         -10.7987  -18.0312   22.5461 C.3     1  UNL1        0.0213
     17 C         -10.7989  -19.4789   22.1535 C.3     1  UNL1        0.0018
     18 C         -11.1404  -19.8746   20.7476 C.3     1  UNL1        0.0001
     19 C          -9.0504  -19.8012   19.2059 C.3     1  UNL1        0.0000
     20 C         -10.3967  -19.2665   19.5956 C.3     1  UNL1        0.0000
@<TRIPOS>BOND
     1    19    20    1
     2    20    18    1
     3    18    17    1
     4    17    16    1
     5    16    15    1
     6    15     1    1
     7     1     2   am
     8     2     3    2
     9     2     4   am
    10     4     5   ar
    11     5     6   ar
    12     6     7    1
    13     6     8   ar
    14     8     9    2
    15     8    10   ar
    16    10    11   ar
    17    11    12    2
    18    11     4   ar
    19     1    13    1
    20    10    14    1
@<TRIPOS>MOLECULE
*****
 20 20 0 0 0
SMALL
GASTEIGER

@<TRIPOS>ATOM
      1 N          -6.1877  -18.3462   22.1638 N.am    1  UNL1       -0.2863
      2 C          -7.0861  -18.9323   21.1153 C.2     1  UNL1        0.3235
      3 O          -6.5448  -19.9333   20.1381 O.2     1  UNL1       -0.2491
      4 N          -8.5258  -18.5174   21.0441 N.ar    1  UNL1       -0.2113
      5 C          -9.0671  -17.5165   22.0213 C.ar    1  UNL1        0.1231
      6 C         -10.5069  -17.1016   21.9500 C.ar    1  UNL1        0.2134
      7 F         -11.0482  -16.1006   22.9273 F       1  UNL1       -0.1975
      8 C         -11.4052  -17.6877   20.9015 C.ar    1  UNL1        0.2901
      9 O         -12.8450  -17.2728   20.8302 O.2     1  UNL1       -0.2646
     10 N         -10.8639  -18.6886   19.9243 N.ar    1  UNL1       -0.2722
     11 C          -9.4242  -19.1035   19.9956 C.ar    1  UNL1        0.3378
     12 O          -8.8829  -20.1045   19.0183 O.2     1  UNL1       -0.2460
     13 H          -6.5430  -17.6893   22.8052 H       1  UNL1        0.1512
     14 H         -11.4536  -19.0733   19.2361 H       1  UNL1        0.1735
     15 C          -4.7480  -18.7611   22.2351 C.3     1  UNL1        0.0911
     16 C          -3.8375  -18.1384   23.2516 C.3     1  UNL1        0.0213
     17 C          -2.4433  -17.7413   22.8663 C.3     1  UNL1        0.0018
     18 C          -2.2216  -16.5692   21.9568 C.3     1  UNL1        0.0001
     19 C          -2.0154  -17.8100   19.6834 C.3     1  UNL1        0.0000
     20 C          -1.5292  -16.7619   20.6402 C.3     1  UNL1        0.0000
@<TRIPOS>BOND
     1    19    20    1
     2    20    18    1
     3    18    17    1
     4    17    16    1
     5    16    15    1
     6    15     1    1
     7     1     2   am
     8     2     3    2
     9     2     4   am
    10     4     5   ar
    11     5     6   ar
    12     6     7    1
    13     6     8   ar
    14     8     9    2
    15     8    10   ar
    16    10    11   ar
    17    11    12    2
    18    11     4   ar
    19     1    13    1
    20    10    14    1
