@<TRIPOS>MOLECULE
*****
 34 38 0 0 0
SMALL
GASTEIGER

@<TRIPOS>ATOM
      1 N           3.0177    0.0506   19.8981 N.ar    1  UNL1       -0.2286
      2 C           3.4410    1.3766   20.4571 C.ar    1  UNL1        0.0990
      3 C           2.2246    2.0537   21.0156 C.ar    1  UNL1        0.0338
      4 C           1.0496    1.1461   20.8018 C.ar    1  UNL1        0.0981
      5 N           1.5398   -0.0919   20.1112 N.ar    1  UNL1       -0.1680
      6 C          -0.1668    1.8232   21.3604 C.3     1  UNL1        0.1414
      7 N           0.2564    3.1493   21.9194 N.am    1  UNL1       -0.2661
      8 C          -0.6408    4.1561   22.5761 C.2     1  UNL1        0.2496
      9 O          -0.0718    5.4456   23.0896 O.2     1  UNL1       -0.2699
     10 C           1.7344    3.2917   21.7062 C.3     1  UNL1        0.1236
     11 C           4.2534   -4.8948   18.8901 C.3     1  UNL1        0.0521
     12 C           4.5328   -3.4290   18.7373 C.ar    1  UNL1        0.0609
     13 C           3.6356   -2.4221   19.3941 C.ar    1  UNL1        0.0339
     14 C           3.9149   -0.9563   19.2414 C.ar    1  UNL1        0.0855
     15 C           5.0914   -0.4973   18.4319 C.ar    1  UNL1        0.0398
     16 C           5.9885   -1.5042   17.7752 C.ar    1  UNL1        0.1000
     17 N           5.7092   -2.9701   17.9279 N.ar    1  UNL1       -0.2480
     18 C          -2.1069    3.8735   22.7193 C.ar    1  UNL1        0.0549
     19 C          -3.0018    3.9261   21.5167 C.ar    1  UNL1        0.0229
     20 C          -4.4681    3.6435   21.6599 C.ar    1  UNL1        0.1059
     21 C          -5.0393    3.3084   23.0057 C.ar    1  UNL1        0.0183
     22 C          -4.1444    3.2558   24.2084 C.ar    1  UNL1        0.0015
     23 C          -2.6783    3.5384   24.0652 C.ar    1  UNL1        0.0045
     24 C          -1.7833    3.4858   25.2678 C.ar    1  UNL1        0.0024
     25 C          -1.6978    4.6649   26.1912 C.ar    1  UNL1        0.0001
     26 C          -0.8029    4.6123   27.3938 C.ar    1  UNL1        0.0023
     27 C           0.0065    3.3807   27.6731 C.ar    1  UNL1        0.0296
     28 C          -0.0790    2.2016   26.7498 C.ar    1  UNL1        0.1401
     29 F           0.7304    0.9700   27.0291 F       1  UNL1       -0.2042
     30 C          -0.9739    2.2541   25.5471 C.ar    1  UNL1        0.0296
     31 S          -5.3629    3.6961   20.4572 S.O2    1  UNL1        0.0105
     32 C          -6.2578    3.7488   19.2546 C.3     1  UNL1        0.1816
     33 O          -6.5351    3.9994   21.3427 O.2     1  UNL1       -0.1686
     34 O          -4.1908    3.3929   19.5717 O.2     1  UNL1       -0.1686
@<TRIPOS>BOND
     1    11    12    1
     2    12    13   ar
     3    13    14   ar
     4    14     1    1
     5     1     2   ar
     6     2     3   ar
     7     3     4   ar
     8     4     5   ar
     9     4     6    1
    10     6     7    1
    11     7     8   am
    12     8     9    2
    13     8    18    1
    14    18    19   ar
    15    19    20   ar
    16    20    31    1
    17    31    32    1
    18    31    33    2
    19    31    34    2
    20    20    21   ar
    21    21    22   ar
    22    22    23   ar
    23    23    24    1
    24    24    25   ar
    25    25    26   ar
    26    26    27   ar
    27    27    28   ar
    28    28    29    1
    29    28    30   ar
    30     7    10    1
    31    14    15   ar
    32    15    16   ar
    33    16    17   ar
    34    17    12   ar
    35     5     1   ar
    36    23    18   ar
    37    30    24   ar
    38    10     3    1
@<TRIPOS>MOLECULE
*****
 34 38 0 0 0
SMALL
GASTEIGER

@<TRIPOS>ATOM
      1 N           5.5878   -1.6465   27.8004 N.ar    1  UNL1       -0.2286
      2 C           6.5773   -0.9736   26.8960 C.ar    1  UNL1        0.0990
      3 C           5.8633   -0.5846   25.6355 C.ar    1  UNL1        0.0338
      4 C           4.4325   -1.0171   25.7609 C.ar    1  UNL1        0.0981
      5 N           4.2622   -1.6734   27.0989 N.ar    1  UNL1       -0.1680
      6 C           3.7184   -0.6282   24.5004 C.3     1  UNL1        0.1414
      7 N           4.7080    0.0448   23.5959 N.am    1  UNL1       -0.2661
      8 C           4.4221    0.5943   22.2298 C.2     1  UNL1        0.2496
      9 O           5.5183    1.2436   21.4381 O.2     1  UNL1       -0.2699
     10 C           6.0335    0.0716   24.2975 C.3     1  UNL1        0.1236
     11 C           7.4825   -5.4221   30.8261 C.3     1  UNL1        0.0521
     12 C           6.8211   -4.0839   30.6794 C.ar    1  UNL1        0.0609
     13 C           6.5352   -3.5343   29.3133 C.ar    1  UNL1        0.0339
     14 C           5.8737   -2.1961   29.1665 C.ar    1  UNL1        0.0855
     15 C           5.4980   -1.4074   30.3859 C.ar    1  UNL1        0.0398
     16 C           5.7839   -1.9570   31.7520 C.ar    1  UNL1        0.1000
     17 N           6.4454   -3.2952   31.8988 N.ar    1  UNL1       -0.2480
     18 C           3.0401    0.4945   21.6554 C.ar    1  UNL1        0.0549
     19 C           2.0307    1.5672   21.9390 C.ar    1  UNL1        0.0229
     20 C           0.6486    1.4675   21.3646 C.ar    1  UNL1        0.1059
     21 C           0.2759    0.2950   20.5065 C.ar    1  UNL1        0.0183
     22 C           1.2853   -0.7778   20.2228 C.ar    1  UNL1        0.0015
     23 C           2.6673   -0.6780   20.7972 C.ar    1  UNL1        0.0045
     24 C           3.6766   -1.7507   20.5136 C.ar    1  UNL1        0.0024
     25 C           3.9144   -2.8408   21.5162 C.ar    1  UNL1        0.0001
     26 C           4.9237   -3.9136   21.2325 C.ar    1  UNL1        0.0023
     27 C           5.6953   -3.8962   19.9463 C.ar    1  UNL1        0.0296
     28 C           5.4576   -2.8062   18.9437 C.ar    1  UNL1        0.1401
     29 F           6.2292   -2.7888   17.6575 F       1  UNL1       -0.2042
     30 C           4.4482   -1.7334   19.2273 C.ar    1  UNL1        0.0296
     31 S          -0.3606    2.5403   21.6483 S.O2    1  UNL1        0.0105
     32 C          -1.3700    3.6130   21.9319 C.3     1  UNL1        0.1816
     33 O          -1.1823    2.0755   20.4825 O.2     1  UNL1       -0.1686
     34 O           0.4609    3.0051   22.8140 O.2     1  UNL1       -0.1686
@<TRIPOS>BOND
     1    11    12    1
     2    12    13   ar
     3    13    14   ar
     4    14     1    1
     5     1     2   ar
     6     2     3   ar
     7     3     4   ar
     8     4     5   ar
     9     4     6    1
    10     6     7    1
    11     7     8   am
    12     8     9    2
    13     8    18    1
    14    18    19   ar
    15    19    20   ar
    16    20    31    1
    17    31    32    1
    18    31    33    2
    19    31    34    2
    20    20    21   ar
    21    21    22   ar
    22    22    23   ar
    23    23    24    1
    24    24    25   ar
    25    25    26   ar
    26    26    27   ar
    27    27    28   ar
    28    28    29    1
    29    28    30   ar
    30     7    10    1
    31    14    15   ar
    32    15    16   ar
    33    16    17   ar
    34    17    12   ar
    35     5     1   ar
    36    23    18   ar
    37    30    24   ar
    38    10     3    1
@<TRIPOS>MOLECULE
*****
 34 38 0 0 0
SMALL
GASTEIGER

@<TRIPOS>ATOM
      1 N           3.8253   -0.2219   21.0547 N.ar    1  UNL1       -0.2286
      2 C           3.7984    1.2726   21.1800 C.ar    1  UNL1        0.0990
      3 C           3.1297    1.6169   22.4778 C.ar    1  UNL1        0.0338
      4 C           2.7433    0.3352   23.1546 C.ar    1  UNL1        0.0981
      5 N           3.1733   -0.8012   22.2750 N.ar    1  UNL1       -0.1680
      6 C           2.0746    0.6796   24.4523 C.3     1  UNL1        0.1414
      7 N           2.0477    2.1742   24.5777 N.am    1  UNL1       -0.2661
      8 C           1.4701    2.9526   25.7223 C.2     1  UNL1        0.2496
      9 O           1.5159    4.4519   25.7086 O.2     1  UNL1       -0.2699
     10 C           2.6997    2.7534   23.3573 C.3     1  UNL1        0.1236
     11 C           4.6074   -4.7529   18.6342 C.3     1  UNL1        0.0521
     12 C           4.7940   -3.2660   18.6998 C.ar    1  UNL1        0.0609
     13 C           4.2164   -2.4874   19.8444 C.ar    1  UNL1        0.0339
     14 C           4.4029   -1.0005   19.9100 C.ar    1  UNL1        0.0855
     15 C           5.1670   -0.2921   18.8310 C.ar    1  UNL1        0.0398
     16 C           5.7446   -1.0708   17.6863 C.ar    1  UNL1        0.1000
     17 N           5.5581   -2.5577   17.6207 N.ar    1  UNL1       -0.2480
     18 C           0.8467    2.2320   26.8807 C.ar    1  UNL1        0.0549
     19 C           1.7063    1.4440   27.8242 C.ar    1  UNL1        0.0229
     20 C           1.0829    0.7233   28.9828 C.ar    1  UNL1        0.1059
     21 C          -0.4000    0.7905   29.1977 C.ar    1  UNL1        0.0183
     22 C          -1.2597    1.5785   28.2542 C.ar    1  UNL1        0.0015
     23 C          -0.6363    2.2991   27.0957 C.ar    1  UNL1        0.0045
     24 C          -1.4959    3.0871   26.1522 C.ar    1  UNL1        0.0024
     25 C          -2.3502    4.2052   26.6719 C.ar    1  UNL1        0.0001
     26 C          -3.2099    4.9931   25.7284 C.ar    1  UNL1        0.0023
     27 C          -3.2152    4.6629   24.2652 C.ar    1  UNL1        0.0296
     28 C          -2.3610    3.5449   23.7454 C.ar    1  UNL1        0.1401
     29 F          -2.3663    3.2147   22.2823 F       1  UNL1       -0.2042
     30 C          -1.5013    2.7569   24.6890 C.ar    1  UNL1        0.0296
     31 S           1.9427   -0.0646   29.9262 S.O2    1  UNL1        0.0105
     32 C           2.8025   -0.8525   30.8695 C.3     1  UNL1        0.1816
     33 O           2.3855   -0.9400   28.7914 O.2     1  UNL1       -0.1686
     34 O           1.5000    0.8108   31.0609 O.2     1  UNL1       -0.1686
@<TRIPOS>BOND
     1    11    12    1
     2    12    13   ar
     3    13    14   ar
     4    14     1    1
     5     1     2   ar
     6     2     3   ar
     7     3     4   ar
     8     4     5   ar
     9     4     6    1
    10     6     7    1
    11     7     8   am
    12     8     9    2
    13     8    18    1
    14    18    19   ar
    15    19    20   ar
    16    20    31    1
    17    31    32    1
    18    31    33    2
    19    31    34    2
    20    20    21   ar
    21    21    22   ar
    22    22    23   ar
    23    23    24    1
    24    24    25   ar
    25    25    26   ar
    26    26    27   ar
    27    27    28   ar
    28    28    29    1
    29    28    30   ar
    30     7    10    1
    31    14    15   ar
    32    15    16   ar
    33    16    17   ar
    34    17    12   ar
    35     5     1   ar
    36    23    18   ar
    37    30    24   ar
    38    10     3    1
@<TRIPOS>MOLECULE
*****
 34 38 0 0 0
SMALL
GASTEIGER

@<TRIPOS>ATOM
      1 N           4.5787   -1.5167   23.8307 N.ar    1  UNL1       -0.2286
      2 C           6.0103   -1.2241   24.1696 C.ar    1  UNL1        0.0990
      3 C           6.1366   -1.1967   25.6640 C.ar    1  UNL1        0.0338
      4 C           4.7830   -1.4725   26.2487 C.ar    1  UNL1        0.0981
      5 N           3.8202   -1.6702   25.1156 N.ar    1  UNL1       -0.1680
      6 C           4.9093   -1.4451   27.7432 C.3     1  UNL1        0.1414
      7 N           6.3409   -1.1525   28.0821 N.am    1  UNL1       -0.2661
      8 C           6.9135   -1.0342   29.4634 C.2     1  UNL1        0.2496
      9 O           8.3720   -0.7362   29.6478 O.2     1  UNL1       -0.2699
     10 C           7.0994   -0.9990   26.7971 C.3     1  UNL1        0.1236
     11 C           4.2476   -4.0341   19.2972 C.3     1  UNL1        0.0521
     12 C           3.8406   -2.8938   20.1825 C.ar    1  UNL1        0.0609
     13 C           4.4131   -2.7754   21.5639 C.ar    1  UNL1        0.0339
     14 C           4.0061   -1.6351   22.4494 C.ar    1  UNL1        0.0855
     15 C           3.0266   -0.6131   21.9534 C.ar    1  UNL1        0.0398
     16 C           2.4540   -0.7315   20.5720 C.ar    1  UNL1        0.1000
     17 N           2.8610   -1.8718   19.6866 N.ar    1  UNL1       -0.2480
     18 C           6.0276   -1.2138   30.6604 C.ar    1  UNL1        0.0549
     19 C           5.0390   -0.1474   31.0286 C.ar    1  UNL1        0.0229
     20 C           4.1530   -0.3271   32.2257 C.ar    1  UNL1        0.1059
     21 C           4.2557   -1.5729   33.0545 C.ar    1  UNL1        0.0183
     22 C           5.2443   -2.6394   32.6864 C.ar    1  UNL1        0.0015
     23 C           6.1302   -2.4598   31.4894 C.ar    1  UNL1        0.0045
     24 C           7.1188   -3.5261   31.1212 C.ar    1  UNL1        0.0024
     25 C           8.4612   -3.5673   31.7894 C.ar    1  UNL1        0.0001
     26 C           9.4498   -4.6336   31.4212 C.ar    1  UNL1        0.0023
     27 C           9.0960   -5.6588   30.3849 C.ar    1  UNL1        0.0296
     28 C           7.7537   -5.6177   29.7168 C.ar    1  UNL1        0.1401
     29 F           7.4000   -6.6429   28.6805 F       1  UNL1       -0.2042
     30 C           6.7650   -4.5513   30.0849 C.ar    1  UNL1        0.0296
     31 S           3.1644    0.7394   32.5937 S.O2    1  UNL1        0.0105
     32 C           2.1759    1.8058   32.9619 C.3     1  UNL1        0.1816
     33 O           3.7454    0.8010   33.9753 O.2     1  UNL1       -0.1686
     34 O           2.5834    0.6778   31.2122 O.2     1  UNL1       -0.1686
@<TRIPOS>BOND
     1    11    12    1
     2    12    13   ar
     3    13    14   ar
     4    14     1    1
     5     1     2   ar
     6     2     3   ar
     7     3     4   ar
     8     4     5   ar
     9     4     6    1
    10     6     7    1
    11     7     8   am
    12     8     9    2
    13     8    18    1
    14    18    19   ar
    15    19    20   ar
    16    20    31    1
    17    31    32    1
    18    31    33    2
    19    31    34    2
    20    20    21   ar
    21    21    22   ar
    22    22    23   ar
    23    23    24    1
    24    24    25   ar
    25    25    26   ar
    26    26    27   ar
    27    27    28   ar
    28    28    29    1
    29    28    30   ar
    30     7    10    1
    31    14    15   ar
    32    15    16   ar
    33    16    17   ar
    34    17    12   ar
    35     5     1   ar
    36    23    18   ar
    37    30    24   ar
    38    10     3    1
@<TRIPOS>MOLECULE
*****
 34 38 0 0 0
SMALL
GASTEIGER

@<TRIPOS>ATOM
      1 N           1.4688    0.9532   26.5621 N.ar    1  UNL1       -0.2286
      2 C           0.3680    1.3924   25.6427 C.ar    1  UNL1        0.0990
      3 C           0.8252    1.1677   24.2319 C.ar    1  UNL1        0.0338
      4 C           2.2085    0.5896   24.2794 C.ar    1  UNL1        0.0981
      5 N           2.6063    0.4570   25.7196 N.ar    1  UNL1       -0.1680
      6 C           2.6657    0.3649   22.8685 C.3     1  UNL1        0.1414
      7 N           1.5649    0.8042   21.9490 N.am    1  UNL1       -0.2661
      8 C           1.5961    0.7558   20.4502 C.2     1  UNL1        0.2496
      9 O           0.4137    1.2322   19.6595 O.2     1  UNL1       -0.2699
     10 C           0.4274    1.3003   22.7917 C.3     1  UNL1        0.1236
     11 C           3.1276   -0.8172   31.1571 C.3     1  UNL1        0.0521
     12 C           2.2670    0.1164   30.3586 C.ar    1  UNL1        0.0609
     13 C           2.2982    0.0680   28.8597 C.ar    1  UNL1        0.0339
     14 C           1.4375    1.0016   28.0610 C.ar    1  UNL1        0.0855
     15 C           0.5457    1.9836   28.7613 C.ar    1  UNL1        0.0398
     16 C           0.5146    2.0319   30.2603 C.ar    1  UNL1        0.1000
     17 N           1.3752    1.0983   31.0589 N.ar    1  UNL1       -0.2480
     18 C           2.8097    0.2309   19.7419 C.ar    1  UNL1        0.0549
     19 C           3.0244   -1.2484   19.6177 C.ar    1  UNL1        0.0229
     20 C           4.2381   -1.7733   18.9093 C.ar    1  UNL1        0.1059
     21 C           5.2369   -0.8189   18.3252 C.ar    1  UNL1        0.0183
     22 C           5.0222    0.6606   18.4493 C.ar    1  UNL1        0.0015
     23 C           3.8087    1.1854   19.1577 C.ar    1  UNL1        0.0045
     24 C           3.5939    2.6647   19.2819 C.ar    1  UNL1        0.0024
     25 C           4.1023    3.3978   20.4878 C.ar    1  UNL1        0.0001
     26 C           3.8876    4.8771   20.6120 C.ar    1  UNL1        0.0023
     27 C           3.1645    5.6234   19.5303 C.ar    1  UNL1        0.0296
     28 C           2.6561    4.8905   18.3244 C.ar    1  UNL1        0.1401
     29 F           1.9330    5.6368   17.2427 F       1  UNL1       -0.2042
     30 C           2.8708    3.4111   18.2001 C.ar    1  UNL1        0.0296
     31 S           4.4527   -3.2527   18.7851 S.O2    1  UNL1        0.0105
     32 C           4.6674   -4.7320   18.6609 C.3     1  UNL1        0.1816
     33 O           5.6016   -3.0076   17.8524 O.2     1  UNL1       -0.1686
     34 O           3.3038   -3.4977   19.7179 O.2     1  UNL1       -0.1686
@<TRIPOS>BOND
     1    11    12    1
     2    12    13   ar
     3    13    14   ar
     4    14     1    1
     5     1     2   ar
     6     2     3   ar
     7     3     4   ar
     8     4     5   ar
     9     4     6    1
    10     6     7    1
    11     7     8   am
    12     8     9    2
    13     8    18    1
    14    18    19   ar
    15    19    20   ar
    16    20    31    1
    17    31    32    1
    18    31    33    2
    19    31    34    2
    20    20    21   ar
    21    21    22   ar
    22    22    23   ar
    23    23    24    1
    24    24    25   ar
    25    25    26   ar
    26    26    27   ar
    27    27    28   ar
    28    28    29    1
    29    28    30   ar
    30     7    10    1
    31    14    15   ar
    32    15    16   ar
    33    16    17   ar
    34    17    12   ar
    35     5     1   ar
    36    23    18   ar
    37    30    24   ar
    38    10     3    1
@<TRIPOS>MOLECULE
*****
 34 38 0 0 0
SMALL
GASTEIGER

@<TRIPOS>ATOM
      1 N           3.4429    0.5098   27.4899 N.ar    1  UNL1       -0.2286
      2 C           3.7743    1.6396   26.5605 C.ar    1  UNL1        0.0990
      3 C           4.2214    1.0503   25.2555 C.ar    1  UNL1        0.0338
      4 C           4.1663   -0.4437   25.3785 C.ar    1  UNL1        0.0981
      5 N           3.6851   -0.7777   26.7594 N.ar    1  UNL1       -0.1680
      6 C           4.6134   -1.0330   24.0735 C.3     1  UNL1        0.1414
      7 N           4.9448    0.0968   23.1440 N.am    1  UNL1       -0.2661
      8 C           5.4328   -0.0374   21.7321 C.2     1  UNL1        0.2496
      9 O           5.7246    1.1893   20.9195 O.2     1  UNL1       -0.2699
     10 C           4.7026    1.3843   23.8746 C.3     1  UNL1        0.1236
     11 C           0.6524    3.0463   31.0647 C.3     1  UNL1        0.0521
     12 C           1.5596    1.9123   30.6894 C.ar    1  UNL1        0.0609
     13 C           2.0476    1.7780   29.2773 C.ar    1  UNL1        0.0339
     14 C           2.9549    0.6440   28.9019 C.ar    1  UNL1        0.0855
     15 C           3.3740   -0.3558   29.9385 C.ar    1  UNL1        0.0398
     16 C           2.8860   -0.2216   31.3506 C.ar    1  UNL1        0.1000
     17 N           1.9788    0.9124   31.7260 N.ar    1  UNL1       -0.2480
     18 C           5.6291   -1.3983   21.1325 C.ar    1  UNL1        0.0549
     19 C           6.7876   -2.2479   21.5639 C.ar    1  UNL1        0.0229
     20 C           6.9839   -3.6088   20.9643 C.ar    1  UNL1        0.1059
     21 C           6.0218   -4.1201   19.9334 C.ar    1  UNL1        0.0183
     22 C           4.8633   -3.2705   19.5020 C.ar    1  UNL1        0.0015
     23 C           4.6670   -1.9096   20.1016 C.ar    1  UNL1        0.0045
     24 C           3.5085   -1.0600   19.6702 C.ar    1  UNL1        0.0024
     25 C           3.6350   -0.1748   18.4658 C.ar    1  UNL1        0.0001
     26 C           2.4765    0.6748   18.0345 C.ar    1  UNL1        0.0023
     27 C           1.1916    0.6392   18.8074 C.ar    1  UNL1        0.0296
     28 C           1.0649   -0.2459   20.0117 C.ar    1  UNL1        0.1401
     29 F          -0.2201   -0.2815   20.7847 F       1  UNL1       -0.2042
     30 C           2.2234   -1.0956   20.4432 C.ar    1  UNL1        0.0296
     31 S           8.1424   -4.4583   21.3958 S.O2    1  UNL1        0.0105
     32 C           9.3009   -5.3079   21.8273 C.3     1  UNL1        0.1816
     33 O           7.3023   -5.0485   22.4893 O.2     1  UNL1       -0.1686
     34 O           8.9826   -3.8682   20.3022 O.2     1  UNL1       -0.1686
@<TRIPOS>BOND
     1    11    12    1
     2    12    13   ar
     3    13    14   ar
     4    14     1    1
     5     1     2   ar
     6     2     3   ar
     7     3     4   ar
     8     4     5   ar
     9     4     6    1
    10     6     7    1
    11     7     8   am
    12     8     9    2
    13     8    18    1
    14    18    19   ar
    15    19    20   ar
    16    20    31    1
    17    31    32    1
    18    31    33    2
    19    31    34    2
    20    20    21   ar
    21    21    22   ar
    22    22    23   ar
    23    23    24    1
    24    24    25   ar
    25    25    26   ar
    26    26    27   ar
    27    27    28   ar
    28    28    29    1
    29    28    30   ar
    30     7    10    1
    31    14    15   ar
    32    15    16   ar
    33    16    17   ar
    34    17    12   ar
    35     5     1   ar
    36    23    18   ar
    37    30    24   ar
    38    10     3    1
@<TRIPOS>MOLECULE
*****
 34 38 0 0 0
SMALL
GASTEIGER

@<TRIPOS>ATOM
      1 N          -2.4787    3.2185   21.6042 N.ar    1  UNL1       -0.2286
      2 C          -1.3937    3.5398   22.5888 C.ar    1  UNL1        0.0990
      3 C          -0.1093    2.9678   22.0663 C.ar    1  UNL1        0.0338
      4 C          -0.4005    2.2929   20.7587 C.ar    1  UNL1        0.0981
      5 N          -1.8649    2.4478   20.4731 N.ar    1  UNL1       -0.1680
      6 C           0.8839    1.7208   20.2361 C.3     1  UNL1        0.1414
      7 N           1.9690    2.0421   21.2207 N.am    1  UNL1       -0.2661
      8 C           3.4140    1.6599   21.0961 C.2     1  UNL1        0.2496
      9 O           4.3889    2.0533   22.1662 O.2     1  UNL1       -0.2699
     10 C           1.3551    2.8128   22.3518 C.3     1  UNL1        0.1236
     11 C          -6.9912    4.5383   19.3916 C.3     1  UNL1        0.0521
     12 C          -6.1801    4.2606   20.6225 C.ar    1  UNL1        0.0609
     13 C          -4.7350    3.8784   20.4980 C.ar    1  UNL1        0.0339
     14 C          -3.9238    3.6007   21.7288 C.ar    1  UNL1        0.0855
     15 C          -4.5578    3.7051   23.0842 C.ar    1  UNL1        0.0398
     16 C          -6.0030    4.0873   23.2087 C.ar    1  UNL1        0.1000
     17 N          -6.8141    4.3651   21.9779 N.ar    1  UNL1       -0.2480
     18 C           3.8844    0.8844   19.9015 C.ar    1  UNL1        0.0549
     19 C           3.9171   -0.6146   19.9458 C.ar    1  UNL1        0.0229
     20 C           4.3875   -1.3902   18.7511 C.ar    1  UNL1        0.1059
     21 C           4.8251   -0.6669   17.5122 C.ar    1  UNL1        0.0183
     22 C           4.7925    0.8321   17.4678 C.ar    1  UNL1        0.0015
     23 C           4.3221    1.6077   18.6624 C.ar    1  UNL1        0.0045
     24 C           4.2895    3.1067   18.6181 C.ar    1  UNL1        0.0024
     25 C           5.4754    3.8969   19.0863 C.ar    1  UNL1        0.0001
     26 C           5.4427    5.3959   19.0420 C.ar    1  UNL1        0.0023
     27 C           4.2241    6.1046   18.5294 C.ar    1  UNL1        0.0296
     28 C           3.0383    5.3146   18.0611 C.ar    1  UNL1        0.1401
     29 F           1.8197    6.0233   17.5485 F       1  UNL1       -0.2042
     30 C           3.0709    3.8155   18.1054 C.ar    1  UNL1        0.0296
     31 S           4.4201   -2.8892   18.7956 S.O2    1  UNL1        0.0105
     32 C           4.4526   -4.3882   18.8402 C.3     1  UNL1        0.1816
     33 O           3.2603   -2.8862   19.7470 O.2     1  UNL1       -0.1686
     34 O           5.5798   -2.8924   17.8443 O.2     1  UNL1       -0.1686
@<TRIPOS>BOND
     1    11    12    1
     2    12    13   ar
     3    13    14   ar
     4    14     1    1
     5     1     2   ar
     6     2     3   ar
     7     3     4   ar
     8     4     5   ar
     9     4     6    1
    10     6     7    1
    11     7     8   am
    12     8     9    2
    13     8    18    1
    14    18    19   ar
    15    19    20   ar
    16    20    31    1
    17    31    32    1
    18    31    33    2
    19    31    34    2
    20    20    21   ar
    21    21    22   ar
    22    22    23   ar
    23    23    24    1
    24    24    25   ar
    25    25    26   ar
    26    26    27   ar
    27    27    28   ar
    28    28    29    1
    29    28    30   ar
    30     7    10    1
    31    14    15   ar
    32    15    16   ar
    33    16    17   ar
    34    17    12   ar
    35     5     1   ar
    36    23    18   ar
    37    30    24   ar
    38    10     3    1
@<TRIPOS>MOLECULE
*****
 34 38 0 0 0
SMALL
GASTEIGER

@<TRIPOS>ATOM
      1 N           5.4445   -1.5535   28.4344 N.ar    1  UNL1       -0.2286
      2 C           5.5820   -0.0759   28.2165 C.ar    1  UNL1        0.0990
      3 C           4.9725    0.2552   26.8865 C.ar    1  UNL1        0.0338
      4 C           4.4582   -1.0178   26.2825 C.ar    1  UNL1        0.0981
      5 N           4.7499   -2.1357   27.2391 N.ar    1  UNL1       -0.1680
      6 C           3.8487   -0.6868   24.9525 C.3     1  UNL1        0.1414
      7 N           3.9862    0.7910   24.7345 N.am    1  UNL1       -0.2661
      8 C           3.5124    1.5527   23.5324 C.2     1  UNL1        0.2496
      9 O           3.7209    3.0362   23.4544 O.2     1  UNL1       -0.2699
     10 C           4.6808    1.3731   25.9298 C.3     1  UNL1        0.1236
     11 C           7.6050   -5.8009   30.5062 C.3     1  UNL1        0.0521
     12 C           6.9986   -4.4391   30.6725 C.ar    1  UNL1        0.0609
     13 C           6.5247   -3.6772   29.4704 C.ar    1  UNL1        0.0339
     14 C           5.9183   -2.3154   29.6366 C.ar    1  UNL1        0.0855
     15 C           5.7857   -1.7153   31.0049 C.ar    1  UNL1        0.0398
     16 C           6.2595   -2.4772   32.2070 C.ar    1  UNL1        0.1000
     17 N           6.8659   -3.8391   32.0408 N.ar    1  UNL1       -0.2480
     18 C           2.8302    0.8311   22.4082 C.ar    1  UNL1        0.0549
     19 C           3.6442    0.0923   21.3878 C.ar    1  UNL1        0.0229
     20 C           2.9620   -0.6294   20.2635 C.ar    1  UNL1        0.1059
     21 C           1.4657   -0.6121   20.1597 C.ar    1  UNL1        0.0183
     22 C           0.6516    0.1268   21.1802 C.ar    1  UNL1        0.0015
     23 C           1.3338    0.8484   22.3044 C.ar    1  UNL1        0.0045
     24 C           0.5198    1.5873   23.3249 C.ar    1  UNL1        0.0024
     25 C          -0.1166    2.8985   22.9703 C.ar    1  UNL1        0.0001
     26 C          -0.9306    3.6374   23.9907 C.ar    1  UNL1        0.0023
     27 C          -1.1083    3.0650   25.3658 C.ar    1  UNL1        0.0296
     28 C          -0.4721    1.7538   25.7205 C.ar    1  UNL1        0.1401
     29 F          -0.6498    1.1815   27.0956 F       1  UNL1       -0.2042
     30 C           0.3420    1.0149   24.7000 C.ar    1  UNL1        0.0296
     31 S           3.7761   -1.3682   19.2431 S.O2    1  UNL1        0.0105
     32 C           4.5903   -2.1072   18.2228 C.3     1  UNL1        0.1816
     33 O           3.3109   -2.6736   19.8172 O.2     1  UNL1       -0.1686
     34 O           4.2414   -0.0629   18.6690 O.2     1  UNL1       -0.1686
@<TRIPOS>BOND
     1    11    12    1
     2    12    13   ar
     3    13    14   ar
     4    14     1    1
     5     1     2   ar
     6     2     3   ar
     7     3     4   ar
     8     4     5   ar
     9     4     6    1
    10     6     7    1
    11     7     8   am
    12     8     9    2
    13     8    18    1
    14    18    19   ar
    15    19    20   ar
    16    20    31    1
    17    31    32    1
    18    31    33    2
    19    31    34    2
    20    20    21   ar
    21    21    22   ar
    22    22    23   ar
    23    23    24    1
    24    24    25   ar
    25    25    26   ar
    26    26    27   ar
    27    27    28   ar
    28    28    29    1
    29    28    30   ar
    30     7    10    1
    31    14    15   ar
    32    15    16   ar
    33    16    17   ar
    34    17    12   ar
    35     5     1   ar
    36    23    18   ar
    37    30    24   ar
    38    10     3    1
@<TRIPOS>MOLECULE
*****
 34 38 0 0 0
SMALL
GASTEIGER

@<TRIPOS>ATOM
      1 N           2.1736    0.6850   27.4254 N.ar    1  UNL1       -0.2286
      2 C           1.4916    0.3734   28.7246 C.ar    1  UNL1        0.0990
      3 C           2.4953   -0.2751   29.6311 C.ar    1  UNL1        0.0338
      4 C           3.7977   -0.3644   28.8923 C.ar    1  UNL1        0.0981
      5 N           3.5989    0.2290   27.5291 N.ar    1  UNL1       -0.1680
      6 C           4.8015   -1.0129   29.7988 C.3     1  UNL1        0.1414
      7 N           4.1194   -1.3245   31.0981 N.am    1  UNL1       -0.2661
      8 C           4.7516   -1.9774   32.2913 C.2     1  UNL1        0.2496
      9 O           3.9399   -2.2266   33.5279 O.2     1  UNL1       -0.2699
     10 C           2.6942   -0.8685   30.9943 C.3     1  UNL1        0.1236
     11 C          -1.8766    3.0878   25.2295 C.3     1  UNL1        0.0521
     12 C          -0.4838    2.5394   25.1341 C.ar    1  UNL1        0.0609
     13 C           0.1485    1.8864   26.3274 C.ar    1  UNL1        0.0339
     14 C           1.5414    1.3379   26.2321 C.ar    1  UNL1        0.0855
     15 C           2.3020    1.4423   24.9435 C.ar    1  UNL1        0.0398
     16 C           1.6697    2.0953   23.7502 C.ar    1  UNL1        0.1000
     17 N           0.2769    2.6438   23.8455 N.ar    1  UNL1       -0.2480
     18 C           6.1956   -2.3812   32.2481 C.ar    1  UNL1        0.0549
     19 C           6.6013   -3.6409   31.5420 C.ar    1  UNL1        0.0229
     20 C           8.0454   -4.0447   31.4988 C.ar    1  UNL1        0.1059
     21 C           9.0836   -3.1888   32.1617 C.ar    1  UNL1        0.0183
     22 C           8.6779   -1.9291   32.8678 C.ar    1  UNL1        0.0015
     23 C           7.2339   -1.5253   32.9110 C.ar    1  UNL1        0.0045
     24 C           6.8282   -0.2656   33.6171 C.ar    1  UNL1        0.0024
     25 C           6.7362    1.0241   32.8567 C.ar    1  UNL1        0.0001
     26 C           6.3305    2.2837   33.5628 C.ar    1  UNL1        0.0023
     27 C           6.0168    2.2537   35.0293 C.ar    1  UNL1        0.0296
     28 C           6.1087    0.9641   35.7898 C.ar    1  UNL1        0.1401
     29 F           5.7950    0.9341   37.2563 F       1  UNL1       -0.2042
     30 C           6.5145   -0.2957   35.0837 C.ar    1  UNL1        0.0296
     31 S           8.4510   -5.3044   30.7927 S.O2    1  UNL1        0.0105
     32 C           8.8565   -6.5640   30.0865 C.3     1  UNL1        0.1816
     33 O           7.3675   -5.0848   29.7788 O.2     1  UNL1       -0.1686
     34 O           9.5345   -5.5240   31.8065 O.2     1  UNL1       -0.1686
@<TRIPOS>BOND
     1    11    12    1
     2    12    13   ar
     3    13    14   ar
     4    14     1    1
     5     1     2   ar
     6     2     3   ar
     7     3     4   ar
     8     4     5   ar
     9     4     6    1
    10     6     7    1
    11     7     8   am
    12     8     9    2
    13     8    18    1
    14    18    19   ar
    15    19    20   ar
    16    20    31    1
    17    31    32    1
    18    31    33    2
    19    31    34    2
    20    20    21   ar
    21    21    22   ar
    22    22    23   ar
    23    23    24    1
    24    24    25   ar
    25    25    26   ar
    26    26    27   ar
    27    27    28   ar
    28    28    29    1
    29    28    30   ar
    30     7    10    1
    31    14    15   ar
    32    15    16   ar
    33    16    17   ar
    34    17    12   ar
    35     5     1   ar
    36    23    18   ar
    37    30    24   ar
    38    10     3    1
