@<TRIPOS>MOLECULE
*****
 34 38 0 0 0
SMALL
GASTEIGER

@<TRIPOS>ATOM
      1 C          -9.2203   -4.3728   18.3928 C.3     1  UNL1        0.2159
      2 N         -10.7142   -4.3600   18.5277 N.am    1  UNL1       -0.1449
      3 C         -11.4692   -3.0720   18.3845 C.2     1  UNL1        0.3728
      4 N         -10.7304   -1.7964   18.1065 N.2     1  UNL1       -0.1329
      5 N         -12.9632   -3.0593   18.5194 N.pl3   1  UNL1       -0.2247
      6 C         -13.7019   -4.3348   18.7974 C.3     1  UNL1        0.1559
      7 C         -15.1612   -4.6301   18.9799 C.3     1  UNL1        0.1327
      8 N         -15.3080   -6.1008   19.2358 N.pl3   1  UNL1       -0.2740
      9 C         -13.9394   -6.7144   19.2115 C.3     1  UNL1        0.1079
     10 C         -12.9468   -5.6229   18.9406 C.3     1  UNL1        0.1498
     11 C         -11.4529   -5.6355   18.8057 C.2     1  UNL1        0.2919
     12 O         -10.6978   -6.9237   18.9489 O.2     1  UNL1       -0.2563
     13 H          -9.7500   -1.8047   18.0180 H       1  UNL1        0.3058
     14 H         -13.4588   -2.2138   18.4254 H       1  UNL1        0.2454
     15 C         -16.5970   -6.8299   19.4742 C.ar    1  UNL1        0.2204
     16 N         -17.8930   -6.0750   19.4945 N.ar    1  UNL1       -0.2097
     17 C         -19.1820   -6.8042   19.7329 C.ar    1  UNL1        0.1330
     18 C         -19.1750   -8.2883   19.9510 C.ar    1  UNL1        0.1784
     19 F         -20.4640   -9.0174   20.1894 F       1  UNL1       -0.2009
     20 C         -17.8790   -9.0432   19.9307 C.ar    1  UNL1        0.1330
     21 N         -16.5900   -8.3139   19.6923 N.ar    1  UNL1       -0.2097
     22 C         -14.5876   -3.1299   18.6799 C.ar    1  UNL1        0.0397
     23 C         -14.5328   -1.9074   19.5475 C.ar    1  UNL1        0.0057
     24 C         -15.5949   -0.9579   19.0780 C.ar    1  UNL1        0.0068
     25 C         -16.3061   -1.5935   17.9203 C.ar    1  UNL1        0.0352
     26 S         -15.6835   -2.9359   17.6743 S.2     1  UNL1       -0.0878
     27 C         -15.8935    0.3905   19.6634 C.ar    1  UNL1        0.0012
     28 C         -15.2911    1.6222   19.0552 C.ar    1  UNL1        0.0001
     29 C         -15.5896    2.9706   19.6406 C.ar    1  UNL1        0.0007
     30 C         -16.4906    3.0873   20.8342 C.ar    1  UNL1        0.0103
     31 C         -17.0930    1.8555   21.4423 C.ar    1  UNL1        0.0684
     32 C         -16.7945    0.5072   20.8569 C.ar    1  UNL1        0.0103
     33 C         -17.9940    1.9721   22.6359 C.1     1  UNL1        0.1004
     34 N         -18.8950    2.0888   23.8295 N.1     1  UNL1       -0.1908
@<TRIPOS>BOND
     1     1     2    1
     2     2     3    1
     3     3     4    2
     4     3     5    1
     5     5     6    1
     6     6    22    1
     7    22    23   ar
     8    23    24   ar
     9    24    27    1
    10    27    28   ar
    11    28    29   ar
    12    29    30   ar
    13    30    31   ar
    14    31    33    1
    15    33    34    3
    16    31    32   ar
    17    24    25   ar
    18    25    26   ar
    19     6     7    1
    20     7     8    1
    21     8    15    1
    22    15    16   ar
    23    16    17   ar
    24    17    18   ar
    25    18    19    1
    26    18    20   ar
    27    20    21   ar
    28     8     9    1
    29    10     9    1
    30    10    11    1
    31    11    12    2
    32    11     2   am
    33    10     6    1
    34    26    22   ar
    35    21    15   ar
    36    32    27   ar
    37     4    13    1
    38     5    14    1
@<TRIPOS>MOLECULE
*****
 34 38 0 0 0
SMALL
GASTEIGER

@<TRIPOS>ATOM
      1 C           4.1704    2.3140   37.6790 C.3     1  UNL1        0.2159
      2 N           4.0531    1.8902   36.2449 N.am    1  UNL1       -0.1449
      3 C           5.1433    1.0780   35.6113 C.2     1  UNL1        0.3728
      4 N           6.3510    0.6895   36.4117 N.2     1  UNL1       -0.1329
      5 N           5.0260    0.6541   34.1771 N.pl3   1  UNL1       -0.2247
      6 C           3.8183    1.0426   33.3767 C.3     1  UNL1        0.1559
      7 C           3.4277    0.7722   31.9540 C.3     1  UNL1        0.1327
      8 N           2.0960    1.4173   31.7083 N.pl3   1  UNL1       -0.2740
      9 C           1.6636    2.0865   32.9793 C.3     1  UNL1        0.1079
     10 C           2.7281    1.8549   34.0104 C.3     1  UNL1        0.1498
     11 C           2.8455    2.2787   35.4445 C.2     1  UNL1        0.2919
     12 O           1.7552    3.0909   36.0782 O.2     1  UNL1       -0.2563
     13 H           6.4281    0.9676   37.3530 H       1  UNL1        0.3058
     14 H           5.7416    0.1210   33.7612 H       1  UNL1        0.2454
     15 C           1.3310    1.3969   30.4182 C.ar    1  UNL1        0.2204
     16 N           0.8416    0.0948   29.8570 N.ar    1  UNL1       -0.2097
     17 C           0.0766    0.0745   28.5669 C.ar    1  UNL1        0.1330
     18 C          -0.1990    1.3562   27.8380 C.ar    1  UNL1        0.1784
     19 F          -0.9641    1.3358   26.5479 F       1  UNL1       -0.2009
     20 C           0.2903    2.6583   28.3993 C.ar    1  UNL1        0.1330
     21 N           1.0554    2.6786   29.6894 N.ar    1  UNL1       -0.2097
     22 C           4.8227    0.2326   32.6117 C.ar    1  UNL1        0.0397
     23 C           4.7663   -1.2477   32.3762 C.ar    1  UNL1        0.0057
     24 C           5.9686   -1.6344   31.5668 C.ar    1  UNL1        0.0068
     25 C           6.7680   -0.3931   31.3021 C.ar    1  UNL1        0.0352
     26 S           6.0598    0.7608   31.9480 S.2     1  UNL1       -0.0878
     27 C           6.3113   -3.0192   31.1035 C.ar    1  UNL1        0.0012
     28 C           6.5683   -4.1038   32.1072 C.ar    1  UNL1        0.0001
     29 C           6.9110   -5.4887   31.6438 C.ar    1  UNL1        0.0007
     30 C           6.9966   -5.7890   30.1767 C.ar    1  UNL1        0.0103
     31 C           6.7396   -4.7044   29.1730 C.ar    1  UNL1        0.0684
     32 C           6.3970   -3.3195   29.6363 C.ar    1  UNL1        0.0103
     33 C           6.8253   -5.0045   27.7058 C.1     1  UNL1        0.1004
     34 N           6.9109   -5.3047   26.2386 N.1     1  UNL1       -0.1908
@<TRIPOS>BOND
     1     1     2    1
     2     2     3    1
     3     3     4    2
     4     3     5    1
     5     5     6    1
     6     6    22    1
     7    22    23   ar
     8    23    24   ar
     9    24    27    1
    10    27    28   ar
    11    28    29   ar
    12    29    30   ar
    13    30    31   ar
    14    31    33    1
    15    33    34    3
    16    31    32   ar
    17    24    25   ar
    18    25    26   ar
    19     6     7    1
    20     7     8    1
    21     8    15    1
    22    15    16   ar
    23    16    17   ar
    24    17    18   ar
    25    18    19    1
    26    18    20   ar
    27    20    21   ar
    28     8     9    1
    29    10     9    1
    30    10    11    1
    31    11    12    2
    32    11     2   am
    33    10     6    1
    34    26    22   ar
    35    21    15   ar
    36    32    27   ar
    37     4    13    1
    38     5    14    1
@<TRIPOS>MOLECULE
*****
 34 38 0 0 0
SMALL
GASTEIGER

@<TRIPOS>ATOM
      1 C           3.8950   -0.9038   16.7565 C.3     1  UNL1        0.2159
      2 N           4.2397   -1.0999   18.2032 N.am    1  UNL1       -0.1449
      3 C           5.4893   -1.8374   18.5831 C.2     1  UNL1        0.3728
      4 N           6.3944   -2.3789   17.5164 N.2     1  UNL1       -0.1329
      5 N           5.8340   -2.0335   20.0298 N.pl3   1  UNL1       -0.2247
      6 C           4.9290   -1.4921   21.0965 C.3     1  UNL1        0.1559
      7 C           5.0075   -1.5304   22.5939 C.3     1  UNL1        0.1327
      8 N           3.8063   -0.8165   23.1394 N.pl3   1  UNL1       -0.2740
      9 C           2.9855   -0.3370   21.9791 C.3     1  UNL1        0.1079
     10 C           3.6793   -0.7546   20.7165 C.3     1  UNL1        0.1498
     11 C           3.3347   -0.5585   19.2698 C.2     1  UNL1        0.2919
     12 O           2.0850    0.1790   18.8898 O.2     1  UNL1       -0.2563
     13 H           6.1682   -2.2502   16.5669 H       1  UNL1        0.3058
     14 H           6.6542   -2.5176   20.2792 H       1  UNL1        0.2454
     15 C           3.4828   -0.6171   24.5904 C.ar    1  UNL1        0.2204
     16 N           4.0466   -1.5511   25.6198 N.ar    1  UNL1       -0.2097
     17 C           3.7230   -1.3517   27.0709 C.ar    1  UNL1        0.1330
     18 C           2.8356   -0.2183   27.4926 C.ar    1  UNL1        0.1784
     19 F           2.5120   -0.0189   28.9436 F       1  UNL1       -0.2009
     20 C           2.2717    0.7157   26.4632 C.ar    1  UNL1        0.1330
     21 N           2.5953    0.5163   25.0121 N.ar    1  UNL1       -0.2097
     22 C           6.1380   -2.2047   21.6260 C.ar    1  UNL1        0.0397
     23 C           6.1448   -3.5372   22.3147 C.ar    1  UNL1        0.0057
     24 C           7.5635   -3.8660   22.6741 C.ar    1  UNL1        0.0068
     25 C           8.4336   -2.7367   22.2075 C.ar    1  UNL1        0.0352
     26 S           7.5525   -1.7100   21.5597 S.2     1  UNL1       -0.0878
     27 C           8.0303   -5.1063   23.3768 C.ar    1  UNL1        0.0012
     28 C           8.7312   -6.1859   22.6067 C.ar    1  UNL1        0.0001
     29 C           9.1980   -7.4262   23.3094 C.ar    1  UNL1        0.0007
     30 C           8.9638   -7.5870   24.7822 C.ar    1  UNL1        0.0103
     31 C           8.2629   -6.5074   25.5524 C.ar    1  UNL1        0.0684
     32 C           7.7962   -5.2670   24.8497 C.ar    1  UNL1        0.0103
     33 C           8.0288   -6.6680   27.0253 C.1     1  UNL1        0.1004
     34 N           7.7947   -6.8287   28.4982 N.1     1  UNL1       -0.1908
@<TRIPOS>BOND
     1     1     2    1
     2     2     3    1
     3     3     4    2
     4     3     5    1
     5     5     6    1
     6     6    22    1
     7    22    23   ar
     8    23    24   ar
     9    24    27    1
    10    27    28   ar
    11    28    29   ar
    12    29    30   ar
    13    30    31   ar
    14    31    33    1
    15    33    34    3
    16    31    32   ar
    17    24    25   ar
    18    25    26   ar
    19     6     7    1
    20     7     8    1
    21     8    15    1
    22    15    16   ar
    23    16    17   ar
    24    17    18   ar
    25    18    19    1
    26    18    20   ar
    27    20    21   ar
    28     8     9    1
    29    10     9    1
    30    10    11    1
    31    11    12    2
    32    11     2   am
    33    10     6    1
    34    26    22   ar
    35    21    15   ar
    36    32    27   ar
    37     4    13    1
    38     5    14    1
@<TRIPOS>MOLECULE
*****
 34 38 0 0 0
SMALL
GASTEIGER

@<TRIPOS>ATOM
      1 C           3.9059   -0.6421   17.0587 C.3     1  UNL1        0.2159
      2 N           4.2162   -0.9342   18.4969 N.am    1  UNL1       -0.1449
      3 C           3.7650    0.0130   19.5689 C.2     1  UNL1        0.3728
      4 N           3.0034    1.2524   19.2027 N.2     1  UNL1       -0.1329
      5 N           4.0753   -0.2791   21.0071 N.pl3   1  UNL1       -0.2247
      6 C           4.8368   -1.5184   21.3733 C.3     1  UNL1        0.1559
      7 C           5.2859   -2.0666   22.6953 C.3     1  UNL1        0.1327
      8 N           6.0146   -3.3526   22.4404 N.pl3   1  UNL1       -0.2740
      9 C           6.0160   -3.5993   20.9608 C.3     1  UNL1        0.1079
     10 C           5.2880   -2.4656   20.3013 C.3     1  UNL1        0.1498
     11 C           4.9777   -2.1735   18.8631 C.2     1  UNL1        0.2919
     12 O           5.4290   -3.1207   17.7911 O.2     1  UNL1       -0.2563
     13 H           2.7998    1.4442   18.2587 H       1  UNL1        0.3058
     14 H           3.7791    0.3426   21.7107 H       1  UNL1        0.2454
     15 C           6.6334   -4.2369   23.4821 C.ar    1  UNL1        0.2204
     16 N           7.4921   -5.3952   23.0688 N.ar    1  UNL1       -0.2097
     17 C           8.1109   -6.2794   24.1107 C.ar    1  UNL1        0.1330
     18 C           7.8711   -6.0053   25.5657 C.ar    1  UNL1        0.1784
     19 F           8.4899   -6.8895   26.6075 F       1  UNL1       -0.2009
     20 C           7.0124   -4.8469   25.9791 C.ar    1  UNL1        0.1330
     21 N           6.3936   -3.9627   24.9372 N.ar    1  UNL1       -0.2097
     22 C           4.4527   -0.6688   22.5483 C.ar    1  UNL1        0.0397
     23 C           3.1063   -0.6340   23.2086 C.ar    1  UNL1        0.0057
     24 C           3.1691    0.3515   24.3377 C.ar    1  UNL1        0.0068
     25 C           4.5543    0.9259   24.3751 C.ar    1  UNL1        0.0352
     26 S           5.3476    0.2953   23.2692 S.2     1  UNL1       -0.0878
     27 C           2.0442    0.7013   25.2662 C.ar    1  UNL1        0.0012
     28 C           0.7306    1.1664   24.7113 C.ar    1  UNL1        0.0001
     29 C          -0.3943    1.5162   25.6399 C.ar    1  UNL1        0.0007
     30 C          -0.2055    1.4009   27.1235 C.ar    1  UNL1        0.0103
     31 C           1.1081    0.9358   27.6784 C.ar    1  UNL1        0.0684
     32 C           2.2330    0.5860   26.7498 C.ar    1  UNL1        0.0103
     33 C           1.2969    0.8205   29.1620 C.1     1  UNL1        0.1004
     34 N           1.4858    0.7053   30.6456 N.1     1  UNL1       -0.1908
@<TRIPOS>BOND
     1     1     2    1
     2     2     3    1
     3     3     4    2
     4     3     5    1
     5     5     6    1
     6     6    22    1
     7    22    23   ar
     8    23    24   ar
     9    24    27    1
    10    27    28   ar
    11    28    29   ar
    12    29    30   ar
    13    30    31   ar
    14    31    33    1
    15    33    34    3
    16    31    32   ar
    17    24    25   ar
    18    25    26   ar
    19     6     7    1
    20     7     8    1
    21     8    15    1
    22    15    16   ar
    23    16    17   ar
    24    17    18   ar
    25    18    19    1
    26    18    20   ar
    27    20    21   ar
    28     8     9    1
    29    10     9    1
    30    10    11    1
    31    11    12    2
    32    11     2   am
    33    10     6    1
    34    26    22   ar
    35    21    15   ar
    36    32    27   ar
    37     4    13    1
    38     5    14    1
@<TRIPOS>MOLECULE
*****
 34 38 0 0 0
SMALL
GASTEIGER

@<TRIPOS>ATOM
      1 C           2.4147   -0.5472   30.2432 C.3     1  UNL1        0.2159
      2 N           2.0942   -0.0481   28.8653 N.am    1  UNL1       -0.1449
      3 C           3.0432   -0.3094   27.7335 C.2     1  UNL1        0.3728
      4 N           4.3127   -1.0697   27.9794 N.2     1  UNL1       -0.1329
      5 N           2.7227    0.1896   26.3556 N.pl3   1  UNL1       -0.2247
      6 C           1.4533    0.9499   26.1098 C.3     1  UNL1        0.1559
      7 C           0.8735    1.5606   24.8685 C.3     1  UNL1        0.1327
      8 N          -0.4338    2.1993   25.2332 N.pl3   1  UNL1       -0.2740
      9 C          -0.6620    1.9833   26.6999 C.3     1  UNL1        0.1079
     10 C           0.5043    1.2111   27.2417 C.3     1  UNL1        0.1498
     11 C           0.8248    0.7121   28.6195 C.2     1  UNL1        0.2919
     12 O          -0.1242    0.9733   29.7514 O.2     1  UNL1       -0.2563
     13 H           4.5231   -1.3972   28.8836 H       1  UNL1        0.3058
     14 H           3.3456    0.0182   25.6127 H       1  UNL1        0.2454
     15 C          -1.3518    2.9264   24.2958 C.ar    1  UNL1        0.2204
     16 N          -0.9357    3.1670   22.8749 N.ar    1  UNL1       -0.2097
     17 C          -1.8538    3.8941   21.9375 C.ar    1  UNL1        0.1330
     18 C          -3.1878    4.3805   22.4210 C.ar    1  UNL1        0.1784
     19 F          -4.1058    5.1076   21.4836 F       1  UNL1       -0.2009
     20 C          -3.6038    4.1399   23.8419 C.ar    1  UNL1        0.1330
     21 N          -2.6858    3.4128   24.7793 N.ar    1  UNL1       -0.2097
     22 C           2.3011    0.7661   24.8861 C.ar    1  UNL1        0.0397
     23 C           2.3979   -0.4821   24.0599 C.ar    1  UNL1        0.0057
     24 C           3.3577   -0.2214   22.9370 C.ar    1  UNL1        0.0068
     25 C           3.8540    1.1879   23.0692 C.ar    1  UNL1        0.0352
     26 S           3.2010    1.7982   24.2739 S.2     1  UNL1       -0.0878
     27 C           3.7519   -1.1985   21.8693 C.ar    1  UNL1        0.0012
     28 C           4.2344   -2.5676   22.2467 C.ar    1  UNL1        0.0001
     29 C           4.6286   -3.5447   21.1790 C.ar    1  UNL1        0.0007
     30 C           4.5403   -3.1526   19.7338 C.ar    1  UNL1        0.0103
     31 C           4.0578   -1.7834   19.3565 C.ar    1  UNL1        0.0684
     32 C           3.6636   -0.8063   20.4242 C.ar    1  UNL1        0.0103
     33 C           3.9694   -1.3912   17.9113 C.1     1  UNL1        0.1004
     34 N           3.8810   -0.9988   16.4662 N.1     1  UNL1       -0.1908
@<TRIPOS>BOND
     1     1     2    1
     2     2     3    1
     3     3     4    2
     4     3     5    1
     5     5     6    1
     6     6    22    1
     7    22    23   ar
     8    23    24   ar
     9    24    27    1
    10    27    28   ar
    11    28    29   ar
    12    29    30   ar
    13    30    31   ar
    14    31    33    1
    15    33    34    3
    16    31    32   ar
    17    24    25   ar
    18    25    26   ar
    19     6     7    1
    20     7     8    1
    21     8    15    1
    22    15    16   ar
    23    16    17   ar
    24    17    18   ar
    25    18    19    1
    26    18    20   ar
    27    20    21   ar
    28     8     9    1
    29    10     9    1
    30    10    11    1
    31    11    12    2
    32    11     2   am
    33    10     6    1
    34    26    22   ar
    35    21    15   ar
    36    32    27   ar
    37     4    13    1
    38     5    14    1
@<TRIPOS>MOLECULE
*****
 34 38 0 0 0
SMALL
GASTEIGER

@<TRIPOS>ATOM
      1 C           8.6950   -7.8302   25.3122 C.3     1  UNL1        0.2159
      2 N           8.0080   -6.5005   25.4123 N.am    1  UNL1       -0.1449
      3 C           7.7973   -5.6705   24.1808 C.2     1  UNL1        0.3728
      4 N           8.2737   -6.1702   22.8490 N.2     1  UNL1       -0.1329
      5 N           7.1103   -4.3408   24.2809 N.pl3   1  UNL1       -0.2247
      6 C           6.6339   -3.8412   25.6126 C.3     1  UNL1        0.1559
      7 C           5.9300   -2.5803   26.0182 C.3     1  UNL1        0.1327
      8 N           5.7057   -2.6310   27.5005 N.pl3   1  UNL1       -0.2740
      9 C           6.2709   -3.9233   28.0109 C.3     1  UNL1        0.1079
     10 C           6.8446   -4.6713   26.8441 C.3     1  UNL1        0.1498
     11 C           7.5316   -6.0009   26.7440 C.2     1  UNL1        0.2919
     12 O           7.7422   -6.8309   27.9755 O.2     1  UNL1       -0.2563
     13 H           8.7246   -7.0429   22.7833 H       1  UNL1        0.3058
     14 H           6.9721   -3.7960   23.4726 H       1  UNL1        0.2454
     15 C           5.0340   -1.5749   28.3272 C.ar    1  UNL1        0.2204
     16 N           3.5511   -1.3732   28.2255 N.ar    1  UNL1       -0.2097
     17 C           2.8795   -0.3170   29.0523 C.ar    1  UNL1        0.1330
     18 C           3.6907    0.5374   29.9807 C.ar    1  UNL1        0.1784
     19 F           3.0190    1.5935   30.8074 F       1  UNL1       -0.2009
     20 C           5.1736    0.3357   30.0823 C.ar    1  UNL1        0.1330
     21 N           5.8452   -0.7205   29.2556 N.ar    1  UNL1       -0.2097
     22 C           6.3543   -2.9054   24.4742 C.ar    1  UNL1        0.0397
     23 C           5.0638   -2.7989   23.7170 C.ar    1  UNL1        0.0057
     24 C           5.2280   -1.7394   22.6680 C.ar    1  UNL1        0.0068
     25 C           6.6199   -1.1910   22.7768 C.ar    1  UNL1        0.0352
     26 S           7.3160   -1.9117   23.8932 S.2     1  UNL1       -0.0878
     27 C           4.1836   -1.3045   21.6830 C.ar    1  UNL1        0.0012
     28 C           2.8598   -0.7941   22.1697 C.ar    1  UNL1        0.0001
     29 C           1.8155   -0.3593   21.1848 C.ar    1  UNL1        0.0007
     30 C           2.0949   -0.4349   19.7130 C.ar    1  UNL1        0.0103
     31 C           3.4187   -0.9453   19.2262 C.ar    1  UNL1        0.0684
     32 C           4.4630   -1.3801   20.2112 C.ar    1  UNL1        0.0103
     33 C           3.6982   -1.0209   17.7544 C.1     1  UNL1        0.1004
     34 N           3.9777   -1.0966   16.2826 N.1     1  UNL1       -0.1908
@<TRIPOS>BOND
     1     1     2    1
     2     2     3    1
     3     3     4    2
     4     3     5    1
     5     5     6    1
     6     6    22    1
     7    22    23   ar
     8    23    24   ar
     9    24    27    1
    10    27    28   ar
    11    28    29   ar
    12    29    30   ar
    13    30    31   ar
    14    31    33    1
    15    33    34    3
    16    31    32   ar
    17    24    25   ar
    18    25    26   ar
    19     6     7    1
    20     7     8    1
    21     8    15    1
    22    15    16   ar
    23    16    17   ar
    24    17    18   ar
    25    18    19    1
    26    18    20   ar
    27    20    21   ar
    28     8     9    1
    29    10     9    1
    30    10    11    1
    31    11    12    2
    32    11     2   am
    33    10     6    1
    34    26    22   ar
    35    21    15   ar
    36    32    27   ar
    37     4    13    1
    38     5    14    1
@<TRIPOS>MOLECULE
*****
 34 38 0 0 0
SMALL
GASTEIGER

@<TRIPOS>ATOM
      1 C           2.3179   -0.6421   30.0874 C.3     1  UNL1        0.2159
      2 N           1.8207    0.0257   28.8396 N.am    1  UNL1       -0.1449
      3 C           2.6682    0.0291   27.6021 C.2     1  UNL1        0.3728
      4 N           4.0132   -0.6352   27.6123 N.2     1  UNL1       -0.1329
      5 N           2.1710    0.6969   26.3543 N.pl3   1  UNL1       -0.2247
      6 C           0.8262    1.3612   26.3442 C.3     1  UNL1        0.1559
      7 C           0.0766    2.0936   25.2710 C.3     1  UNL1        0.1327
      8 N          -1.2342    2.5428   25.8454 N.pl3   1  UNL1       -0.2740
      9 C          -1.2948    2.0880   27.2735 C.3     1  UNL1        0.1079
     10 C          -0.0214    1.3577   27.5818 C.3     1  UNL1        0.1498
     11 C           0.4758    0.6899   28.8295 C.2     1  UNL1        0.2919
     12 O          -0.3717    0.6864   30.0671 O.2     1  UNL1       -0.2563
     13 H           4.3396   -1.0734   28.4312 H       1  UNL1        0.3058
     14 H           2.7273    0.6992   25.5421 H       1  UNL1        0.2454
     15 C          -2.2978    3.3119   25.1192 C.ar    1  UNL1        0.2204
     16 N          -2.1213    3.6487   23.6682 N.ar    1  UNL1       -0.2097
     17 C          -3.1849    4.4178   22.9420 C.ar    1  UNL1        0.1330
     18 C          -4.4250    4.8500   23.6668 C.ar    1  UNL1        0.1784
     19 F          -5.4886    5.6190   22.9405 F       1  UNL1       -0.2009
     20 C          -4.6016    4.5131   25.1177 C.ar    1  UNL1        0.1330
     21 N          -3.5379    3.7440   25.8439 N.ar    1  UNL1       -0.2097
     22 C           1.5580    1.4450   25.0375 C.ar    1  UNL1        0.0397
     23 C           1.5662    0.3986   23.9629 C.ar    1  UNL1        0.0057
     24 C           2.4234    0.8969   22.8372 C.ar    1  UNL1        0.0068
     25 C           2.9449    2.2513   23.2162 C.ar    1  UNL1        0.0352
     26 S           2.4100    2.5900   24.5761 S.2     1  UNL1       -0.0878
     27 C           2.7089    0.1687   21.5574 C.ar    1  UNL1        0.0012
     28 C           2.4334    0.8309   20.2400 C.ar    1  UNL1        0.0001
     29 C           2.7189    0.1027   18.9601 C.ar    1  UNL1        0.0007
     30 C           3.2800   -1.2879   18.9975 C.ar    1  UNL1        0.0103
     31 C           3.5556   -1.9502   20.3149 C.ar    1  UNL1        0.0684
     32 C           3.2700   -1.2220   21.5948 C.ar    1  UNL1        0.0103
     33 C           4.1167   -3.3408   20.3524 C.1     1  UNL1        0.1004
     34 N           4.6778   -4.7314   20.3900 N.1     1  UNL1       -0.1908
@<TRIPOS>BOND
     1     1     2    1
     2     2     3    1
     3     3     4    2
     4     3     5    1
     5     5     6    1
     6     6    22    1
     7    22    23   ar
     8    23    24   ar
     9    24    27    1
    10    27    28   ar
    11    28    29   ar
    12    29    30   ar
    13    30    31   ar
    14    31    33    1
    15    33    34    3
    16    31    32   ar
    17    24    25   ar
    18    25    26   ar
    19     6     7    1
    20     7     8    1
    21     8    15    1
    22    15    16   ar
    23    16    17   ar
    24    17    18   ar
    25    18    19    1
    26    18    20   ar
    27    20    21   ar
    28     8     9    1
    29    10     9    1
    30    10    11    1
    31    11    12    2
    32    11     2   am
    33    10     6    1
    34    26    22   ar
    35    21    15   ar
    36    32    27   ar
    37     4    13    1
    38     5    14    1
@<TRIPOS>MOLECULE
*****
 34 38 0 0 0
SMALL
GASTEIGER

@<TRIPOS>ATOM
      1 C           5.1319   -4.1478   18.6070 C.3     1  UNL1        0.2159
      2 N           4.4982   -3.0190   19.3650 N.am    1  UNL1       -0.1449
      3 C           3.9597   -1.8293   18.6272 C.2     1  UNL1        0.3728
      4 N           4.0547   -1.7682   17.1314 N.2     1  UNL1       -0.1329
      5 N           3.3261   -0.7005   19.3852 N.pl3   1  UNL1       -0.2247
      6 C           3.2311   -0.7616   20.8809 C.3     1  UNL1        0.1559
      7 C           2.6645    0.1924   21.8904 C.3     1  UNL1        0.1327
      8 N           2.8530   -0.4079   23.2520 N.pl3   1  UNL1       -0.2740
      9 C           3.5360   -1.7328   23.0841 C.3     1  UNL1        0.1079
     10 C           3.7696   -1.9514   21.6187 C.3     1  UNL1        0.1498
     11 C           4.4032   -3.0801   20.8607 C.2     1  UNL1        0.2919
     12 O           4.9418   -4.2699   21.5985 O.2     1  UNL1       -0.2563
     13 H           4.4706   -2.5091   16.6339 H       1  UNL1        0.3058
     14 H           2.9726    0.0804   18.9009 H       1  UNL1        0.2454
     15 C           2.4324    0.2086   24.5532 C.ar    1  UNL1        0.2204
     16 N           3.2673    0.0075   25.7830 N.ar    1  UNL1       -0.2097
     17 C           2.8466    0.6240   27.0842 C.ar    1  UNL1        0.1330
     18 C           1.5910    1.4414   27.1556 C.ar    1  UNL1        0.1784
     19 F           1.1703    2.0579   28.4568 F       1  UNL1       -0.2009
     20 C           0.7560    1.6425   25.9258 C.ar    1  UNL1        0.1330
     21 N           1.1767    1.0260   24.6246 N.ar    1  UNL1       -0.2097
     22 C           2.6515    0.4861   20.2831 C.ar    1  UNL1        0.0397
     23 C           1.1916    0.8019   20.1452 C.ar    1  UNL1        0.0057
     24 C           1.0679    2.1481   19.4952 C.ar    1  UNL1        0.0068
     25 C           2.4513    2.6643   19.2313 C.ar    1  UNL1        0.0352
     26 S           3.4301    1.6371   19.7183 S.2     1  UNL1       -0.0878
     27 C          -0.2141    2.8541   19.1666 C.ar    1  UNL1        0.0012
     28 C          -0.3607    3.5726   17.8581 C.ar    1  UNL1        0.0001
     29 C          -1.6427    4.2786   17.5296 C.ar    1  UNL1        0.0007
     30 C          -2.7782    4.2661   18.5096 C.ar    1  UNL1        0.0103
     31 C          -2.6317    3.5476   19.8181 C.ar    1  UNL1        0.0684
     32 C          -1.3496    2.8416   20.1466 C.ar    1  UNL1        0.0103
     33 C          -3.7672    3.5351   20.7982 C.1     1  UNL1        0.1004
     34 N          -4.9026    3.5225   21.7783 N.1     1  UNL1       -0.1908
@<TRIPOS>BOND
     1     1     2    1
     2     2     3    1
     3     3     4    2
     4     3     5    1
     5     5     6    1
     6     6    22    1
     7    22    23   ar
     8    23    24   ar
     9    24    27    1
    10    27    28   ar
    11    28    29   ar
    12    29    30   ar
    13    30    31   ar
    14    31    33    1
    15    33    34    3
    16    31    32   ar
    17    24    25   ar
    18    25    26   ar
    19     6     7    1
    20     7     8    1
    21     8    15    1
    22    15    16   ar
    23    16    17   ar
    24    17    18   ar
    25    18    19    1
    26    18    20   ar
    27    20    21   ar
    28     8     9    1
    29    10     9    1
    30    10    11    1
    31    11    12    2
    32    11     2   am
    33    10     6    1
    34    26    22   ar
    35    21    15   ar
    36    32    27   ar
    37     4    13    1
    38     5    14    1
@<TRIPOS>MOLECULE
*****
 34 38 0 0 0
SMALL
GASTEIGER

@<TRIPOS>ATOM
      1 C           8.9887   -8.3156   26.4079 C.3     1  UNL1        0.2159
      2 N           8.3093   -6.9962   26.1899 N.am    1  UNL1       -0.1449
      3 C           8.2658   -6.3927   24.8174 C.2     1  UNL1        0.3728
      4 N           8.9017   -7.1087   23.6627 N.2     1  UNL1       -0.1329
      5 N           7.5864   -5.0732   24.5994 N.pl3   1  UNL1       -0.2247
      6 C           6.9505   -4.3573   25.7540 C.3     1  UNL1        0.1559
      7 C           6.2149   -3.0532   25.8441 C.3     1  UNL1        0.1327
      8 N           5.8037   -2.8507   27.2724 N.pl3   1  UNL1       -0.2740
      9 C           6.2853   -4.0297   28.0650 C.3     1  UNL1        0.1079
     10 C           6.9941   -4.9608   27.1265 C.3     1  UNL1        0.1498
     11 C           7.6735   -6.2802   27.3445 C.2     1  UNL1        0.2919
     12 O           7.7170   -6.8838   28.7170 O.2     1  UNL1       -0.2563
     13 H           9.3476   -7.9747   23.8058 H       1  UNL1        0.3058
     14 H           7.5578   -4.6771   23.6985 H       1  UNL1        0.2454
     15 C           5.0444   -1.6756   27.8132 C.ar    1  UNL1        0.2204
     16 N           5.7749   -0.5684   28.5134 N.ar    1  UNL1       -0.2097
     17 C           5.0155    0.6067   29.0542 C.ar    1  UNL1        0.1330
     18 C           3.5255    0.6746   28.8947 C.ar    1  UNL1        0.1784
     19 F           2.7661    1.8497   29.4355 F       1  UNL1       -0.2009
     20 C           2.7950   -0.4326   28.1945 C.ar    1  UNL1        0.1330
     21 N           3.5544   -1.6077   27.6537 N.ar    1  UNL1       -0.2097
     22 C           6.8279   -3.6343   24.4455 C.ar    1  UNL1        0.0397
     23 C           5.6358   -3.6546   23.5353 C.ar    1  UNL1        0.0057
     24 C           5.9470   -2.7969   22.3447 C.ar    1  UNL1        0.0068
     25 C           7.3314   -2.2465   22.5190 C.ar    1  UNL1        0.0352
     26 S           7.8758   -2.7641   23.8175 S.2     1  UNL1       -0.0878
     27 C           5.0341   -2.5355   21.1835 C.ar    1  UNL1        0.0012
     28 C           5.4023   -3.0259   19.8147 C.ar    1  UNL1        0.0001
     29 C           4.4894   -2.7645   18.6535 C.ar    1  UNL1        0.0007
     30 C           3.2082   -2.0127   18.8613 C.ar    1  UNL1        0.0103
     31 C           2.8399   -1.5223   20.2301 C.ar    1  UNL1        0.0684
     32 C           3.7529   -1.7837   21.3913 C.ar    1  UNL1        0.0103
     33 C           1.5587   -0.7704   20.4380 C.1     1  UNL1        0.1004
     34 N           0.2775   -0.0185   20.6459 N.1     1  UNL1       -0.1908
@<TRIPOS>BOND
     1     1     2    1
     2     2     3    1
     3     3     4    2
     4     3     5    1
     5     5     6    1
     6     6    22    1
     7    22    23   ar
     8    23    24   ar
     9    24    27    1
    10    27    28   ar
    11    28    29   ar
    12    29    30   ar
    13    30    31   ar
    14    31    33    1
    15    33    34    3
    16    31    32   ar
    17    24    25   ar
    18    25    26   ar
    19     6     7    1
    20     7     8    1
    21     8    15    1
    22    15    16   ar
    23    16    17   ar
    24    17    18   ar
    25    18    19    1
    26    18    20   ar
    27    20    21   ar
    28     8     9    1
    29    10     9    1
    30    10    11    1
    31    11    12    2
    32    11     2   am
    33    10     6    1
    34    26    22   ar
    35    21    15   ar
    36    32    27   ar
    37     4    13    1
    38     5    14    1
