@<TRIPOS>MOLECULE
*****
 27 30 0 0 0
SMALL
GASTEIGER

@<TRIPOS>ATOM
      1 C          -4.4428  -17.8061   22.5040 C.3     1  UNL1        0.1406
      2 C          -4.2450  -17.0220   23.7673 C.3     1  UNL1        0.0374
      3 C          -5.4316  -16.4748   24.5039 C.3     1  UNL1        0.0410
      4 C          -5.2339  -15.6907   25.7674 C.3     1  UNL1        0.0672
      5 S          -6.4204  -15.1435   26.5040 S.3     1  UNL1       -0.0807
      6 C          -7.8048  -15.3804   25.9772 C.2     1  UNL1        0.1482
      7 N          -8.9914  -14.8332   26.7139 N.pl3   1  UNL1       -0.3380
      8 N          -8.0026  -16.1645   24.7139 N.2     1  UNL1       -0.2484
      9 C          -6.8160  -16.7117   23.9772 C.3     1  UNL1        0.1352
     10 C          -7.0137  -17.4958   22.7139 C.3     1  UNL1        0.1690
     11 O          -5.8272  -18.0429   21.9773 O.3     1  UNL1       -0.3494
     12 H          -8.8616  -14.3186   27.5431 H       1  UNL1        0.1442
     13 H          -9.9000  -14.9887   26.3682 H       1  UNL1        0.1442
     14 C          -8.2003  -16.9486   23.4504 C.ar    1  UNL1        0.0278
     15 C          -9.0193  -18.0885   23.9796 C.ar    1  UNL1        0.0021
     16 C         -10.4036  -18.3254   23.4529 C.ar    1  UNL1        0.0295
     17 C         -10.9690  -17.4224   22.3970 C.ar    1  UNL1        0.1424
     18 F         -12.3533  -17.6593   21.8702 F       1  UNL1       -0.2041
     19 C         -10.1501  -16.2825   21.8678 C.ar    1  UNL1        0.0590
     20 C          -8.7657  -16.0457   22.3946 C.ar    1  UNL1        0.1402
     21 F          -7.9468  -14.9058   21.8654 F       1  UNL1       -0.2044
     22 C          -0.0038  -18.1202   19.6618 C.3     1  UNL1        0.1537
     23 N          -1.2158  -18.4976   20.4609 N.ar    1  UNL1       -0.2476
     24 C          -2.2118  -17.5461   21.0547 C.ar    1  UNL1        0.0947
     25 C          -3.2562  -18.3533   21.7673 C.ar    1  UNL1        0.0442
     26 C          -2.9057  -19.8036   21.6139 C.ar    1  UNL1        0.1197
     27 N          -1.6447  -19.8929   20.8066 N.ar    1  UNL1       -0.1679
@<TRIPOS>BOND
     1    22    23    1
     2    23    24   ar
     3    24    25   ar
     4     1    25    1
     5     1     2    1
     6     3     2    1
     7     3     4    1
     8     4     5    1
     9     5     6    1
    10     6     7    1
    11     6     8    2
    12     8     9    1
    13     9    14    1
    14    14    15   ar
    15    15    16   ar
    16    16    17   ar
    17    17    18    1
    18    17    19   ar
    19    19    20   ar
    20    20    21    1
    21     9    10    1
    22    10    11    1
    23    25    26   ar
    24    26    27   ar
    25    27    23   ar
    26    11     1    1
    27     9     3    1
    28    20    14   ar
    29     7    12    1
    30     7    13    1
@<TRIPOS>MOLECULE
*****
 27 30 0 0 0
SMALL
GASTEIGER

@<TRIPOS>ATOM
      1 C          -5.0773  -18.6013   21.4061 C.3     1  UNL1        0.1406
      2 C          -6.1994  -19.1010   20.5451 C.3     1  UNL1        0.0374
      3 C          -7.6212  -18.8020   20.9181 C.3     1  UNL1        0.0410
      4 C          -8.7433  -19.3017   20.0571 C.3     1  UNL1        0.0672
      5 S         -10.1651  -19.0028   20.4300 S.3     1  UNL1       -0.0807
      6 C         -10.4648  -18.2041   21.6639 C.2     1  UNL1        0.1482
      7 N         -11.8867  -17.9052   22.0367 N.pl3   1  UNL1       -0.3380
      8 N          -9.3428  -17.7044   22.5248 N.2     1  UNL1       -0.2484
      9 C          -7.9209  -18.0034   22.1519 C.3     1  UNL1        0.1352
     10 C          -6.7988  -17.5037   23.0128 C.3     1  UNL1        0.1690
     11 O          -5.3770  -17.8026   22.6399 O.3     1  UNL1       -0.3494
     12 H         -12.6232  -18.2332   21.4717 H       1  UNL1        0.1442
     13 H         -12.0835  -17.3810   22.8465 H       1  UNL1        0.1442
     14 C          -8.2206  -17.2047   23.3857 C.ar    1  UNL1        0.0278
     15 C          -8.6709  -17.8985   24.6372 C.ar    1  UNL1        0.0021
     16 C          -8.9706  -17.0998   25.8710 C.ar    1  UNL1        0.0295
     17 C          -8.8201  -15.6075   25.8534 C.ar    1  UNL1        0.1424
     18 F          -9.1198  -14.8088   27.0872 F       1  UNL1       -0.2041
     19 C          -8.3698  -14.9138   24.6020 C.ar    1  UNL1        0.0590
     20 C          -8.0701  -15.7125   23.3682 C.ar    1  UNL1        0.1402
     21 F          -7.6198  -15.0188   22.1168 F       1  UNL1       -0.2044
     22 C          -0.1066  -18.0461   19.7134 C.3     1  UNL1        0.1537
     23 N          -1.3707  -18.6450   20.2551 N.ar    1  UNL1       -0.2476
     24 C          -2.6631  -17.9188   20.4835 C.ar    1  UNL1        0.0947
     25 C          -3.6554  -18.9002   21.0332 C.ar    1  UNL1        0.0442
     26 C          -2.9763  -20.2330   21.1445 C.ar    1  UNL1        0.1197
     27 N          -1.5642  -20.0753   20.6636 N.ar    1  UNL1       -0.1679
@<TRIPOS>BOND
     1    22    23    1
     2    23    24   ar
     3    24    25   ar
     4     1    25    1
     5     1     2    1
     6     3     2    1
     7     3     4    1
     8     4     5    1
     9     5     6    1
    10     6     7    1
    11     6     8    2
    12     8     9    1
    13     9    14    1
    14    14    15   ar
    15    15    16   ar
    16    16    17   ar
    17    17    18    1
    18    17    19   ar
    19    19    20   ar
    20    20    21    1
    21     9    10    1
    22    10    11    1
    23    25    26   ar
    24    26    27   ar
    25    27    23   ar
    26    11     1    1
    27     9     3    1
    28    20    14   ar
    29     7    12    1
    30     7    13    1
@<TRIPOS>MOLECULE
*****
 27 30 0 0 0
SMALL
GASTEIGER

@<TRIPOS>ATOM
      1 C          -6.4395  -18.7883   21.1022 C.3     1  UNL1        0.1406
      2 C          -7.7633  -19.1019   20.4703 C.3     1  UNL1        0.0374
      3 C          -9.0359  -18.7206   21.1667 C.3     1  UNL1        0.0410
      4 C         -10.3597  -19.0341   20.5348 C.3     1  UNL1        0.0672
      5 S         -11.6323  -18.6528   21.2312 S.3     1  UNL1       -0.0807
      6 C         -11.5811  -17.9579   22.5596 C.2     1  UNL1        0.1482
      7 N         -12.8538  -17.5766   23.2560 N.pl3   1  UNL1       -0.3380
      8 N         -10.2574  -17.6444   23.1915 N.2     1  UNL1       -0.2484
      9 C          -8.9847  -18.0257   22.4951 C.3     1  UNL1        0.1352
     10 C          -7.6610  -17.7122   23.1270 C.3     1  UNL1        0.1690
     11 O          -6.3884  -18.0935   22.4306 O.3     1  UNL1       -0.3494
     12 H         -13.7227  -17.7824   22.8412 H       1  UNL1        0.1442
     13 H         -12.8203  -17.1206   24.1279 H       1  UNL1        0.1442
     14 C          -8.9336  -17.3309   23.8235 C.ar    1  UNL1        0.0278
     15 C          -8.6117  -15.8674   23.8925 C.ar    1  UNL1        0.0021
     16 C          -8.5606  -15.1725   25.2208 C.ar    1  UNL1        0.0295
     17 C          -8.8313  -15.9412   26.4802 C.ar    1  UNL1        0.1424
     18 F          -8.7802  -15.2463   27.8086 F       1  UNL1       -0.2041
     19 C          -9.1532  -17.4046   26.4112 C.ar    1  UNL1        0.0590
     20 C          -9.2043  -18.0994   25.0828 C.ar    1  UNL1        0.1402
     21 F          -9.5262  -19.5628   25.0138 F       1  UNL1       -0.2044
     22 C          -1.7537  -18.4917   18.6864 C.3     1  UNL1        0.1537
     23 N          -3.0130  -19.0332   19.2954 N.ar    1  UNL1       -0.2476
     24 C          -4.1026  -18.2238   19.9337 C.ar    1  UNL1        0.0947
     25 C          -5.1668  -19.1696   20.4058 C.ar    1  UNL1        0.0442
     26 C          -4.7350  -20.5636   20.0592 C.ar    1  UNL1        0.1197
     27 N          -3.4038  -20.4794   19.3729 N.ar    1  UNL1       -0.1679
@<TRIPOS>BOND
     1    22    23    1
     2    23    24   ar
     3    24    25   ar
     4     1    25    1
     5     1     2    1
     6     3     2    1
     7     3     4    1
     8     4     5    1
     9     5     6    1
    10     6     7    1
    11     6     8    2
    12     8     9    1
    13     9    14    1
    14    14    15   ar
    15    15    16   ar
    16    16    17   ar
    17    17    18    1
    18    17    19   ar
    19    19    20   ar
    20    20    21    1
    21     9    10    1
    22    10    11    1
    23    25    26   ar
    24    26    27   ar
    25    27    23   ar
    26    11     1    1
    27     9     3    1
    28    20    14   ar
    29     7    12    1
    30     7    13    1
@<TRIPOS>MOLECULE
*****
 27 30 0 0 0
SMALL
GASTEIGER

@<TRIPOS>ATOM
      1 C          -6.2921  -19.3469   21.2146 C.3     1  UNL1        0.1406
      2 C          -6.8728  -20.0405   22.4111 C.3     1  UNL1        0.0374
      3 C          -8.2921  -19.7741   22.8169 C.3     1  UNL1        0.0410
      4 C          -8.8728  -20.4677   24.0134 C.3     1  UNL1        0.0672
      5 S         -10.2921  -20.2013   24.4192 S.3     1  UNL1       -0.0807
      6 C         -11.1306  -19.2413   23.6285 C.2     1  UNL1        0.1482
      7 N         -12.5500  -18.9750   24.0344 N.pl3   1  UNL1       -0.3380
      8 N         -10.5499  -18.5477   22.4320 N.2     1  UNL1       -0.2484
      9 C          -9.1306  -18.8141   22.0262 C.3     1  UNL1        0.1352
     10 C          -8.5499  -18.1205   20.8297 C.3     1  UNL1        0.1690
     11 O          -7.1307  -18.3869   20.4239 O.3     1  UNL1       -0.3494
     12 H         -12.9311  -19.4302   24.8197 H       1  UNL1        0.1442
     13 H         -13.1003  -18.3449   23.5154 H       1  UNL1        0.1442
     14 C          -9.9692  -17.8541   21.2355 C.ar    1  UNL1        0.0278
     15 C          -9.9750  -16.3963   21.5888 C.ar    1  UNL1        0.0021
     16 C         -10.8136  -15.4363   20.7981 C.ar    1  UNL1        0.0295
     17 C         -11.6463  -15.9341   19.6540 C.ar    1  UNL1        0.1424
     18 F         -12.4848  -14.9741   18.8633 F       1  UNL1       -0.2041
     19 C         -11.6404  -17.3919   19.3007 C.ar    1  UNL1        0.0590
     20 C         -10.8019  -18.3519   20.0914 C.ar    1  UNL1        0.1402
     21 F         -10.7960  -19.8096   19.7381 F       1  UNL1       -0.2044
     22 C          -1.1320  -18.7189   20.2874 C.3     1  UNL1        0.1537
     23 N          -2.5009  -19.3246   20.3826 N.ar    1  UNL1       -0.2476
     24 C          -3.7347  -18.6396   20.8911 C.ar    1  UNL1        0.0947
     25 C          -4.8728  -19.6133   20.8087 C.ar    1  UNL1        0.0442
     26 C          -4.3424  -20.9000   20.2493 C.ar    1  UNL1        0.1197
     27 N          -2.8765  -20.7216   19.9859 N.ar    1  UNL1       -0.1679
@<TRIPOS>BOND
     1    22    23    1
     2    23    24   ar
     3    24    25   ar
     4     1    25    1
     5     1     2    1
     6     3     2    1
     7     3     4    1
     8     4     5    1
     9     5     6    1
    10     6     7    1
    11     6     8    2
    12     8     9    1
    13     9    14    1
    14    14    15   ar
    15    15    16   ar
    16    16    17   ar
    17    17    18    1
    18    17    19   ar
    19    19    20   ar
    20    20    21    1
    21     9    10    1
    22    10    11    1
    23    25    26   ar
    24    26    27   ar
    25    27    23   ar
    26    11     1    1
    27     9     3    1
    28    20    14   ar
    29     7    12    1
    30     7    13    1
@<TRIPOS>MOLECULE
*****
 27 30 0 0 0
SMALL
GASTEIGER

@<TRIPOS>ATOM
      1 C         -15.1772   -7.6598   18.3947 C.3     1  UNL1        0.1406
      2 C         -13.7049   -7.9383   18.4632 C.3     1  UNL1        0.0374
      3 C         -12.7336   -6.8055   18.6158 C.3     1  UNL1        0.0410
      4 C         -11.2612   -7.0841   18.6844 C.3     1  UNL1        0.0672
      5 S         -10.2899   -5.9513   18.8370 S.3     1  UNL1       -0.0807
      6 C         -10.7909   -4.5399   18.9210 C.2     1  UNL1        0.1482
      7 N          -9.8196   -3.4071   19.0736 N.pl3   1  UNL1       -0.3380
      8 N         -12.2632   -4.2614   18.8525 N.2     1  UNL1       -0.2484
      9 C         -13.2346   -5.3942   18.6999 C.3     1  UNL1        0.1352
     10 C         -14.7069   -5.1156   18.6314 C.3     1  UNL1        0.1690
     11 O         -15.6782   -6.2484   18.4787 O.3     1  UNL1       -0.3494
     12 H          -8.8532   -3.5899   19.1186 H       1  UNL1        0.1442
     13 H         -10.1484   -2.4808   19.1288 H       1  UNL1        0.1442
     14 C         -13.7356   -3.9828   18.7840 C.ar    1  UNL1        0.0278
     15 C         -13.8340   -3.1467   17.5424 C.ar    1  UNL1        0.0021
     16 C         -14.3350   -1.7353   17.6265 C.ar    1  UNL1        0.0295
     17 C         -14.7376   -1.1601   18.9521 C.ar    1  UNL1        0.1424
     18 F         -15.2386    0.2512   19.0362 F       1  UNL1       -0.2041
     19 C         -14.6392   -1.9962   20.1935 C.ar    1  UNL1        0.0590
     20 C         -14.1382   -3.4076   20.1094 C.ar    1  UNL1        0.1402
     21 F         -14.0398   -4.2437   21.3509 F       1  UNL1       -0.2044
     22 C         -19.5924  -10.3955   17.4447 C.3     1  UNL1        0.1537
     23 N         -18.1780  -10.0500   17.8054 N.ar    1  UNL1       -0.2476
     24 C         -17.5847   -8.6726   17.8259 C.ar    1  UNL1        0.0947
     25 C         -16.1485   -8.7926   18.2421 C.ar    1  UNL1        0.0442
     26 C         -15.8543  -10.2443   18.4788 C.ar    1  UNL1        0.1197
     27 N         -17.1086  -11.0214   18.2090 N.ar    1  UNL1       -0.1679
@<TRIPOS>BOND
     1    22    23    1
     2    23    24   ar
     3    24    25   ar
     4     1    25    1
     5     1     2    1
     6     3     2    1
     7     3     4    1
     8     4     5    1
     9     5     6    1
    10     6     7    1
    11     6     8    2
    12     8     9    1
    13     9    14    1
    14    14    15   ar
    15    15    16   ar
    16    16    17   ar
    17    17    18    1
    18    17    19   ar
    19    19    20   ar
    20    20    21    1
    21     9    10    1
    22    10    11    1
    23    25    26   ar
    24    26    27   ar
    25    27    23   ar
    26    11     1    1
    27     9     3    1
    28    20    14   ar
    29     7    12    1
    30     7    13    1
@<TRIPOS>MOLECULE
*****
 27 30 0 0 0
SMALL
GASTEIGER

@<TRIPOS>ATOM
      1 C         -15.5046   -6.6188   19.1481 C.3     1  UNL1        0.1406
      2 C         -16.0943   -5.2891   19.5143 C.3     1  UNL1        0.0374
      3 C         -15.2840   -4.0379   19.3476 C.3     1  UNL1        0.0410
      4 C         -15.8737   -2.7081   19.7138 C.3     1  UNL1        0.0672
      5 S         -15.0634   -1.4569   19.5471 S.3     1  UNL1       -0.0807
      6 C         -13.6635   -1.5353   19.0142 C.2     1  UNL1        0.1482
      7 N         -12.8532   -0.2840   18.8475 N.pl3   1  UNL1       -0.3380
      8 N         -13.0738   -2.8650   18.6479 N.2     1  UNL1       -0.2484
      9 C         -13.8841   -4.1164   18.8146 C.3     1  UNL1        0.1352
     10 C         -13.2944   -5.4460   18.4484 C.3     1  UNL1        0.1690
     11 O         -14.1047   -6.6973   18.6151 O.3     1  UNL1       -0.3494
     12 H         -13.2402    0.5887   19.0878 H       1  UNL1        0.1442
     13 H         -11.9344   -0.3355   18.4977 H       1  UNL1        0.1442
     14 C         -12.4841   -4.1948   18.2817 C.ar    1  UNL1        0.0278
     15 C         -11.3714   -4.6767   19.1647 C.ar    1  UNL1        0.0021
     16 C          -9.9714   -4.7551   18.6318 C.ar    1  UNL1        0.0295
     17 C          -9.6843   -4.3517   17.2158 C.ar    1  UNL1        0.1424
     18 F          -8.2843   -4.4302   16.6829 F       1  UNL1       -0.2041
     19 C         -10.7970   -3.8699   16.3329 C.ar    1  UNL1        0.0590
     20 C         -12.1969   -3.7914   16.8658 C.ar    1  UNL1        0.1402
     21 F         -13.3097   -3.3095   15.9829 F       1  UNL1       -0.2044
     22 C         -17.0161  -11.6766   19.0237 C.3     1  UNL1        0.1537
     23 N         -17.0096  -10.1950   19.2576 N.ar    1  UNL1       -0.2476
     24 C         -15.8979   -9.2516   18.9052 C.ar    1  UNL1        0.0947
     25 C         -16.3149   -7.8702   19.3148 C.ar    1  UNL1        0.0442
     26 C         -17.6843   -7.9597   19.9203 C.ar    1  UNL1        0.1197
     27 N         -18.1137   -9.3965   19.8850 N.ar    1  UNL1       -0.1679
@<TRIPOS>BOND
     1    22    23    1
     2    23    24   ar
     3    24    25   ar
     4     1    25    1
     5     1     2    1
     6     3     2    1
     7     3     4    1
     8     4     5    1
     9     5     6    1
    10     6     7    1
    11     6     8    2
    12     8     9    1
    13     9    14    1
    14    14    15   ar
    15    15    16   ar
    16    16    17   ar
    17    17    18    1
    18    17    19   ar
    19    19    20   ar
    20    20    21    1
    21     9    10    1
    22    10    11    1
    23    25    26   ar
    24    26    27   ar
    25    27    23   ar
    26    11     1    1
    27     9     3    1
    28    20    14   ar
    29     7    12    1
    30     7    13    1
@<TRIPOS>MOLECULE
*****
 27 30 0 0 0
SMALL
GASTEIGER

@<TRIPOS>ATOM
      1 C         -15.3235   -6.2053   18.6199 C.3     1  UNL1        0.1406
      2 C         -16.4918   -5.4090   19.1206 C.3     1  UNL1        0.0374
      3 C         -16.3988   -3.9144   19.2070 C.3     1  UNL1        0.0410
      4 C         -17.5672   -3.1179   19.7077 C.3     1  UNL1        0.0672
      5 S         -17.4742   -1.6233   19.7941 S.3     1  UNL1       -0.0807
      6 C         -16.2130   -0.9251   19.3796 C.2     1  UNL1        0.1482
      7 N         -16.1201    0.5696   19.4660 N.pl3   1  UNL1       -0.3380
      8 N         -15.0447   -1.7215   18.8789 N.2     1  UNL1       -0.2484
      9 C         -15.1376   -3.2161   18.7925 C.3     1  UNL1        0.1352
     10 C         -13.9693   -4.0125   18.2918 C.3     1  UNL1        0.1690
     11 O         -14.0622   -5.5071   18.2055 O.3     1  UNL1       -0.3494
     12 H         -16.8869    1.0923   19.7947 H       1  UNL1        0.1442
     13 H         -15.2923    1.0279   19.1940 H       1  UNL1        0.1442
     14 C         -13.8763   -2.5179   18.3781 C.ar    1  UNL1        0.0278
     15 C         -13.7240   -2.0160   16.9728 C.ar    1  UNL1        0.0021
     16 C         -12.4628   -1.3178   16.5584 C.ar    1  UNL1        0.0295
     17 C         -11.3538   -1.1215   17.5493 C.ar    1  UNL1        0.1424
     18 F         -10.0926   -0.4233   17.1349 F       1  UNL1       -0.2041
     19 C         -11.5062   -1.6234   18.9545 C.ar    1  UNL1        0.0590
     20 C         -12.7675   -2.3217   19.3690 C.ar    1  UNL1        0.1402
     21 F         -12.9198   -2.8236   20.7742 F       1  UNL1       -0.2044
     22 C         -17.2318  -11.1286   18.6549 C.3     1  UNL1        0.1537
     23 N         -16.2936   -9.9630   18.5496 N.ar    1  UNL1       -0.2476
     24 C         -16.6589   -8.5186   18.7238 C.ar    1  UNL1        0.0947
     25 C         -15.4164   -7.7000   18.5335 C.ar    1  UNL1        0.0442
     26 C         -14.2832   -8.6385   18.2417 C.ar    1  UNL1        0.1197
     27 N         -14.8253  -10.0370   18.2517 N.ar    1  UNL1       -0.1679
@<TRIPOS>BOND
     1    22    23    1
     2    23    24   ar
     3    24    25   ar
     4     1    25    1
     5     1     2    1
     6     3     2    1
     7     3     4    1
     8     4     5    1
     9     5     6    1
    10     6     7    1
    11     6     8    2
    12     8     9    1
    13     9    14    1
    14    14    15   ar
    15    15    16   ar
    16    16    17   ar
    17    17    18    1
    18    17    19   ar
    19    19    20   ar
    20    20    21    1
    21     9    10    1
    22    10    11    1
    23    25    26   ar
    24    26    27   ar
    25    27    23   ar
    26    11     1    1
    27     9     3    1
    28    20    14   ar
    29     7    12    1
    30     7    13    1
@<TRIPOS>MOLECULE
*****
 27 30 0 0 0
SMALL
GASTEIGER

@<TRIPOS>ATOM
      1 C         -15.8800   -7.1959   18.0483 C.3     1  UNL1        0.1406
      2 C         -16.5465   -5.8945   18.3830 C.3     1  UNL1        0.0374
      3 C         -15.7474   -4.6252   18.3999 C.3     1  UNL1        0.0410
      4 C         -16.4139   -3.3237   18.7346 C.3     1  UNL1        0.0672
      5 S         -15.6148   -2.0544   18.7515 S.3     1  UNL1       -0.0807
      6 C         -14.1492   -2.0866   18.4337 C.2     1  UNL1        0.1482
      7 N         -13.3501   -0.8172   18.4506 N.pl3   1  UNL1       -0.3380
      8 N         -13.4827   -3.3880   18.0990 N.2     1  UNL1       -0.2484
      9 C         -14.2818   -4.6573   18.0821 C.3     1  UNL1        0.1352
     10 C         -13.6153   -5.9587   17.7474 C.3     1  UNL1        0.1690
     11 O         -14.4144   -7.2280   17.7305 O.3     1  UNL1       -0.3494
     12 H         -13.7875    0.0370   18.6703 H       1  UNL1        0.1442
     13 H         -12.3881   -0.8383   18.2421 H       1  UNL1        0.1442
     14 C         -12.8162   -4.6895   17.7643 C.ar    1  UNL1        0.0278
     15 C         -12.3544   -4.5711   16.3420 C.ar    1  UNL1        0.0021
     16 C         -10.8888   -4.6032   16.0242 C.ar    1  UNL1        0.0295
     17 C          -9.8850   -4.7537   17.1287 C.ar    1  UNL1        0.1424
     18 F          -8.4194   -4.7859   16.8109 F       1  UNL1       -0.2041
     19 C         -10.3468   -4.8721   18.5509 C.ar    1  UNL1        0.0590
     20 C         -11.8124   -4.8400   18.8687 C.ar    1  UNL1        0.1402
     21 F         -12.2742   -4.9584   20.2909 F       1  UNL1       -0.2044
     22 C         -19.8609  -10.6165   17.4712 C.3     1  UNL1        0.1537
     23 N         -18.5089  -10.0375   17.7661 N.ar    1  UNL1       -0.2476
     24 C         -18.1198   -8.5949   17.6344 C.ar    1  UNL1        0.0947
     25 C         -16.6791   -8.4653   18.0313 C.ar    1  UNL1        0.0442
     26 C         -16.1777   -9.8278   18.4084 C.ar    1  UNL1        0.1197
     27 N         -17.3086  -10.7995   18.2445 N.ar    1  UNL1       -0.1679
@<TRIPOS>BOND
     1    22    23    1
     2    23    24   ar
     3    24    25   ar
     4     1    25    1
     5     1     2    1
     6     3     2    1
     7     3     4    1
     8     4     5    1
     9     5     6    1
    10     6     7    1
    11     6     8    2
    12     8     9    1
    13     9    14    1
    14    14    15   ar
    15    15    16   ar
    16    16    17   ar
    17    17    18    1
    18    17    19   ar
    19    19    20   ar
    20    20    21    1
    21     9    10    1
    22    10    11    1
    23    25    26   ar
    24    26    27   ar
    25    27    23   ar
    26    11     1    1
    27     9     3    1
    28    20    14   ar
    29     7    12    1
    30     7    13    1
@<TRIPOS>MOLECULE
*****
 27 30 0 0 0
SMALL
GASTEIGER

@<TRIPOS>ATOM
      1 C         -16.4687   -5.7744   18.8205 C.3     1  UNL1        0.1406
      2 C         -16.4302   -4.4524   18.1129 C.3     1  UNL1        0.0374
      3 C         -15.1303   -3.9220   17.5849 C.3     1  UNL1        0.0410
      4 C         -15.0917   -2.6000   16.8772 C.3     1  UNL1        0.0672
      5 S         -13.7918   -2.0695   16.3492 S.3     1  UNL1       -0.0807
      6 C         -12.5304   -2.8611   16.5288 C.2     1  UNL1        0.1482
      7 N         -11.2305   -2.3307   16.0007 N.pl3   1  UNL1       -0.3380
      8 N         -12.5689   -4.1831   17.2364 N.2     1  UNL1       -0.2484
      9 C         -13.8689   -4.7136   17.7645 C.3     1  UNL1        0.1352
     10 C         -13.9074   -6.0356   18.4721 C.3     1  UNL1        0.1690
     11 O         -15.2073   -6.5660   19.0001 O.3     1  UNL1       -0.3494
     12 H         -11.2052   -1.4630   15.5363 H       1  UNL1        0.1442
     13 H         -10.4026   -2.8502   16.1186 H       1  UNL1        0.1442
     14 C         -12.6075   -5.5052   17.9441 C.ar    1  UNL1        0.0278
     15 C         -12.3578   -6.7199   17.1000 C.ar    1  UNL1        0.0021
     16 C         -11.0964   -7.5115   17.2796 C.ar    1  UNL1        0.0295
     17 C         -10.0847   -7.0884   18.3032 C.ar    1  UNL1        0.1424
     18 F          -8.8233   -7.8800   18.4828 F       1  UNL1       -0.2041
     19 C         -10.3345   -5.8738   19.1471 C.ar    1  UNL1        0.0590
     20 C         -11.5959   -5.0822   18.9676 C.ar    1  UNL1        0.1402
     21 F         -11.8457   -3.8676   19.8115 F       1  UNL1       -0.2044
     22 C         -20.1538   -9.0318   20.7419 C.3     1  UNL1        0.1537
     23 N         -19.4625   -7.8022   20.2318 N.ar    1  UNL1       -0.2476
     24 C         -18.0368   -7.7184   19.7731 C.ar    1  UNL1        0.0947
     25 C         -17.7687   -6.3049   19.3486 C.ar    1  UNL1        0.0442
     26 C         -19.0287   -5.5151   19.5449 C.ar    1  UNL1        0.1197
     27 N         -20.0755   -6.4404   20.0907 N.ar    1  UNL1       -0.1679
@<TRIPOS>BOND
     1    22    23    1
     2    23    24   ar
     3    24    25   ar
     4     1    25    1
     5     1     2    1
     6     3     2    1
     7     3     4    1
     8     4     5    1
     9     5     6    1
    10     6     7    1
    11     6     8    2
    12     8     9    1
    13     9    14    1
    14    14    15   ar
    15    15    16   ar
    16    16    17   ar
    17    17    18    1
    18    17    19   ar
    19    19    20   ar
    20    20    21    1
    21     9    10    1
    22    10    11    1
    23    25    26   ar
    24    26    27   ar
    25    27    23   ar
    26    11     1    1
    27     9     3    1
    28    20    14   ar
    29     7    12    1
    30     7    13    1
