@<TRIPOS>MOLECULE
*****
 37 41 0 0 0
SMALL
GASTEIGER

@<TRIPOS>ATOM
      1 C          -0.0987    1.9469   21.0789 C.2     1  UNL1        0.3216
      2 N          -1.3051    2.5102   20.3881 N.2     1  UNL1       -0.0599
      3 C          -2.2971    3.3290   21.1597 C.3     1  UNL1        0.2689
      4 C          -2.0827    3.5845   22.6222 C.2     1  UNL1        0.1165
      5 C          -0.8762    3.0211   23.3130 C.2     1  UNL1        0.1177
      6 C          -0.6618    3.2766   24.7754 C.3     1  UNL1        0.0754
      7 N           0.1157    2.2024   22.5413 N.pl3   1  UNL1       -0.2027
      8 H           0.9076    1.8326   22.9946 H       1  UNL1        0.2982
      9 C          -3.5035    3.8923   20.4689 C.ar    1  UNL1        0.0582
     10 C          -4.8082    3.1537   20.5167 C.ar    1  UNL1        0.0033
     11 C          -6.0147    3.7170   19.8259 C.ar    1  UNL1        0.0114
     12 C          -5.9165    5.0188   19.0873 C.ar    1  UNL1        0.0599
     13 CL         -7.1229    5.5821   18.3964 Cl      1  UNL1       -0.0822
     14 C          -4.6117    5.7574   19.0395 C.ar    1  UNL1        0.0408
     15 C          -3.4053    5.1941   19.7303 C.ar    1  UNL1        0.1413
     16 F          -2.1005    5.9327   19.6825 F       1  UNL1       -0.2043
     17 C           2.8774   -0.5095   18.7638 C.ar    1  UNL1        0.2250
     18 C           2.3583   -1.0056   20.0808 C.ar    1  UNL1        0.0580
     19 C           1.3663   -0.1868   20.8525 C.ar    1  UNL1        0.0137
     20 C           0.8934    1.1281   20.3071 C.ar    1  UNL1        0.1014
     21 C           1.4124    1.6242   18.9902 C.ar    1  UNL1        0.1094
     22 N           2.4045    0.8053   18.2185 N.ar    1  UNL1       -0.2099
     23 C           4.3641   -2.6295   18.5510 C.3     1  UNL1        0.2542
     24 O           3.8694   -1.3284   17.9922 O.3     1  UNL1       -0.4561
     25 C          -3.0748    4.4033   23.3938 C.2     1  UNL1        0.2527
     26 O          -2.9204    5.8934   23.4691 O.2     1  UNL1       -0.2699
     27 N          -4.2212    3.7318   24.0902 N.am    1  UNL1       -0.2836
     28 H          -4.3225    2.7538   24.0408 H       1  UNL1        0.1549
     29 C          -5.2132    4.5506   24.8619 C.2     1  UNL1        0.0322
     30 C          -4.9139    4.9558   26.2748 C.2     1  UNL1        0.0122
     31 C          -5.9060    5.7746   27.0465 C.2     1  UNL1        0.0216
     32 C          -7.1974    6.1882   26.4051 C.2     1  UNL1        0.1008
     33 N          -8.3587    6.9901   26.9133 N.2     1  UNL1       -0.1482
     34 N          -9.3757    7.0806   25.8145 N.2     1  UNL1       -0.1467
     35 C          -8.8430    6.3346   24.6273 C.2     1  UNL1        0.1198
     36 C          -7.4967    5.7830   24.9923 C.2     1  UNL1        0.0238
     37 C          -6.5046    4.9643   24.2206 C.3     1  UNL1        0.0707
@<TRIPOS>BOND
     1    23    24    1
     2    24    17    1
     3    17    18   ar
     4    18    19   ar
     5    19    20   ar
     6    20     1    1
     7     1     2    2
     8     2     3    1
     9     3     9    1
    10     9    10   ar
    11    10    11   ar
    12    11    12   ar
    13    12    13    1
    14    12    14   ar
    15    14    15   ar
    16    15    16    1
    17     3     4    1
    18     4    25    1
    19    25    26    2
    20    25    27   am
    21    27    29    1
    22    29    30    2
    23    30    31    1
    24    31    32    2
    25    32    33    1
    26    33    34    2
    27    34    35    1
    28    35    36    2
    29    36    37    1
    30     4     5    2
    31     5     6    1
    32     5     7    1
    33    20    21   ar
    34    21    22   ar
    35    22    17   ar
    36     7     1    1
    37    15     9   ar
    38    37    29    1
    39    36    32    1
    40    27    28    1
    41     7     8    1
@<TRIPOS>MOLECULE
*****
 37 41 0 0 0
SMALL
GASTEIGER

@<TRIPOS>ATOM
      1 C           0.4128    1.5909   21.0816 C.2     1  UNL1        0.3216
      2 N           0.6198    1.7782   22.5553 N.2     1  UNL1       -0.0599
      3 C          -0.3554    2.5932   23.3520 C.3     1  UNL1        0.2689
      4 C          -1.5376    3.2209   22.6749 C.2     1  UNL1        0.1165
      5 C          -1.7446    3.0335   21.2010 C.2     1  UNL1        0.1177
      6 C          -2.9267    3.6610   20.5240 C.3     1  UNL1        0.0754
      7 N          -0.7693    2.2184   20.4045 N.pl3   1  UNL1       -0.2027
      8 H          -0.9051    2.0954   19.4372 H       1  UNL1        0.2982
      9 C          -0.1484    2.7806   24.8258 C.ar    1  UNL1        0.0582
     10 C          -0.6250    1.7342   25.7891 C.ar    1  UNL1        0.0033
     11 C          -0.4180    1.9215   27.2628 C.ar    1  UNL1        0.0114
     12 C           0.2656    3.1553   27.7734 C.ar    1  UNL1        0.0599
     13 CL          0.4726    3.3426   29.2472 Cl      1  UNL1       -0.0822
     14 C           0.7422    4.2016   26.8101 C.ar    1  UNL1        0.0408
     15 C           0.5352    4.0143   25.3362 C.ar    1  UNL1        0.1413
     16 F           1.0119    5.0607   24.3730 F       1  UNL1       -0.2043
     17 C           3.3386   -0.8543   18.6918 C.ar    1  UNL1        0.2250
     18 C           2.8699   -1.3430   20.0302 C.ar    1  UNL1        0.0580
     19 C           1.8946   -0.5280   20.8268 C.ar    1  UNL1        0.0137
     20 C           1.3881    0.7758   20.2849 C.ar    1  UNL1        0.1014
     21 C           1.8569    1.2645   18.9466 C.ar    1  UNL1        0.1094
     22 N           2.8322    0.4495   18.1499 N.ar    1  UNL1       -0.2099
     23 C           5.0685   -2.7876   18.5510 C.3     1  UNL1        0.2542
     24 O           4.3139   -1.6694   17.8952 O.3     1  UNL1       -0.4561
     25 C          -2.5128    4.0359   23.4716 C.2     1  UNL1        0.2527
     26 O          -2.3390    5.5221   23.5760 O.2     1  UNL1       -0.2699
     27 N          -3.6618    3.3646   24.1638 N.am    1  UNL1       -0.2836
     28 H          -3.7759    2.3891   24.0953 H       1  UNL1        0.1549
     29 C          -4.6371    4.1796   24.9605 C.2     1  UNL1        0.0322
     30 C          -4.3097    4.5734   26.3705 C.2     1  UNL1        0.0122
     31 C          -5.2850    5.3885   27.1671 C.2     1  UNL1        0.0216
     32 C          -6.5876    5.8096   26.5538 C.2     1  UNL1        0.1008
     33 N          -7.7371    6.6101   27.0903 N.2     1  UNL1       -0.1482
     34 N          -8.7749    6.7109   26.0119 N.2     1  UNL1       -0.1467
     35 C          -8.2667    5.9728   24.8091 C.2     1  UNL1        0.1198
     36 C          -6.9148    5.4157   25.1440 C.2     1  UNL1        0.0238
     37 C          -5.9396    4.6007   24.3473 C.3     1  UNL1        0.0707
@<TRIPOS>BOND
     1    23    24    1
     2    24    17    1
     3    17    18   ar
     4    18    19   ar
     5    19    20   ar
     6    20     1    1
     7     1     2    2
     8     2     3    1
     9     3     9    1
    10     9    10   ar
    11    10    11   ar
    12    11    12   ar
    13    12    13    1
    14    12    14   ar
    15    14    15   ar
    16    15    16    1
    17     3     4    1
    18     4    25    1
    19    25    26    2
    20    25    27   am
    21    27    29    1
    22    29    30    2
    23    30    31    1
    24    31    32    2
    25    32    33    1
    26    33    34    2
    27    34    35    1
    28    35    36    2
    29    36    37    1
    30     4     5    2
    31     5     6    1
    32     5     7    1
    33    20    21   ar
    34    21    22   ar
    35    22    17   ar
    36     7     1    1
    37    15     9   ar
    38    37    29    1
    39    36    32    1
    40    27    28    1
    41     7     8    1
@<TRIPOS>MOLECULE
*****
 37 41 0 0 0
SMALL
GASTEIGER

@<TRIPOS>ATOM
      1 C          -1.9978    3.5822   24.4660 C.2     1  UNL1        0.3216
      2 N          -1.8950    4.0157   23.0337 N.2     1  UNL1       -0.0599
      3 C          -0.8483    3.4165   22.1420 C.3     1  UNL1        0.2689
      4 C           0.0958    2.3837   22.6825 C.2     1  UNL1        0.1165
      5 C          -0.0070    1.9502   24.1149 C.2     1  UNL1        0.1177
      6 C           0.9369    0.9174   24.6555 C.3     1  UNL1        0.0754
      7 N          -1.0538    2.5495   25.0065 N.pl3   1  UNL1       -0.2027
      8 H          -1.1213    2.2650   25.9466 H       1  UNL1        0.2982
      9 C          -0.7455    3.8500   20.7097 C.ar    1  UNL1        0.0582
     10 C           0.4651    4.5997   20.2380 C.ar    1  UNL1        0.0033
     11 C           0.5679    5.0332   18.8057 C.ar    1  UNL1        0.0114
     12 C          -0.5399    4.7171   17.8450 C.ar    1  UNL1        0.0599
     13 CL         -0.4372    5.1506   16.4127 Cl      1  UNL1       -0.0822
     14 C          -1.7505    3.9674   18.3167 C.ar    1  UNL1        0.0408
     15 C          -1.8532    3.5338   19.7491 C.ar    1  UNL1        0.1413
     16 F          -3.0639    2.7841   20.2207 F       1  UNL1       -0.2043
     17 C          -5.1382    5.3801   27.1409 C.ar    1  UNL1        0.2250
     18 C          -5.5377    4.7149   25.8572 C.ar    1  UNL1        0.0580
     19 C          -4.4909    4.1156   24.9656 C.ar    1  UNL1        0.0137
     20 C          -3.0446    4.1815   25.3577 C.ar    1  UNL1        0.1014
     21 C          -2.6451    4.8467   26.6413 C.ar    1  UNL1        0.1094
     22 N          -3.6919    5.4460   27.5330 N.ar    1  UNL1       -0.2099
     23 C          -7.4408    6.5459   27.4391 C.3     1  UNL1        0.2542
     24 O          -6.1850    5.9794   28.0325 O.3     1  UNL1       -0.4561
     25 C           1.1425    1.7844   21.7908 C.2     1  UNL1        0.2527
     26 O           2.5557    2.2835   21.8527 O.2     1  UNL1       -0.2699
     27 N           0.7760    0.6860   20.8372 N.am    1  UNL1       -0.2836
     28 H          -0.1515    0.3585   20.7966 H       1  UNL1        0.1549
     29 C           1.8228    0.0868   19.9455 C.2     1  UNL1        0.0322
     30 C           2.2421    0.8020   18.6954 C.2     1  UNL1        0.0122
     31 C           3.2889    0.2027   17.8037 C.2     1  UNL1        0.0216
     32 C           3.9163   -1.1119   18.1621 C.2     1  UNL1        0.1008
     33 N           4.9652   -1.9417   17.4829 N.2     1  UNL1       -0.1482
     34 N           5.1940   -3.1697   18.3132 N.2     1  UNL1       -0.1467
     35 C           4.2867   -3.0989   19.5055 C.2     1  UNL1        0.1198
     36 C           3.4970   -1.8270   19.4121 C.2     1  UNL1        0.0238
     37 C           2.4502   -1.2277   20.3038 C.3     1  UNL1        0.0707
@<TRIPOS>BOND
     1    23    24    1
     2    24    17    1
     3    17    18   ar
     4    18    19   ar
     5    19    20   ar
     6    20     1    1
     7     1     2    2
     8     2     3    1
     9     3     9    1
    10     9    10   ar
    11    10    11   ar
    12    11    12   ar
    13    12    13    1
    14    12    14   ar
    15    14    15   ar
    16    15    16    1
    17     3     4    1
    18     4    25    1
    19    25    26    2
    20    25    27   am
    21    27    29    1
    22    29    30    2
    23    30    31    1
    24    31    32    2
    25    32    33    1
    26    33    34    2
    27    34    35    1
    28    35    36    2
    29    36    37    1
    30     4     5    2
    31     5     6    1
    32     5     7    1
    33    20    21   ar
    34    21    22   ar
    35    22    17   ar
    36     7     1    1
    37    15     9   ar
    38    37    29    1
    39    36    32    1
    40    27    28    1
    41     7     8    1
@<TRIPOS>MOLECULE
*****
 37 41 0 0 0
SMALL
GASTEIGER

@<TRIPOS>ATOM
      1 C          -0.4184    1.9250   25.8135 C.2     1  UNL1        0.3216
      2 N          -1.6955    2.6986   25.9568 N.2     1  UNL1       -0.0599
      3 C          -2.3187    3.3464   24.7560 C.3     1  UNL1        0.2689
      4 C          -1.6648    3.2206   23.4119 C.2     1  UNL1        0.1165
      5 C          -0.3876    2.4470   23.2686 C.2     1  UNL1        0.1177
      6 C           0.2663    2.3212   21.9246 C.3     1  UNL1        0.0754
      7 N           0.2355    1.7992   24.4695 N.pl3   1  UNL1       -0.2027
      8 H           1.0737    1.2914   24.3755 H       1  UNL1        0.2982
      9 C          -3.5957    4.1200   24.8993 C.ar    1  UNL1        0.0582
     10 C          -3.5913    5.4547   25.5840 C.ar    1  UNL1        0.0033
     11 C          -4.8683    6.2283   25.7273 C.ar    1  UNL1        0.0114
     12 C          -6.1499    5.6674   25.1860 C.ar    1  UNL1        0.0599
     13 CL         -7.4270    6.4410   25.3293 Cl      1  UNL1       -0.0822
     14 C          -6.1543    4.3328   24.5013 C.ar    1  UNL1        0.0408
     15 C          -4.8772    3.5591   24.3580 C.ar    1  UNL1        0.1413
     16 F          -4.8817    2.2244   23.6733 F       1  UNL1       -0.2043
     17 C           1.4512   -0.0185   29.4160 C.ar    1  UNL1        0.2250
     18 C           2.3147    0.6798   28.4077 C.ar    1  UNL1        0.0580
     19 C           1.6915    1.3276   27.2069 C.ar    1  UNL1        0.0137
     20 C           0.2048    1.2771   27.0144 C.ar    1  UNL1        0.1014
     21 C          -0.6587    0.5788   28.0226 C.ar    1  UNL1        0.1094
     22 N          -0.0356   -0.0690   29.2235 N.ar    1  UNL1       -0.2099
     23 C           2.9312    0.1423   31.5452 C.3     1  UNL1        0.2542
     24 O           2.0744   -0.6663   30.6168 O.3     1  UNL1       -0.4561
     25 C          -2.2880    3.8685   22.2111 C.2     1  UNL1        0.2527
     26 O          -2.1524    5.3476   22.0019 O.2     1  UNL1       -0.2699
     27 N          -3.0467    3.0371   21.2195 N.am    1  UNL1       -0.2836
     28 H          -3.1357    2.0663   21.3569 H       1  UNL1        0.1549
     29 C          -3.6699    3.6849   20.0187 C.2     1  UNL1        0.0322
     30 C          -2.8151    4.0787   18.8506 C.2     1  UNL1        0.0122
     31 C          -3.4384    4.7266   17.6498 C.2     1  UNL1        0.0216
     32 C          -4.9164    4.9807   17.6171 C.2     1  UNL1        0.1008
     33 N          -5.8059    5.5976   16.5789 N.2     1  UNL1       -0.1482
     34 N          -7.2105    5.5851   17.1052 N.2     1  UNL1       -0.1467
     35 C          -7.1890    4.9604   18.4688 C.2     1  UNL1        0.1198
     36 C          -5.7711    4.5869   18.7852 C.2     1  UNL1        0.0238
     37 C          -5.1479    3.9390   19.9860 C.3     1  UNL1        0.0707
@<TRIPOS>BOND
     1    23    24    1
     2    24    17    1
     3    17    18   ar
     4    18    19   ar
     5    19    20   ar
     6    20     1    1
     7     1     2    2
     8     2     3    1
     9     3     9    1
    10     9    10   ar
    11    10    11   ar
    12    11    12   ar
    13    12    13    1
    14    12    14   ar
    15    14    15   ar
    16    15    16    1
    17     3     4    1
    18     4    25    1
    19    25    26    2
    20    25    27   am
    21    27    29    1
    22    29    30    2
    23    30    31    1
    24    31    32    2
    25    32    33    1
    26    33    34    2
    27    34    35    1
    28    35    36    2
    29    36    37    1
    30     4     5    2
    31     5     6    1
    32     5     7    1
    33    20    21   ar
    34    21    22   ar
    35    22    17   ar
    36     7     1    1
    37    15     9   ar
    38    37    29    1
    39    36    32    1
    40    27    28    1
    41     7     8    1
@<TRIPOS>MOLECULE
*****
 37 41 0 0 0
SMALL
GASTEIGER

@<TRIPOS>ATOM
      1 C           3.6821   -1.3791   24.0541 C.2     1  UNL1        0.3216
      2 N           2.7144   -0.2431   24.2053 N.2     1  UNL1       -0.0599
      3 C           2.5525    0.4322   25.5349 C.3     1  UNL1        0.2689
      4 C           3.3583   -0.0285   26.7132 C.2     1  UNL1        0.1165
      5 C           4.3261   -1.1647   26.5619 C.2     1  UNL1        0.1177
      6 C           5.1318   -1.6254   27.7401 C.3     1  UNL1        0.0754
      7 N           4.4879   -1.8399   25.2323 N.pl3   1  UNL1       -0.2027
      8 H           5.1230   -2.5855   25.1330 H       1  UNL1        0.2982
      9 C           1.5848    1.5683   25.6861 C.ar    1  UNL1        0.0582
     10 C           0.1411    1.2893   25.9827 C.ar    1  UNL1        0.0033
     11 C          -0.8266    2.4253   26.1339 C.ar    1  UNL1        0.0114
     12 C          -0.3507    3.8404   25.9886 C.ar    1  UNL1        0.0599
     13 CL         -1.3184    4.9765   26.1398 Cl      1  UNL1       -0.0822
     14 C           1.0930    4.1194   25.6921 C.ar    1  UNL1        0.0408
     15 C           2.0607    2.9833   25.5408 C.ar    1  UNL1        0.1413
     16 F           3.5045    3.2623   25.2442 F       1  UNL1       -0.2043
     17 C           4.1676   -3.4049   20.0652 C.ar    1  UNL1        0.2250
     18 C           3.4478   -2.0921   20.1571 C.ar    1  UNL1        0.0580
     19 C           3.2859   -1.4169   21.4867 C.ar    1  UNL1        0.0137
     20 C           3.8440   -2.0544   22.7244 C.ar    1  UNL1        0.1014
     21 C           4.5638   -3.3671   22.6326 C.ar    1  UNL1        0.1094
     22 N           4.7257   -4.0424   21.3030 N.ar    1  UNL1       -0.2099
     23 C           4.6521   -5.5436   18.6720 C.3     1  UNL1        0.2542
     24 O           4.3295   -4.0801   18.7356 O.3     1  UNL1       -0.4561
     25 C           3.1964    0.6468   28.0427 C.2     1  UNL1        0.2527
     26 O           3.9785    1.8885   28.3534 O.2     1  UNL1       -0.2699
     27 N           2.2523    0.0803   29.0616 N.am    1  UNL1       -0.2836
     28 H           1.7390   -0.7346   28.8576 H       1  UNL1        0.1549
     29 C           2.0904    0.7557   30.3911 C.2     1  UNL1        0.0322
     30 C           0.9678    1.7268   30.6073 C.2     1  UNL1        0.0122
     31 C           0.8059    2.4021   31.9370 C.2     1  UNL1        0.0216
     32 C           1.7667    2.1063   33.0503 C.2     1  UNL1        0.1008
     33 N           1.8584    2.6148   34.4585 N.2     1  UNL1       -0.1482
     34 N           3.0376    1.9579   35.1126 N.2     1  UNL1       -0.1467
     35 C           3.6748    1.0435   34.1086 C.2     1  UNL1        0.1198
     36 C           2.8892    1.1352   32.8341 C.2     1  UNL1        0.0238
     37 C           3.0511    0.4599   31.5045 C.3     1  UNL1        0.0707
@<TRIPOS>BOND
     1    23    24    1
     2    24    17    1
     3    17    18   ar
     4    18    19   ar
     5    19    20   ar
     6    20     1    1
     7     1     2    2
     8     2     3    1
     9     3     9    1
    10     9    10   ar
    11    10    11   ar
    12    11    12   ar
    13    12    13    1
    14    12    14   ar
    15    14    15   ar
    16    15    16    1
    17     3     4    1
    18     4    25    1
    19    25    26    2
    20    25    27   am
    21    27    29    1
    22    29    30    2
    23    30    31    1
    24    31    32    2
    25    32    33    1
    26    33    34    2
    27    34    35    1
    28    35    36    2
    29    36    37    1
    30     4     5    2
    31     5     6    1
    32     5     7    1
    33    20    21   ar
    34    21    22   ar
    35    22    17   ar
    36     7     1    1
    37    15     9   ar
    38    37    29    1
    39    36    32    1
    40    27    28    1
    41     7     8    1
@<TRIPOS>MOLECULE
*****
 37 41 0 0 0
SMALL
GASTEIGER

@<TRIPOS>ATOM
      1 C           4.3799   -1.7142   24.8988 C.2     1  UNL1        0.3216
      2 N           3.5200   -0.5800   25.3722 N.2     1  UNL1       -0.0599
      3 C           3.6213   -0.1036   26.7910 C.3     1  UNL1        0.2689
      4 C           4.5824   -0.7615   27.7362 C.2     1  UNL1        0.1165
      5 C           5.4423   -1.8958   27.2627 C.2     1  UNL1        0.1177
      6 C           6.4033   -2.5536   28.2079 C.3     1  UNL1        0.0754
      7 N           5.3409   -2.3720   25.8440 N.pl3   1  UNL1       -0.2027
      8 H           5.9053   -3.1165   25.5332 H       1  UNL1        0.2982
      9 C           2.7614    1.0306   27.2644 C.ar    1  UNL1        0.0582
     10 C           3.1158    2.4424   26.9020 C.ar    1  UNL1        0.0033
     11 C           2.2560    3.5766   27.3754 C.ar    1  UNL1        0.0114
     12 C           1.0417    3.2992   28.2113 C.ar    1  UNL1        0.0599
     13 CL          0.1819    4.4334   28.6848 Cl      1  UNL1       -0.0822
     14 C           0.6873    1.8874   28.5737 C.ar    1  UNL1        0.0408
     15 C           1.5472    0.7531   28.1002 C.ar    1  UNL1        0.1413
     16 F           1.1928   -0.6587   28.4627 F       1  UNL1       -0.2043
     17 C           4.0759   -3.1431   20.6424 C.ar    1  UNL1        0.2250
     18 C           3.4601   -1.8344   21.0401 C.ar    1  UNL1        0.0580
     19 C           3.5614   -1.3581   22.4588 C.ar    1  UNL1        0.0137
     20 C           4.2786   -2.1905   23.4800 C.ar    1  UNL1        0.1014
     21 C           4.8944   -3.4991   23.0824 C.ar    1  UNL1        0.1094
     22 N           4.7931   -3.9755   21.6636 N.ar    1  UNL1       -0.2099
     23 C           4.6211   -4.9106   18.8181 C.3     1  UNL1        0.2542
     24 O           3.9746   -3.6193   19.2237 O.3     1  UNL1       -0.4561
     25 C           4.6836   -0.2851   29.1550 C.2     1  UNL1        0.2527
     26 O           5.5830    0.8655   29.4974 O.2     1  UNL1       -0.2699
     27 N           3.8854   -0.9594   30.2312 N.am    1  UNL1       -0.2836
     28 H           3.2952   -1.7146   30.0065 H       1  UNL1        0.1549
     29 C           3.9867   -0.4830   31.6500 C.2     1  UNL1        0.0322
     30 C           4.9615   -1.1283   32.5900 C.2     1  UNL1        0.0122
     31 C           5.0627   -0.6518   34.0088 C.2     1  UNL1        0.0216
     32 C           4.1891    0.4698   34.4875 C.2     1  UNL1        0.1008
     33 N           4.0663    1.1478   35.8198 N.2     1  UNL1       -0.1482
     34 N           3.0157    2.2120   35.7032 N.2     1  UNL1       -0.1467
     35 C           2.4892    2.1917   34.2988 C.2     1  UNL1        0.1198
     36 C           3.2144    1.1149   33.5474 C.2     1  UNL1        0.0238
     37 C           3.1132    0.6385   32.1287 C.3     1  UNL1        0.0707
@<TRIPOS>BOND
     1    23    24    1
     2    24    17    1
     3    17    18   ar
     4    18    19   ar
     5    19    20   ar
     6    20     1    1
     7     1     2    2
     8     2     3    1
     9     3     9    1
    10     9    10   ar
    11    10    11   ar
    12    11    12   ar
    13    12    13    1
    14    12    14   ar
    15    14    15   ar
    16    15    16    1
    17     3     4    1
    18     4    25    1
    19    25    26    2
    20    25    27   am
    21    27    29    1
    22    29    30    2
    23    30    31    1
    24    31    32    2
    25    32    33    1
    26    33    34    2
    27    34    35    1
    28    35    36    2
    29    36    37    1
    30     4     5    2
    31     5     6    1
    32     5     7    1
    33    20    21   ar
    34    21    22   ar
    35    22    17   ar
    36     7     1    1
    37    15     9   ar
    38    37    29    1
    39    36    32    1
    40    27    28    1
    41     7     8    1
@<TRIPOS>MOLECULE
*****
 37 41 0 0 0
SMALL
GASTEIGER

@<TRIPOS>ATOM
      1 C          -3.3703    4.2001   24.0962 C.2     1  UNL1        0.3216
      2 N          -2.0853    3.7513   24.7264 N.2     1  UNL1       -0.0599
      3 C          -0.9890    3.1854   23.8732 C.3     1  UNL1        0.2689
      4 C          -1.1777    3.0684   22.3898 C.2     1  UNL1        0.1165
      5 C          -2.4629    3.5172   21.7595 C.2     1  UNL1        0.1177
      6 C          -2.6516    3.4001   20.2761 C.3     1  UNL1        0.0754
      7 N          -3.5591    4.0830   22.6128 N.pl3   1  UNL1       -0.2027
      8 H          -4.4025    4.3776   22.1992 H       1  UNL1        0.2982
      9 C           0.2960    2.7366   24.5035 C.ar    1  UNL1        0.0582
     10 C           0.5031    1.2883   24.8348 C.ar    1  UNL1        0.0033
     11 C           1.7882    0.8396   25.4651 C.ar    1  UNL1        0.0114
     12 C           2.8661    1.8389   25.7641 C.ar    1  UNL1        0.0599
     13 CL          4.1512    1.3901   26.3943 Cl      1  UNL1       -0.0822
     14 C           2.6590    3.2871   25.4327 C.ar    1  UNL1        0.0408
     15 C           1.3739    3.7360   24.8024 C.ar    1  UNL1        0.1413
     16 F           1.1668    5.1842   24.4711 F       1  UNL1       -0.2043
     17 C          -6.6591    5.8977   26.6559 C.ar    1  UNL1        0.2250
     18 C          -6.8081    5.8712   25.1635 C.ar    1  UNL1        0.0580
     19 C          -5.7118    5.3053   24.3103 C.ar    1  UNL1        0.0137
     20 C          -4.4666    4.7659   24.9495 C.ar    1  UNL1        0.1014
     21 C          -4.3177    4.7924   26.4417 C.ar    1  UNL1        0.1094
     22 N          -5.4140    5.3583   27.2950 N.ar    1  UNL1       -0.2099
     23 C          -7.6322    6.4365   29.0038 C.3     1  UNL1        0.2542
     24 O          -7.7554    6.4635   27.5091 O.3     1  UNL1       -0.4561
     25 C          -0.0815    2.5025   21.5366 C.2     1  UNL1        0.2527
     26 O           1.0688    3.3706   21.1204 O.2     1  UNL1       -0.2699
     27 N          -0.1356    1.0685   21.0996 N.am    1  UNL1       -0.2836
     28 H          -0.8906    0.4988   21.3728 H       1  UNL1        0.1549
     29 C           0.9607    0.5027   20.2464 C.2     1  UNL1        0.0322
     30 C           1.1790    1.0294   18.8589 C.2     1  UNL1        0.0122
     31 C           2.2753    0.4635   18.0057 C.2     1  UNL1        0.0216
     32 C           3.1533   -0.6291   18.5400 C.2     1  UNL1        0.1008
     33 N           4.3048   -1.3769   17.9361 N.2     1  UNL1       -0.1482
     34 N           4.7982   -2.3658   18.9503 N.2     1  UNL1       -0.1467
     35 C           3.9516   -2.2292   20.1810 C.2     1  UNL1        0.1198
     36 C           2.9350   -1.1557   19.9274 C.2     1  UNL1        0.0238
     37 C           1.8387   -0.5899   20.7806 C.3     1  UNL1        0.0707
@<TRIPOS>BOND
     1    23    24    1
     2    24    17    1
     3    17    18   ar
     4    18    19   ar
     5    19    20   ar
     6    20     1    1
     7     1     2    2
     8     2     3    1
     9     3     9    1
    10     9    10   ar
    11    10    11   ar
    12    11    12   ar
    13    12    13    1
    14    12    14   ar
    15    14    15   ar
    16    15    16    1
    17     3     4    1
    18     4    25    1
    19    25    26    2
    20    25    27   am
    21    27    29    1
    22    29    30    2
    23    30    31    1
    24    31    32    2
    25    32    33    1
    26    33    34    2
    27    34    35    1
    28    35    36    2
    29    36    37    1
    30     4     5    2
    31     5     6    1
    32     5     7    1
    33    20    21   ar
    34    21    22   ar
    35    22    17   ar
    36     7     1    1
    37    15     9   ar
    38    37    29    1
    39    36    32    1
    40    27    28    1
    41     7     8    1
@<TRIPOS>MOLECULE
*****
 37 41 0 0 0
SMALL
GASTEIGER

@<TRIPOS>ATOM
      1 C           5.4331   -1.3489   32.3346 C.2     1  UNL1        0.3216
      2 N           5.5057   -0.7253   30.9723 N.2     1  UNL1       -0.0599
      3 C           6.0666   -1.5045   29.8198 C.3     1  UNL1        0.2689
      4 C           6.5549   -2.9072   30.0296 C.2     1  UNL1        0.1165
      5 C           6.4823   -3.5307   31.3920 C.2     1  UNL1        0.1177
      6 C           6.9706   -4.9333   31.6018 C.3     1  UNL1        0.0754
      7 N           5.9214   -2.7515   32.5444 N.pl3   1  UNL1       -0.2027
      8 H           5.8737   -3.1607   33.4386 H       1  UNL1        0.2982
      9 C           6.1392   -0.8809   28.4575 C.ar    1  UNL1        0.0582
     10 C           7.4441   -0.3467   27.9458 C.ar    1  UNL1        0.0033
     11 C           7.5167    0.2768   26.5835 C.ar    1  UNL1        0.0114
     12 C           6.2844    0.3662   25.7328 C.ar    1  UNL1        0.0599
     13 CL          6.3570    0.9897   24.3705 Cl      1  UNL1       -0.0822
     14 C           4.9796   -0.1681   26.2445 C.ar    1  UNL1        0.0408
     15 C           4.9070   -0.7916   27.6069 C.ar    1  UNL1        0.1413
     16 F           3.6020   -1.3259   28.1186 F       1  UNL1       -0.2043
     17 C           3.7504    0.9887   35.7921 C.ar    1  UNL1        0.2250
     18 C           4.6901   -0.1528   36.0450 C.ar    1  UNL1        0.0580
     19 C           5.2510   -0.9319   34.8925 C.ar    1  UNL1        0.0137
     20 C           4.8722   -0.5696   33.4871 C.ar    1  UNL1        0.1014
     21 C           3.9325    0.5718   33.2342 C.ar    1  UNL1        0.1094
     22 N           3.3716    1.3510   34.3867 N.ar    1  UNL1       -0.2099
     23 C           3.8945    1.7609   38.2686 C.3     1  UNL1        0.2542
     24 O           3.1895    1.7679   36.9446 O.3     1  UNL1       -0.4561
     25 C           7.1158   -3.6863   28.8771 C.2     1  UNL1        0.2527
     26 O           8.6010   -3.7952   28.6974 O.2     1  UNL1       -0.2699
     27 N           6.1914   -4.3566   27.9042 N.am    1  UNL1       -0.2836
     28 H           5.2167   -4.2851   28.0222 H       1  UNL1        0.1549
     29 C           6.7524   -5.1357   26.7517 C.2     1  UNL1        0.0322
     30 C           7.0162   -6.6052   26.8974 C.2     1  UNL1        0.0122
     31 C           7.5772   -7.3843   25.7448 C.2     1  UNL1        0.0216
     32 C           7.8742   -6.6940   24.4466 C.2     1  UNL1        0.1008
     33 N           8.4268   -7.1969   23.1460 N.2     1  UNL1       -0.1482
     34 N           8.5045   -6.0383   22.1965 N.2     1  UNL1       -0.1467
     35 C           7.9999   -4.8193   22.9103 C.2     1  UNL1        0.1198
     36 C           7.6103   -5.2246   24.3010 C.2     1  UNL1        0.0238
     37 C           7.0494   -4.4455   25.4535 C.3     1  UNL1        0.0707
@<TRIPOS>BOND
     1    23    24    1
     2    24    17    1
     3    17    18   ar
     4    18    19   ar
     5    19    20   ar
     6    20     1    1
     7     1     2    2
     8     2     3    1
     9     3     9    1
    10     9    10   ar
    11    10    11   ar
    12    11    12   ar
    13    12    13    1
    14    12    14   ar
    15    14    15   ar
    16    15    16    1
    17     3     4    1
    18     4    25    1
    19    25    26    2
    20    25    27   am
    21    27    29    1
    22    29    30    2
    23    30    31    1
    24    31    32    2
    25    32    33    1
    26    33    34    2
    27    34    35    1
    28    35    36    2
    29    36    37    1
    30     4     5    2
    31     5     6    1
    32     5     7    1
    33    20    21   ar
    34    21    22   ar
    35    22    17   ar
    36     7     1    1
    37    15     9   ar
    38    37    29    1
    39    36    32    1
    40    27    28    1
    41     7     8    1
@<TRIPOS>MOLECULE
*****
 37 41 0 0 0
SMALL
GASTEIGER

@<TRIPOS>ATOM
      1 C          -2.8586    3.3388   21.0999 C.2     1  UNL1        0.3216
      2 N          -1.8096    2.5559   20.3674 N.2     1  UNL1       -0.0599
      3 C          -0.5305    2.1864   21.0583 C.3     1  UNL1        0.2689
      4 C          -0.3005    2.5999   22.4818 C.2     1  UNL1        0.1165
      5 C          -1.3496    3.3828   23.2143 C.2     1  UNL1        0.1177
      6 C          -1.1195    3.7963   24.6376 C.3     1  UNL1        0.0754
      7 N          -2.6286    3.7522   22.5232 N.pl3   1  UNL1       -0.2027
      8 H          -3.3172    4.2661   23.0040 H       1  UNL1        0.2982
      9 C           0.5185    1.4035   20.3259 C.ar    1  UNL1        0.0582
     10 C           0.6396   -0.0756   20.5445 C.ar    1  UNL1        0.0033
     11 C           1.6887   -0.8585   19.8120 C.ar    1  UNL1        0.0114
     12 C           2.6166   -0.1625   18.8609 C.ar    1  UNL1        0.0599
     13 CL          3.6656   -0.9454   18.1284 Cl      1  UNL1       -0.0822
     14 C           2.4954    1.3165   18.6423 C.ar    1  UNL1        0.0408
     15 C           1.4463    2.0995   19.3748 C.ar    1  UNL1        0.1413
     16 F           1.3251    3.5786   19.1561 F       1  UNL1       -0.2043
     17 C          -6.6958    4.4471   19.0268 C.ar    1  UNL1        0.2250
     18 C          -5.4713    4.1319   18.2198 C.ar    1  UNL1        0.0580
     19 C          -4.1923    3.7625   18.9109 C.ar    1  UNL1        0.0137
     20 C          -4.1378    3.7083   20.4089 C.ar    1  UNL1        0.1014
     21 C          -5.3622    4.0235   21.2158 C.ar    1  UNL1        0.1094
     22 N          -6.6413    4.3929   20.5248 N.ar    1  UNL1       -0.2099
     23 C          -8.6801    6.0910   18.6943 C.3     1  UNL1        0.2542
     24 O          -7.9749    4.8166   18.3357 O.3     1  UNL1       -0.4561
     25 C           0.9786    2.2304   23.1727 C.2     1  UNL1        0.2527
     26 O           2.2125    3.0559   22.9582 O.2     1  UNL1       -0.2699
     27 N           1.0238    1.0353   24.0782 N.am    1  UNL1       -0.2836
     28 H           0.2139    0.4935   24.2190 H       1  UNL1        0.1549
     29 C           2.3028    0.6658   24.7691 C.2     1  UNL1        0.0322
     30 C           2.7721    1.4589   25.9528 C.2     1  UNL1        0.0122
     31 C           4.0513    1.0894   26.6437 C.2     1  UNL1        0.0216
     32 C           4.8611   -0.0732   26.1510 C.2     1  UNL1        0.1008
     33 N           6.1531   -0.6693   26.6256 N.2     1  UNL1       -0.1482
     34 N           6.4824   -1.8307   25.7353 N.2     1  UNL1       -0.1467
     35 C           5.3938   -1.9524   24.7105 C.2     1  UNL1        0.1198
     36 C           4.3918   -0.8661   24.9674 C.2     1  UNL1        0.0238
     37 C           3.1127   -0.4967   24.2765 C.3     1  UNL1        0.0707
@<TRIPOS>BOND
     1    23    24    1
     2    24    17    1
     3    17    18   ar
     4    18    19   ar
     5    19    20   ar
     6    20     1    1
     7     1     2    2
     8     2     3    1
     9     3     9    1
    10     9    10   ar
    11    10    11   ar
    12    11    12   ar
    13    12    13    1
    14    12    14   ar
    15    14    15   ar
    16    15    16    1
    17     3     4    1
    18     4    25    1
    19    25    26    2
    20    25    27   am
    21    27    29    1
    22    29    30    2
    23    30    31    1
    24    31    32    2
    25    32    33    1
    26    33    34    2
    27    34    35    1
    28    35    36    2
    29    36    37    1
    30     4     5    2
    31     5     6    1
    32     5     7    1
    33    20    21   ar
    34    21    22   ar
    35    22    17   ar
    36     7     1    1
    37    15     9   ar
    38    37    29    1
    39    36    32    1
    40    27    28    1
    41     7     8    1
