@<TRIPOS>MOLECULE
*****
 42 45 0 0 0
SMALL
GASTEIGER

@<TRIPOS>ATOM
      1 C           7.7962   -6.9294   25.6189 C.3     1  UNL1        0.0889
      2 C           8.5922   -6.7107   24.3666 C.3     1  UNL1        0.0383
      3 C           8.6630   -5.2338   24.1143 C.3     1  UNL1        0.0739
      4 N           7.9107   -4.5397   25.2107 N.3     1  UNL1       -0.2700
      5 C           7.3749   -5.5876   26.1406 C.3     1  UNL1        0.0919
      6 O           9.5201   -8.0054   27.8258 O.2     1  UNL1       -0.2733
      7 C           8.3392   -8.7948   27.3439 C.2     1  UNL1        0.2425
      8 N           7.4772   -8.2569   26.2405 N.am    1  UNL1       -0.3032
      9 H           6.7022   -8.7750   25.9242 H       1  UNL1        0.1495
     10 C           8.0203  -10.1222   27.9654 C.3     1  UNL1        0.1759
     11 N           6.6649  -10.7350   27.7712 N.am    1  UNL1       -0.2931
     12 C           6.4322  -12.1714   28.1350 C.2     1  UNL1        0.2462
     13 O           7.5548  -12.9952   28.6930 O.2     1  UNL1       -0.2701
     14 H           5.9281  -10.1944   27.4050 H       1  UNL1        0.1502
     15 C           5.0769  -12.7842   27.9409 C.ar    1  UNL1        0.0533
     16 C           4.7434  -13.4740   26.6514 C.ar    1  UNL1        0.0045
     17 C           3.3881  -14.0868   26.4573 C.ar    1  UNL1        0.0001
     18 C           2.3663  -14.0097   27.5528 C.ar    1  UNL1        0.0039
     19 C           2.6998  -13.3200   28.8423 C.ar    1  UNL1        0.0716
     20 C           4.0551  -12.7072   29.0364 C.ar    1  UNL1        0.0084
     21 C           1.6780  -13.2429   29.9377 C.3     1  UNL1        0.4186
     22 F           0.6562  -13.1659   31.0332 F       1  UNL1       -0.1659
     23 F           2.4839  -12.1739   30.6143 F       1  UNL1       -0.1659
     24 F           0.8721  -14.3119   29.2612 F       1  UNL1       -0.1659
     25 C           7.7265   -3.0578   25.3524 C.3     1  UNL1        0.0897
     26 C           6.3495   -2.4650   25.3021 C.3     1  UNL1        0.0897
     27 N           5.5909   -2.4392   24.0084 N.3     1  UNL1       -0.2686
     28 C           4.9910   -1.1554   23.5163 C.3     1  UNL1        0.0939
     29 C           4.2324   -1.1295   22.2224 C.3     1  UNL1        0.1110
     30 N           4.0736   -2.3874   21.4209 N.am    1  UNL1       -0.2732
     31 C           3.3150   -2.3615   20.1271 C.2     1  UNL1        0.2514
     32 O           3.1562   -3.6194   19.3255 O.2     1  UNL1       -0.2698
     33 C           4.6734   -3.6712   21.9130 C.3     1  UNL1        0.1110
     34 C           5.4320   -3.6970   23.2068 C.3     1  UNL1        0.0939
     35 C           2.7152   -1.0778   19.6349 C.ar    1  UNL1        0.0832
     36 C           1.3765   -0.6319   20.1437 C.ar    1  UNL1        0.0364
     37 C           0.7767    0.6519   19.6516 C.ar    1  UNL1        0.1404
     38 F          -0.5621    1.0978   20.1604 F       1  UNL1       -0.2042
     39 C           1.5157    1.4897   18.6506 C.ar    1  UNL1        0.0319
     40 C           2.8544    1.0438   18.1418 C.ar    1  UNL1        0.0321
     41 C           3.4542   -0.2400   18.6340 C.ar    1  UNL1        0.1446
     42 F           4.7929   -0.6858   18.1252 F       1  UNL1       -0.2040
@<TRIPOS>BOND
     1     6     7    2
     2     7    10    1
     3    10    11    1
     4    11    12   am
     5    12    13    2
     6    12    15    1
     7    15    16   ar
     8    16    17   ar
     9    17    18   ar
    10    18    19   ar
    11    19    21    1
    12    21    22    1
    13    21    23    1
    14    21    24    1
    15    19    20   ar
    16     7     8   am
    17     1     8    1
    18     1     2    1
    19     2     3    1
    20     3     4    1
    21     4    25    1
    22    25    26    1
    23    26    27    1
    24    27    28    1
    25    28    29    1
    26    29    30    1
    27    30    31   am
    28    31    32    2
    29    31    35    1
    30    35    36   ar
    31    36    37   ar
    32    37    38    1
    33    37    39   ar
    34    39    40   ar
    35    40    41   ar
    36    41    42    1
    37    30    33    1
    38    33    34    1
    39     4     5    1
    40    20    15   ar
    41     5     1    1
    42    34    27    1
    43    41    35   ar
    44    11    14    1
    45     8     9    1
@<TRIPOS>MOLECULE
*****
 42 45 0 0 0
SMALL
GASTEIGER

@<TRIPOS>ATOM
      1 C           7.2347   -6.4938   26.1038 C.3     1  UNL1        0.0889
      2 C           6.9013   -5.2422   26.8603 C.3     1  UNL1        0.0383
      3 C           7.2711   -4.0692   26.0017 C.3     1  UNL1        0.0739
      4 N           7.8332   -4.5958   24.7145 N.3     1  UNL1       -0.2700
      5 C           7.8107   -6.0943   24.7777 C.3     1  UNL1        0.0919
      6 O           9.3563   -7.8426   27.7408 O.2     1  UNL1       -0.2733
      7 C           8.0892   -8.5727   27.4069 C.2     1  UNL1        0.2425
      8 N           7.0285   -7.8984   26.5884 N.am    1  UNL1       -0.3032
      9 H           6.1969   -8.3776   26.3692 H       1  UNL1        0.1495
     10 C           7.8829   -9.9772   27.8914 C.3     1  UNL1        0.1759
     11 N           6.5471  -10.6393   27.7255 N.am    1  UNL1       -0.2931
     12 C           6.3785  -12.0871   28.0794 C.2     1  UNL1        0.2462
     13 O           7.5457  -12.8730   28.5991 O.2     1  UNL1       -0.2701
     14 H           5.7810  -10.1234   27.3844 H       1  UNL1        0.1502
     15 C           5.0427  -12.7491   27.9136 C.ar    1  UNL1        0.0533
     16 C           4.7319  -13.5066   26.6568 C.ar    1  UNL1        0.0045
     17 C           3.3962  -14.1686   26.4910 C.ar    1  UNL1        0.0001
     18 C           2.3712  -14.0730   27.5820 C.ar    1  UNL1        0.0039
     19 C           2.6820  -13.3155   28.8388 C.ar    1  UNL1        0.0716
     20 C           4.0177  -12.6536   29.0046 C.ar    1  UNL1        0.0084
     21 C           1.6570  -13.2200   29.9298 C.3     1  UNL1        0.4186
     22 F           0.6320  -13.1244   31.0208 F       1  UNL1       -0.1659
     23 F           2.5337  -12.2528   30.6687 F       1  UNL1       -0.1659
     24 F           0.7803  -14.1872   29.1909 F       1  UNL1       -0.1659
     25 C           8.3304   -3.7691   23.5659 C.3     1  UNL1        0.0897
     26 C           8.0529   -4.2000   22.1562 C.3     1  UNL1        0.0897
     27 N           7.5788   -3.1983   21.1454 N.3     1  UNL1       -0.2686
     28 C           6.3548   -2.3763   21.4213 C.3     1  UNL1        0.0939
     29 C           5.8806   -1.3745   20.4104 C.3     1  UNL1        0.1110
     30 N           6.6304   -1.1950   19.1237 N.am    1  UNL1       -0.2732
     31 C           6.1562   -0.1933   18.1129 C.2     1  UNL1        0.2514
     32 O           6.9059   -0.0137   16.8262 O.2     1  UNL1       -0.2698
     33 C           7.8544   -2.0171   18.8479 C.3     1  UNL1        0.1110
     34 C           8.3286   -3.0187   19.8587 C.3     1  UNL1        0.0939
     35 C           4.9322    0.6288   18.3887 C.ar    1  UNL1        0.0832
     36 C           3.5754    0.0955   18.0359 C.ar    1  UNL1        0.0364
     37 C           2.3514    0.9176   18.3118 C.ar    1  UNL1        0.1404
     38 F           0.9945    0.3843   17.9589 F       1  UNL1       -0.2042
     39 C           2.4843    2.2729   18.9405 C.ar    1  UNL1        0.0319
     40 C           3.8412    2.8062   19.2934 C.ar    1  UNL1        0.0321
     41 C           5.0652    1.9841   19.0175 C.ar    1  UNL1        0.1446
     42 F           6.4220    2.5174   19.3704 F       1  UNL1       -0.2040
@<TRIPOS>BOND
     1     6     7    2
     2     7    10    1
     3    10    11    1
     4    11    12   am
     5    12    13    2
     6    12    15    1
     7    15    16   ar
     8    16    17   ar
     9    17    18   ar
    10    18    19   ar
    11    19    21    1
    12    21    22    1
    13    21    23    1
    14    21    24    1
    15    19    20   ar
    16     7     8   am
    17     1     8    1
    18     1     2    1
    19     2     3    1
    20     3     4    1
    21     4    25    1
    22    25    26    1
    23    26    27    1
    24    27    28    1
    25    28    29    1
    26    29    30    1
    27    30    31   am
    28    31    32    2
    29    31    35    1
    30    35    36   ar
    31    36    37   ar
    32    37    38    1
    33    37    39   ar
    34    39    40   ar
    35    40    41   ar
    36    41    42    1
    37    30    33    1
    38    33    34    1
    39     4     5    1
    40    20    15   ar
    41     5     1    1
    42    34    27    1
    43    41    35   ar
    44    11    14    1
    45     8     9    1
@<TRIPOS>MOLECULE
*****
 42 45 0 0 0
SMALL
GASTEIGER

@<TRIPOS>ATOM
      1 C           8.3184   -6.1530   28.8286 C.3     1  UNL1        0.0889
      2 C           9.5359   -5.3646   29.2107 C.3     1  UNL1        0.0383
      3 C           9.2732   -3.9226   28.8920 C.3     1  UNL1        0.0739
      4 N           7.8932   -3.8198   28.3129 N.3     1  UNL1       -0.2700
      5 C           7.3032   -5.1983   28.2737 C.3     1  UNL1        0.0919
      6 O           8.6625   -7.9463   26.4483 O.2     1  UNL1       -0.2733
      7 C           8.3183   -8.5325   27.7854 C.2     1  UNL1        0.2425
      8 N           8.1463   -7.6359   28.9755 N.am    1  UNL1       -0.3032
      9 H           7.9205   -8.0207   29.8531 H       1  UNL1        0.1495
     10 C           8.1462  -10.0153   27.9324 C.3     1  UNL1        0.1759
     11 N           6.8028  -10.6411   27.7006 N.am    1  UNL1       -0.2931
     12 C           6.5439  -12.0490   28.1486 C.2     1  UNL1        0.2462
     13 O           7.6284  -12.8312   28.8284 O.2     1  UNL1       -0.2701
     14 H           6.0910  -10.1277   27.2545 H       1  UNL1        0.1502
     15 C           5.2004  -12.6747   27.9169 C.ar    1  UNL1        0.0533
     16 C           4.8957  -13.3320   26.6035 C.ar    1  UNL1        0.0045
     17 C           3.5523  -13.9577   26.3718 C.ar    1  UNL1        0.0001
     18 C           2.5136  -13.9262   27.4535 C.ar    1  UNL1        0.0039
     19 C           2.8183  -13.2689   28.7670 C.ar    1  UNL1        0.0716
     20 C           4.1617  -12.6432   28.9986 C.ar    1  UNL1        0.0084
     21 C           1.7797  -13.2374   29.8487 C.3     1  UNL1        0.4186
     22 F           0.7410  -13.2059   30.9304 F       1  UNL1       -0.1659
     23 F           1.0172  -14.3227   29.1482 F       1  UNL1       -0.1659
     24 F           2.5422  -12.1521   30.5492 F       1  UNL1       -0.1659
     25 C           7.2213   -2.5598   27.8537 C.3     1  UNL1        0.0897
     26 C           6.0491   -2.6322   26.9206 C.3     1  UNL1        0.0897
     27 N           6.2582   -2.9953   25.4804 N.3     1  UNL1       -0.2686
     28 C           5.5410   -2.2360   24.4037 C.3     1  UNL1        0.0939
     29 C           5.7501   -2.5992   22.9634 C.3     1  UNL1        0.1110
     30 N           6.6764   -3.7216   22.5999 N.am    1  UNL1       -0.2732
     31 C           6.8855   -4.0847   21.1595 C.2     1  UNL1        0.2514
     32 O           7.8118   -5.2072   20.7959 O.2     1  UNL1       -0.2698
     33 C           7.3936   -4.4809   23.6765 C.3     1  UNL1        0.1110
     34 C           7.1844   -4.1177   25.1168 C.3     1  UNL1        0.0939
     35 C           6.1684   -3.3254   20.0829 C.ar    1  UNL1        0.0832
     36 C           6.8906   -2.2668   19.3035 C.ar    1  UNL1        0.0364
     37 C           6.1735   -1.5075   18.2269 C.ar    1  UNL1        0.1404
     38 F           6.8957   -0.4488   17.4475 F       1  UNL1       -0.2042
     39 C           4.7340   -1.8069   17.9296 C.ar    1  UNL1        0.0319
     40 C           4.0118   -2.8657   18.7091 C.ar    1  UNL1        0.0321
     41 C           4.7289   -3.6249   19.7857 C.ar    1  UNL1        0.1446
     42 F           4.0067   -4.6836   20.5651 F       1  UNL1       -0.2040
@<TRIPOS>BOND
     1     6     7    2
     2     7    10    1
     3    10    11    1
     4    11    12   am
     5    12    13    2
     6    12    15    1
     7    15    16   ar
     8    16    17   ar
     9    17    18   ar
    10    18    19   ar
    11    19    21    1
    12    21    22    1
    13    21    23    1
    14    21    24    1
    15    19    20   ar
    16     7     8   am
    17     1     8    1
    18     1     2    1
    19     2     3    1
    20     3     4    1
    21     4    25    1
    22    25    26    1
    23    26    27    1
    24    27    28    1
    25    28    29    1
    26    29    30    1
    27    30    31   am
    28    31    32    2
    29    31    35    1
    30    35    36   ar
    31    36    37   ar
    32    37    38    1
    33    37    39   ar
    34    39    40   ar
    35    40    41   ar
    36    41    42    1
    37    30    33    1
    38    33    34    1
    39     4     5    1
    40    20    15   ar
    41     5     1    1
    42    34    27    1
    43    41    35   ar
    44    11    14    1
    45     8     9    1
@<TRIPOS>MOLECULE
*****
 42 45 0 0 0
SMALL
GASTEIGER

@<TRIPOS>ATOM
      1 C           7.9507   -6.0613   28.0638 C.3     1  UNL1        0.0889
      2 C           8.4160   -4.9833   28.9972 C.3     1  UNL1        0.0383
      3 C           8.5098   -3.7046   28.2185 C.3     1  UNL1        0.0739
      4 N           8.1026   -3.9924   26.8038 N.3     1  UNL1       -0.2700
      5 C           7.7570   -5.4490   26.7082 C.3     1  UNL1        0.0919
      6 O           9.1662   -8.2380   26.3951 O.2     1  UNL1       -0.2733
      7 C           8.3274   -8.5876   27.5885 C.2     1  UNL1        0.2425
      8 N           7.7197   -7.4993   28.4228 N.am    1  UNL1       -0.3032
      9 H           7.1692   -7.7288   29.2061 H       1  UNL1        0.1495
     10 C           8.0964  -10.0255   27.9476 C.3     1  UNL1        0.1759
     11 N           6.7389  -10.6362   27.7619 N.am    1  UNL1       -0.2931
     12 C           6.5289  -12.0956   28.0376 C.2     1  UNL1        0.2462
     13 O           7.6763  -12.9444   28.4991 O.2     1  UNL1       -0.2701
     14 H           5.9858  -10.0791   27.4591 H       1  UNL1        0.1502
     15 C           5.1714  -12.7062   27.8520 C.ar    1  UNL1        0.0533
     16 C           4.8177  -13.3674   26.5529 C.ar    1  UNL1        0.0045
     17 C           3.4603  -13.9780   26.3673 C.ar    1  UNL1        0.0001
     18 C           2.4565  -13.9274   27.4808 C.ar    1  UNL1        0.0039
     19 C           2.8102  -13.2662   28.7799 C.ar    1  UNL1        0.0716
     20 C           4.1676  -12.6556   28.9655 C.ar    1  UNL1        0.0084
     21 C           1.8064  -13.2156   29.8933 C.3     1  UNL1        0.4186
     22 F           0.8026  -13.1649   31.0068 F       1  UNL1       -0.1659
     23 F           2.5848  -12.1113   30.5449 F       1  UNL1       -0.1659
     24 F           1.0279  -14.3198   29.2418 F       1  UNL1       -0.1659
     25 C           8.0501   -2.9983   25.6818 C.3     1  UNL1        0.0897
     26 C           6.7262   -2.5015   25.1813 C.3     1  UNL1        0.0897
     27 N           5.8510   -1.6713   26.0728 N.3     1  UNL1       -0.2686
     28 C           4.3954   -1.5052   25.7510 C.3     1  UNL1        0.0939
     29 C           3.5201   -0.6750   26.6425 C.3     1  UNL1        0.1110
     30 N           4.1005   -0.0110   27.8558 N.am    1  UNL1       -0.2732
     31 C           3.2252    0.8192   28.7474 C.2     1  UNL1        0.2514
     32 O           3.8056    1.4832   29.9607 O.2     1  UNL1       -0.2698
     33 C           5.5561   -0.1771   28.1777 C.3     1  UNL1        0.1110
     34 C           6.4314   -1.0073   27.2862 C.3     1  UNL1        0.0939
     35 C           1.7696    0.9853   28.4255 C.ar    1  UNL1        0.0832
     36 C           0.7888   -0.0799   28.8165 C.ar    1  UNL1        0.0364
     37 C          -0.6668    0.0862   28.4946 C.ar    1  UNL1        0.1404
     38 F          -1.6478   -0.9792   28.8856 F       1  UNL1       -0.2042
     39 C          -1.1415    1.3176   27.7818 C.ar    1  UNL1        0.0319
     40 C          -0.1606    2.3830   27.3908 C.ar    1  UNL1        0.0321
     41 C           1.2951    2.2168   27.7126 C.ar    1  UNL1        0.1446
     42 F           2.2759    3.2821   27.3217 F       1  UNL1       -0.2040
@<TRIPOS>BOND
     1     6     7    2
     2     7    10    1
     3    10    11    1
     4    11    12   am
     5    12    13    2
     6    12    15    1
     7    15    16   ar
     8    16    17   ar
     9    17    18   ar
    10    18    19   ar
    11    19    21    1
    12    21    22    1
    13    21    23    1
    14    21    24    1
    15    19    20   ar
    16     7     8   am
    17     1     8    1
    18     1     2    1
    19     2     3    1
    20     3     4    1
    21     4    25    1
    22    25    26    1
    23    26    27    1
    24    27    28    1
    25    28    29    1
    26    29    30    1
    27    30    31   am
    28    31    32    2
    29    31    35    1
    30    35    36   ar
    31    36    37   ar
    32    37    38    1
    33    37    39   ar
    34    39    40   ar
    35    40    41   ar
    36    41    42    1
    37    30    33    1
    38    33    34    1
    39     4     5    1
    40    20    15   ar
    41     5     1    1
    42    34    27    1
    43    41    35   ar
    44    11    14    1
    45     8     9    1
@<TRIPOS>MOLECULE
*****
 42 45 0 0 0
SMALL
GASTEIGER

@<TRIPOS>ATOM
      1 C           7.9012   -5.9959   27.9919 C.3     1  UNL1        0.0889
      2 C           8.7364   -5.0083   28.7515 C.3     1  UNL1        0.0383
      3 C           8.6823   -3.6982   28.0230 C.3     1  UNL1        0.0739
      4 N           7.8136   -3.8761   26.8131 N.3     1  UNL1       -0.2700
      5 C           7.3308   -5.2962   26.7939 C.3     1  UNL1        0.0919
      6 O           9.2348   -8.1797   26.4258 O.2     1  UNL1       -0.2733
      7 C           8.3426   -8.5232   27.5817 C.2     1  UNL1        0.2425
      8 N           7.6758   -7.4313   28.3647 N.am    1  UNL1       -0.3032
      9 H           7.0903   -7.6567   29.1234 H       1  UNL1        0.1495
     10 C           8.1172   -9.9585   27.9545 C.3     1  UNL1        0.1759
     11 N           6.7739  -10.5886   27.7342 N.am    1  UNL1       -0.2931
     12 C           6.5378  -12.0129   28.1411 C.2     1  UNL1        0.2462
     13 O           7.6449  -12.8071   28.7684 O.2     1  UNL1       -0.2701
     14 H           6.0473  -10.0674   27.3224 H       1  UNL1        0.1502
     15 C           5.1945  -12.6430   27.9207 C.ar    1  UNL1        0.0533
     16 C           4.8845  -13.3105   26.6137 C.ar    1  UNL1        0.0045
     17 C           3.5412  -13.9406   26.3933 C.ar    1  UNL1        0.0001
     18 C           2.5080  -13.9032   27.4800 C.ar    1  UNL1        0.0039
     19 C           2.8179  -13.2358   28.7871 C.ar    1  UNL1        0.0716
     20 C           4.1612  -12.6057   29.0074 C.ar    1  UNL1        0.0084
     21 C           1.7846  -13.1984   29.8738 C.3     1  UNL1        0.4186
     22 F           0.7513  -13.1611   30.9605 F       1  UNL1       -0.1659
     23 F           2.5197  -12.0697   30.5339 F       1  UNL1       -0.1659
     24 F           1.0496  -14.3271   29.2136 F       1  UNL1       -0.1659
     25 C           7.4853   -2.8195   25.8003 C.3     1  UNL1        0.0897
     26 C           6.1999   -2.8920   25.0306 C.3     1  UNL1        0.0897
     27 N           5.1107   -1.8949   25.2940 N.3     1  UNL1       -0.2686
     28 C           4.6054   -1.6878   26.6910 C.3     1  UNL1        0.0939
     29 C           3.5161   -0.6906   26.9545 C.3     1  UNL1        0.1110
     30 N           2.9324    0.0994   25.8208 N.am    1  UNL1       -0.2732
     31 C           1.8431    1.0965   26.0843 C.2     1  UNL1        0.2514
     32 O           1.2593    1.8866   24.9507 O.2     1  UNL1       -0.2698
     33 C           3.4377   -0.1077   24.4238 C.3     1  UNL1        0.1110
     34 C           4.5269   -1.1049   24.1604 C.3     1  UNL1        0.0939
     35 C           1.3378    1.3037   27.4813 C.ar    1  UNL1        0.0832
     36 C           0.0272    0.7069   27.9010 C.ar    1  UNL1        0.0364
     37 C          -0.4782    0.9140   29.2980 C.ar    1  UNL1        0.1404
     38 F          -1.7888    0.3173   29.7177 F       1  UNL1       -0.2042
     39 C           0.3271    1.7179   30.2754 C.ar    1  UNL1        0.0319
     40 C           1.6378    2.3147   29.8557 C.ar    1  UNL1        0.0321
     41 C           2.1431    2.1076   28.4587 C.ar    1  UNL1        0.1446
     42 F           3.4537    2.7043   28.0390 F       1  UNL1       -0.2040
@<TRIPOS>BOND
     1     6     7    2
     2     7    10    1
     3    10    11    1
     4    11    12   am
     5    12    13    2
     6    12    15    1
     7    15    16   ar
     8    16    17   ar
     9    17    18   ar
    10    18    19   ar
    11    19    21    1
    12    21    22    1
    13    21    23    1
    14    21    24    1
    15    19    20   ar
    16     7     8   am
    17     1     8    1
    18     1     2    1
    19     2     3    1
    20     3     4    1
    21     4    25    1
    22    25    26    1
    23    26    27    1
    24    27    28    1
    25    28    29    1
    26    29    30    1
    27    30    31   am
    28    31    32    2
    29    31    35    1
    30    35    36   ar
    31    36    37   ar
    32    37    38    1
    33    37    39   ar
    34    39    40   ar
    35    40    41   ar
    36    41    42    1
    37    30    33    1
    38    33    34    1
    39     4     5    1
    40    20    15   ar
    41     5     1    1
    42    34    27    1
    43    41    35   ar
    44    11    14    1
    45     8     9    1
@<TRIPOS>MOLECULE
*****
 42 45 0 0 0
SMALL
GASTEIGER

@<TRIPOS>ATOM
      1 C           7.7081   -5.7080   27.9583 C.3     1  UNL1        0.0889
      2 C           8.6237   -4.6935   28.5768 C.3     1  UNL1        0.0383
      3 C           8.4216   -3.3902   27.8622 C.3     1  UNL1        0.0739
      4 N           7.3811   -3.5992   26.8021 N.3     1  UNL1       -0.2700
      5 C           6.9402   -5.0317   26.8615 C.3     1  UNL1        0.0919
      6 O           8.7114   -7.8741   26.1413 O.2     1  UNL1       -0.2733
      7 C           8.0841   -8.2293   27.4568 C.2     1  UNL1        0.2425
      8 N           7.5825   -7.1463   28.3653 N.am    1  UNL1       -0.3032
      9 H           7.1708   -7.3795   29.2286 H       1  UNL1        0.1495
     10 C           7.9584   -9.6676   27.8637 C.3     1  UNL1        0.1759
     11 N           6.6559  -10.3882   27.6791 N.am    1  UNL1       -0.2931
     12 C           6.5345  -11.8307   28.0721 C.2     1  UNL1        0.2462
     13 O           7.7157  -12.5526   28.6498 O.2     1  UNL1       -0.2701
     14 H           5.8806   -9.9144   27.3000 H       1  UNL1        0.1502
     15 C           5.2319  -12.5514   27.8875 C.ar    1  UNL1        0.0533
     16 C           4.9627  -13.3000   26.6160 C.ar    1  UNL1        0.0045
     17 C           3.6601  -14.0206   26.4314 C.ar    1  UNL1        0.0001
     18 C           2.6269  -13.9926   27.5184 C.ar    1  UNL1        0.0039
     19 C           2.8962  -13.2439   28.7900 C.ar    1  UNL1        0.0716
     20 C           4.1987  -12.5233   28.9746 C.ar    1  UNL1        0.0084
     21 C           1.8629  -13.2159   29.8770 C.3     1  UNL1        0.4186
     22 F           0.8297  -13.1879   30.9641 F       1  UNL1       -0.1659
     23 F           2.6187  -12.1192   30.5671 F       1  UNL1       -0.1659
     24 F           1.1072  -14.3126   29.1870 F       1  UNL1       -0.1659
     25 C           6.8712   -2.5585   25.8498 C.3     1  UNL1        0.0897
     26 C           6.6487   -1.1529   26.3238 C.3     1  UNL1        0.0897
     27 N           5.2725   -0.7023   26.7149 N.3     1  UNL1       -0.2686
     28 C           4.7168    0.5767   26.1624 C.3     1  UNL1        0.0939
     29 C           3.3406    1.0274   26.5536 C.3     1  UNL1        0.1110
     30 N           2.5202    0.1989   27.4973 N.am    1  UNL1       -0.2732
     31 C           1.1439    0.6495   27.8885 C.2     1  UNL1        0.2514
     32 O           0.3234   -0.1789   28.8322 O.2     1  UNL1       -0.2698
     33 C           3.0759   -1.0802   28.0498 C.3     1  UNL1        0.1110
     34 C           4.4521   -1.5307   27.6586 C.3     1  UNL1        0.0939
     35 C           0.5882    1.9285   27.3360 C.ar    1  UNL1        0.0832
     36 C           0.6965    3.1974   28.1283 C.ar    1  UNL1        0.0364
     37 C           0.1408    4.4765   27.5758 C.ar    1  UNL1        0.1404
     38 F           0.2492    5.7455   28.3682 F       1  UNL1       -0.2042
     39 C          -0.5233    4.4865   26.2309 C.ar    1  UNL1        0.0319
     40 C          -0.6316    3.2174   25.4385 C.ar    1  UNL1        0.0321
     41 C          -0.0759    1.9384   25.9910 C.ar    1  UNL1        0.1446
     42 F          -0.1843    0.6695   25.1986 F       1  UNL1       -0.2040
@<TRIPOS>BOND
     1     6     7    2
     2     7    10    1
     3    10    11    1
     4    11    12   am
     5    12    13    2
     6    12    15    1
     7    15    16   ar
     8    16    17   ar
     9    17    18   ar
    10    18    19   ar
    11    19    21    1
    12    21    22    1
    13    21    23    1
    14    21    24    1
    15    19    20   ar
    16     7     8   am
    17     1     8    1
    18     1     2    1
    19     2     3    1
    20     3     4    1
    21     4    25    1
    22    25    26    1
    23    26    27    1
    24    27    28    1
    25    28    29    1
    26    29    30    1
    27    30    31   am
    28    31    32    2
    29    31    35    1
    30    35    36   ar
    31    36    37   ar
    32    37    38    1
    33    37    39   ar
    34    39    40   ar
    35    40    41   ar
    36    41    42    1
    37    30    33    1
    38    33    34    1
    39     4     5    1
    40    20    15   ar
    41     5     1    1
    42    34    27    1
    43    41    35   ar
    44    11    14    1
    45     8     9    1
@<TRIPOS>MOLECULE
*****
 42 45 0 0 0
SMALL
GASTEIGER

@<TRIPOS>ATOM
      1 C           2.7633    0.4319   26.5455 C.3     1  UNL1        0.0889
      2 C           3.2746   -0.8574   27.1165 C.3     1  UNL1        0.0383
      3 C           3.3271   -0.7150   28.6088 C.3     1  UNL1        0.0739
      4 N           2.8483    0.6624   28.9601 N.3     1  UNL1       -0.2700
      5 C           2.4998    1.3713   27.6850 C.3     1  UNL1        0.0919
      6 O          -0.0073    0.9079   25.4980 O.2     1  UNL1       -0.2733
      7 C           1.1671    0.9677   24.5668 C.2     1  UNL1        0.2425
      8 N           2.5524    0.7298   25.0905 N.am    1  UNL1       -0.3032
      9 H           3.3232    0.7691   24.4794 H       1  UNL1        0.1495
     10 C           0.9563    1.2655   23.1119 C.3     1  UNL1        0.1759
     11 N           1.9008    0.7092   22.0879 N.am    1  UNL1       -0.2931
     12 C           1.3661    0.1177   20.8174 C.2     1  UNL1        0.2462
     13 O          -0.1130    0.0825   20.5708 O.2     1  UNL1       -0.2701
     14 H           2.8717    0.7324   22.2497 H       1  UNL1        0.1502
     15 C           2.3107   -0.4386   19.7934 C.ar    1  UNL1        0.0533
     16 C           2.7580    0.4147   18.6438 C.ar    1  UNL1        0.0045
     17 C           3.7025   -0.1416   17.6199 C.ar    1  UNL1        0.0001
     18 C           4.1996   -1.5513   17.7456 C.ar    1  UNL1        0.0039
     19 C           3.7523   -2.4046   18.8952 C.ar    1  UNL1        0.0716
     20 C           2.8078   -1.8482   19.9191 C.ar    1  UNL1        0.0084
     21 C           4.2494   -3.8142   19.0209 C.3     1  UNL1        0.4186
     22 F           4.7465   -5.2238   19.1467 F       1  UNL1       -0.1659
     23 F           5.6645   -3.3175   18.9948 F       1  UNL1       -0.1659
     24 F           2.8343   -4.3109   19.0470 F       1  UNL1       -0.1659
     25 C           2.7374    1.2311   30.3437 C.3     1  UNL1        0.0897
     26 C           3.9402    1.8373   31.0040 C.3     1  UNL1        0.0897
     27 N           3.9750    2.0001   32.4947 N.3     1  UNL1       -0.2686
     28 C           2.7414    1.7381   33.3068 C.3     1  UNL1        0.0939
     29 C           2.7762    1.9009   34.7976 C.3     1  UNL1        0.1110
     30 N           4.0448    2.3258   35.4761 N.am    1  UNL1       -0.2732
     31 C           4.0796    2.4886   36.9669 C.2     1  UNL1        0.2514
     32 O           5.3481    2.9134   37.6455 O.2     1  UNL1       -0.2698
     33 C           5.2784    2.5878   34.6640 C.3     1  UNL1        0.1110
     34 C           5.2435    2.4249   33.1733 C.3     1  UNL1        0.0939
     35 C           2.8460    2.2266   37.7790 C.ar    1  UNL1        0.0832
     36 C           2.6193    0.8725   38.3830 C.ar    1  UNL1        0.0364
     37 C           1.3856    0.6105   39.1951 C.ar    1  UNL1        0.1404
     38 F           1.1589   -0.7436   39.7992 F       1  UNL1       -0.2042
     39 C           0.3787    1.7027   39.4032 C.ar    1  UNL1        0.0319
     40 C           0.6055    3.0568   38.7991 C.ar    1  UNL1        0.0321
     41 C           1.8391    3.3188   37.9870 C.ar    1  UNL1        0.1446
     42 F           2.0658    4.6729   37.3830 F       1  UNL1       -0.2040
@<TRIPOS>BOND
     1     6     7    2
     2     7    10    1
     3    10    11    1
     4    11    12   am
     5    12    13    2
     6    12    15    1
     7    15    16   ar
     8    16    17   ar
     9    17    18   ar
    10    18    19   ar
    11    19    21    1
    12    21    22    1
    13    21    23    1
    14    21    24    1
    15    19    20   ar
    16     7     8   am
    17     1     8    1
    18     1     2    1
    19     2     3    1
    20     3     4    1
    21     4    25    1
    22    25    26    1
    23    26    27    1
    24    27    28    1
    25    28    29    1
    26    29    30    1
    27    30    31   am
    28    31    32    2
    29    31    35    1
    30    35    36   ar
    31    36    37   ar
    32    37    38    1
    33    37    39   ar
    34    39    40   ar
    35    40    41   ar
    36    41    42    1
    37    30    33    1
    38    33    34    1
    39     4     5    1
    40    20    15   ar
    41     5     1    1
    42    34    27    1
    43    41    35   ar
    44    11    14    1
    45     8     9    1
@<TRIPOS>MOLECULE
*****
 42 45 0 0 0
SMALL
GASTEIGER

@<TRIPOS>ATOM
      1 C           8.5185   -5.9241   24.4974 C.3     1  UNL1        0.0889
      2 C           7.9427   -7.2806   24.7768 C.3     1  UNL1        0.0383
      3 C           7.8241   -7.4364   26.2640 C.3     1  UNL1        0.0739
      4 N           8.3266   -6.1761   26.9037 N.3     1  UNL1       -0.2700
      5 C           8.7558   -5.2414   25.8118 C.3     1  UNL1        0.0919
      6 O           6.3603   -4.4894   22.9861 O.2     1  UNL1       -0.2733
      7 C           7.7274   -4.6334   22.3859 C.2     1  UNL1        0.2425
      8 N           8.8065   -5.3507   23.1415 N.am    1  UNL1       -0.3032
      9 H           9.7037   -5.4452   22.7475 H       1  UNL1        0.1495
     10 C           8.0154   -4.0601   21.0300 C.3     1  UNL1        0.1759
     11 N           7.1036   -3.0223   20.4454 N.am    1  UNL1       -0.2931
     12 C           5.8213   -3.4361   19.7863 C.2     1  UNL1        0.2462
     13 O           5.4508   -4.8877   19.7118 O.2     1  UNL1       -0.2701
     14 H           7.3468   -2.0696   20.4943 H       1  UNL1        0.1502
     15 C           4.9095   -2.3984   19.2016 C.ar    1  UNL1        0.0533
     16 C           5.2391   -1.7689   17.8806 C.ar    1  UNL1        0.0045
     17 C           4.3273   -0.7312   17.2961 C.ar    1  UNL1        0.0001
     18 C           3.0859   -0.3229   18.0325 C.ar    1  UNL1        0.0039
     19 C           2.7564   -0.9524   19.3535 C.ar    1  UNL1        0.0716
     20 C           3.6681   -1.9901   19.9381 C.ar    1  UNL1        0.0084
     21 C           1.5150   -0.5441   20.0900 C.3     1  UNL1        0.4186
     22 F           0.2737   -0.1359   20.8264 F       1  UNL1       -0.1659
     23 F           0.9551    0.0356   18.8249 F       1  UNL1       -0.1659
     24 F           2.0749   -1.1238   21.3551 F       1  UNL1       -0.1659
     25 C           8.3890   -5.8991   28.3765 C.3     1  UNL1        0.0897
     26 C           7.1234   -5.6996   29.1564 C.3     1  UNL1        0.0897
     27 N           6.8677   -4.3943   29.8499 N.3     1  UNL1       -0.2686
     28 C           6.8501   -4.3321   31.3485 C.3     1  UNL1        0.0939
     29 C           6.5944   -3.0268   32.0421 C.3     1  UNL1        0.1110
     30 N           6.3563   -1.7839   31.2369 N.am    1  UNL1       -0.2732
     31 C           6.1006   -0.4786   31.9304 C.2     1  UNL1        0.2514
     32 O           5.8625    0.7645   31.1253 O.2     1  UNL1       -0.2698
     33 C           6.3739   -1.8461   29.7383 C.3     1  UNL1        0.1110
     34 C           6.6295   -3.1513   29.0448 C.3     1  UNL1        0.0939
     35 C           6.0830   -0.4164   33.4290 C.ar    1  UNL1        0.0832
     36 C           7.3661   -0.2500   34.1878 C.ar    1  UNL1        0.0364
     37 C           7.3485   -0.1878   35.6864 C.ar    1  UNL1        0.1404
     38 F           8.6316   -0.0214   36.4453 F       1  UNL1       -0.2042
     39 C           6.0478   -0.2920   36.4262 C.ar    1  UNL1        0.0319
     40 C           4.7646   -0.4584   35.6673 C.ar    1  UNL1        0.0321
     41 C           4.7822   -0.5206   34.1687 C.ar    1  UNL1        0.1446
     42 F           3.4991   -0.6870   33.4099 F       1  UNL1       -0.2040
@<TRIPOS>BOND
     1     6     7    2
     2     7    10    1
     3    10    11    1
     4    11    12   am
     5    12    13    2
     6    12    15    1
     7    15    16   ar
     8    16    17   ar
     9    17    18   ar
    10    18    19   ar
    11    19    21    1
    12    21    22    1
    13    21    23    1
    14    21    24    1
    15    19    20   ar
    16     7     8   am
    17     1     8    1
    18     1     2    1
    19     2     3    1
    20     3     4    1
    21     4    25    1
    22    25    26    1
    23    26    27    1
    24    27    28    1
    25    28    29    1
    26    29    30    1
    27    30    31   am
    28    31    32    2
    29    31    35    1
    30    35    36   ar
    31    36    37   ar
    32    37    38    1
    33    37    39   ar
    34    39    40   ar
    35    40    41   ar
    36    41    42    1
    37    30    33    1
    38    33    34    1
    39     4     5    1
    40    20    15   ar
    41     5     1    1
    42    34    27    1
    43    41    35   ar
    44    11    14    1
    45     8     9    1
@<TRIPOS>MOLECULE
*****
 42 45 0 0 0
SMALL
GASTEIGER

@<TRIPOS>ATOM
      1 C           0.0978    1.3328   26.9314 C.3     1  UNL1        0.0889
      2 C          -0.8993    0.6124   27.7897 C.3     1  UNL1        0.0383
      3 C          -0.3516    0.5513   29.1848 C.3     1  UNL1        0.0739
      4 N           0.9841    1.2339   29.1887 N.3     1  UNL1       -0.2700
      5 C           1.2618    1.7169   27.7960 C.3     1  UNL1        0.0919
      6 O           2.0781    0.2000   24.9833 O.2     1  UNL1       -0.2733
      7 C           0.9460    1.0525   24.4917 C.2     1  UNL1        0.2425
      8 N          -0.0442    1.6188   25.4657 N.am    1  UNL1       -0.3032
      9 H          -0.7872    2.1783   25.1431 H       1  UNL1        0.1495
     10 C           0.8040    1.3385   23.0261 C.3     1  UNL1        0.1759
     11 N           1.7775    0.7487   22.0491 N.am    1  UNL1       -0.2931
     12 C           1.2885    0.2009   20.7411 C.2     1  UNL1        0.2462
     13 O          -0.1740    0.2430   20.4101 O.2     1  UNL1       -0.2701
     14 H           2.7373    0.7211   22.2663 H       1  UNL1        0.1502
     15 C           2.2619   -0.3889   19.7640 C.ar    1  UNL1        0.0533
     16 C           2.7686    0.4369   18.6190 C.ar    1  UNL1        0.0045
     17 C           3.7420   -0.1529   17.6420 C.ar    1  UNL1        0.0001
     18 C           4.2087   -1.5686   17.8101 C.ar    1  UNL1        0.0039
     19 C           3.7020   -2.3943   18.9551 C.ar    1  UNL1        0.0716
     20 C           2.7286   -1.8045   19.9321 C.ar    1  UNL1        0.0084
     21 C           4.1686   -3.8100   19.1232 C.3     1  UNL1        0.4186
     22 F           4.6353   -5.2256   19.2913 F       1  UNL1       -0.1659
     23 F           2.7599   -4.2950   18.9495 F       1  UNL1       -0.1659
     24 F           5.5774   -3.3249   19.2970 F       1  UNL1       -0.1659
     25 C           1.8840    1.4038   30.3766 C.3     1  UNL1        0.0897
     26 C           2.5686    0.2110   30.9755 C.3     1  UNL1        0.0897
     27 N           3.1829    0.3059   32.3407 N.3     1  UNL1       -0.2686
     28 C           2.8794    1.4829   33.2195 C.3     1  UNL1        0.0939
     29 C           3.4937    1.5779   34.5847 C.3     1  UNL1        0.1110
     30 N           4.4115    0.4956   35.0709 N.am    1  UNL1       -0.2732
     31 C           5.0259    0.5905   36.4361 C.2     1  UNL1        0.2514
     32 O           5.9437   -0.4917   36.9224 O.2     1  UNL1       -0.2698
     33 C           4.7150   -0.6815   34.1921 C.3     1  UNL1        0.1110
     34 C           4.1007   -0.7764   32.8270 C.3     1  UNL1        0.0939
     35 C           4.7224    1.7676   37.3149 C.ar    1  UNL1        0.0832
     36 C           5.6155    2.9723   37.2898 C.ar    1  UNL1        0.0364
     37 C           5.3120    4.1494   38.1687 C.ar    1  UNL1        0.1404
     38 F           6.2053    5.3543   38.1436 F       1  UNL1       -0.2042
     39 C           4.1153    4.1217   39.0726 C.ar    1  UNL1        0.0319
     40 C           3.2221    2.9169   39.0977 C.ar    1  UNL1        0.0321
     41 C           3.5256    1.7398   38.2188 C.ar    1  UNL1        0.1446
     42 F           2.6325    0.5350   38.2439 F       1  UNL1       -0.2040
@<TRIPOS>BOND
     1     6     7    2
     2     7    10    1
     3    10    11    1
     4    11    12   am
     5    12    13    2
     6    12    15    1
     7    15    16   ar
     8    16    17   ar
     9    17    18   ar
    10    18    19   ar
    11    19    21    1
    12    21    22    1
    13    21    23    1
    14    21    24    1
    15    19    20   ar
    16     7     8   am
    17     1     8    1
    18     1     2    1
    19     2     3    1
    20     3     4    1
    21     4    25    1
    22    25    26    1
    23    26    27    1
    24    27    28    1
    25    28    29    1
    26    29    30    1
    27    30    31   am
    28    31    32    2
    29    31    35    1
    30    35    36   ar
    31    36    37   ar
    32    37    38    1
    33    37    39   ar
    34    39    40   ar
    35    40    41   ar
    36    41    42    1
    37    30    33    1
    38    33    34    1
    39     4     5    1
    40    20    15   ar
    41     5     1    1
    42    34    27    1
    43    41    35   ar
    44    11    14    1
    45     8     9    1
