@<TRIPOS>MOLECULE
*****
 46 50 0 0 0
SMALL
GASTEIGER

@<TRIPOS>ATOM
      1 C          -3.3108    4.5870   24.4348 C.2     1  UNL1        0.2253
      2 O          -3.5268    4.8424   22.9726 O.2     1  UNL1       -0.2749
      3 N          -2.1820    3.7071   24.8837 N.am    1  UNL1       -0.2787
      4 C          -1.1931    3.0173   23.9912 C.3     1  UNL1        0.1014
      5 C          -0.2438    2.2463   24.8598 C.3     1  UNL1        0.0875
      6 C          -0.6460    2.4595   26.2891 C.3     1  UNL1        0.0507
      7 C          -1.8438    3.3623   26.3039 C.3     1  UNL1        0.0982
      8 C          -6.3914    7.7079   29.7282 C.3     1  UNL1        0.0948
      9 C          -6.9615    7.0855   28.4882 C.2     1  UNL1        0.2261
     10 O          -8.4442    7.0877   28.2616 O.2     1  UNL1       -0.2749
     11 N          -6.0488    6.4609   27.4748 N.am    1  UNL1       -0.2795
     12 C          -4.5661    6.4587   27.7015 C.3     1  UNL1        0.0939
     13 C          -3.6534    5.8341   26.6881 C.3     1  UNL1        0.0306
     14 C          -4.2234    5.2116   25.4482 C.3     1  UNL1        0.0801
     15 C          -5.7062    5.2138   25.2215 C.3     1  UNL1        0.0306
     16 C          -6.6189    5.8385   26.2349 C.3     1  UNL1        0.0939
     17 C           0.0307    1.8729   27.4923 C.ar    1  UNL1       -0.0242
     18 C          -0.3463    0.5023   27.9712 C.ar    1  UNL1       -0.0022
     19 C           0.3304   -0.0843   29.1745 C.ar    1  UNL1        0.0293
     20 C           1.3843    0.6997   29.8989 C.ar    1  UNL1        0.1398
     21 F           2.0611    0.1131   31.1021 F       1  UNL1       -0.2042
     22 C           1.7614    2.0702   29.4199 C.ar    1  UNL1        0.0251
     23 C           1.0846    2.6569   28.2167 C.ar    1  UNL1       -0.0235
     24 C           1.4617    4.0274   27.7378 C.3     1  UNL1        0.0308
     25 C           0.9058    1.4091   24.3829 C.ar    1  UNL1        0.1821
     26 N           2.0218    0.8778   25.2327 N.ar    1  UNL1       -0.0606
     27 O           2.9469    0.0965   24.3474 O.2     1  UNL1       -0.3370
     28 C           2.4026    0.1450   22.9504 C.ar    1  UNL1        0.2391
     29 N           1.1411    0.9562   22.9724 N.ar    1  UNL1       -0.1946
     30 C           3.0128   -0.5039   21.7435 C.3     1  UNL1        0.0901
     31 C           4.2530   -0.8042   22.5320 C.3     1  UNL1        0.0137
     32 C           1.7725   -0.2035   20.9550 C.3     1  UNL1        0.0137
     33 C           3.6229   -1.1527   20.5366 C.ar    1  UNL1       -0.0145
     34 C           3.6376   -2.6478   20.4157 C.ar    1  UNL1        0.0000
     35 C           4.2478   -3.2967   19.2088 C.ar    1  UNL1        0.0711
     36 C           4.8432   -2.4505   18.1227 C.ar    1  UNL1        0.0077
     37 C           4.8284   -0.9555   18.2436 C.ar    1  UNL1        0.0711
     38 C           4.2183   -0.3065   19.4506 C.ar    1  UNL1        0.0000
     39 C           4.2625   -4.7918   19.0878 C.3     1  UNL1        0.4186
     40 F           4.2773   -6.2868   18.9669 F       1  UNL1       -0.1659
     41 F           5.7423   -4.7970   19.3332 F       1  UNL1       -0.1659
     42 F           2.7827   -4.7865   18.8424 F       1  UNL1       -0.1659
     43 C           5.4239   -0.1093   17.1576 C.3     1  UNL1        0.4186
     44 F           6.0193    0.7369   16.0715 F       1  UNL1       -0.1659
     45 F           4.1899   -0.3060   16.3278 F       1  UNL1       -0.1659
     46 F           6.6578    0.0875   17.9874 F       1  UNL1       -0.1659
@<TRIPOS>BOND
     1     8     9    1
     2     9    10    2
     3     9    11   am
     4    11    12    1
     5    12    13    1
     6    13    14    1
     7    14     1    1
     8     1     2    2
     9     1     3   am
    10     3     4    1
    11     4     5    1
    12     5    25    1
    13    25    26   ar
    14    26    27   ar
    15    27    28   ar
    16    28    30    1
    17    30    31    1
    18    30    32    1
    19    30    33    1
    20    33    34   ar
    21    34    35   ar
    22    35    39    1
    23    39    40    1
    24    39    41    1
    25    39    42    1
    26    35    36   ar
    27    36    37   ar
    28    37    43    1
    29    43    44    1
    30    43    45    1
    31    43    46    1
    32    37    38   ar
    33    28    29   ar
    34     5     6    1
    35     6    17    1
    36    17    18   ar
    37    18    19   ar
    38    19    20   ar
    39    20    21    1
    40    20    22   ar
    41    22    23   ar
    42    23    24    1
    43     6     7    1
    44    14    15    1
    45    15    16    1
    46    16    11    1
    47     7     3    1
    48    29    25   ar
    49    23    17   ar
    50    38    33   ar
@<TRIPOS>MOLECULE
*****
 46 50 0 0 0
SMALL
GASTEIGER

@<TRIPOS>ATOM
      1 C          -3.6576    4.7239   24.1263 C.2     1  UNL1        0.2253
      2 O          -3.8499    4.9114   22.6506 O.2     1  UNL1       -0.2749
      3 N          -2.5317    3.8727   24.6337 N.am    1  UNL1       -0.2787
      4 C          -1.5235    3.1499   23.7904 C.3     1  UNL1        0.1014
      5 C          -0.5848    2.4252   24.7092 C.3     1  UNL1        0.0875
      6 C          -1.0129    2.7003   26.1203 C.3     1  UNL1        0.0507
      7 C          -2.2161    3.5948   26.0737 C.3     1  UNL1        0.0982
      8 C          -6.9243    7.7108   29.3853 C.3     1  UNL1        0.0948
      9 C          -7.3925    7.3790   27.9995 C.2     1  UNL1        0.2261
     10 O          -8.7944    7.7110   27.5819 O.2     1  UNL1       -0.2749
     11 N          -6.4587    6.7152   27.0312 N.am    1  UNL1       -0.2795
     12 C          -5.0568    6.3833   27.4488 C.3     1  UNL1        0.0939
     13 C          -4.1231    5.7195   26.4805 C.3     1  UNL1        0.0306
     14 C          -4.5913    5.3877   25.0946 C.3     1  UNL1        0.0801
     15 C          -5.9932    5.7197   24.6770 C.3     1  UNL1        0.0306
     16 C          -6.9269    6.3834   25.6453 C.3     1  UNL1        0.0939
     17 C          -0.3536    2.1733   27.3602 C.ar    1  UNL1       -0.0242
     18 C          -0.7617    0.8423   27.9188 C.ar    1  UNL1       -0.0022
     19 C          -0.1024    0.3152   29.1588 C.ar    1  UNL1        0.0293
     20 C           0.9651    1.1192   29.8401 C.ar    1  UNL1        0.1398
     21 F           1.6244    0.5922   31.0801 F       1  UNL1       -0.2042
     22 C           1.3732    2.4501   29.2815 C.ar    1  UNL1        0.0251
     23 C           0.7138    2.9772   28.0416 C.ar    1  UNL1       -0.0235
     24 C           1.1220    4.3081   27.4830 C.3     1  UNL1        0.0308
     25 C           0.5777    1.5749   24.2903 C.ar    1  UNL1        0.1821
     26 N           1.6399    1.0258   25.1959 N.ar    1  UNL1       -0.0606
     27 O           2.6008    0.2360   24.3576 O.2     1  UNL1       -0.3370
     28 C           2.1325    0.2970   22.9339 C.ar    1  UNL1        0.2391
     29 N           0.8821    1.1245   22.8923 N.ar    1  UNL1       -0.1946
     30 C           2.7978   -0.3551   21.7582 C.3     1  UNL1        0.0901
     31 C           3.9557   -0.7436   22.6289 C.3     1  UNL1        0.0137
     32 C           1.6397    0.0334   20.8875 C.3     1  UNL1        0.0137
     33 C           3.4630   -1.0071   20.5826 C.ar    1  UNL1       -0.0145
     34 C           4.0807   -0.1633   19.5072 C.ar    1  UNL1        0.0000
     35 C           4.7460   -0.8154   18.3315 C.ar    1  UNL1        0.0711
     36 C           4.7935   -2.3113   18.2312 C.ar    1  UNL1        0.0077
     37 C           4.1759   -3.1551   19.3065 C.ar    1  UNL1        0.0711
     38 C           3.5106   -2.5030   20.4823 C.ar    1  UNL1        0.0000
     39 C           5.3637    0.0285   17.2561 C.3     1  UNL1        0.4186
     40 F           5.9813    0.8723   16.1807 F       1  UNL1       -0.1659
     41 F           4.2442    1.0178   17.3894 F       1  UNL1       -0.1659
     42 F           6.4832   -0.9610   17.1228 F       1  UNL1       -0.1659
     43 C           4.2235   -4.6510   19.2062 C.3     1  UNL1        0.4186
     44 F           4.2710   -6.1468   19.1059 F       1  UNL1       -0.1659
     45 F           2.8049   -4.6634   18.7188 F       1  UNL1       -0.1659
     46 F           5.6420   -4.6385   19.6936 F       1  UNL1       -0.1659
@<TRIPOS>BOND
     1     8     9    1
     2     9    10    2
     3     9    11   am
     4    11    12    1
     5    12    13    1
     6    13    14    1
     7    14     1    1
     8     1     2    2
     9     1     3   am
    10     3     4    1
    11     4     5    1
    12     5    25    1
    13    25    26   ar
    14    26    27   ar
    15    27    28   ar
    16    28    30    1
    17    30    31    1
    18    30    32    1
    19    30    33    1
    20    33    34   ar
    21    34    35   ar
    22    35    39    1
    23    39    40    1
    24    39    41    1
    25    39    42    1
    26    35    36   ar
    27    36    37   ar
    28    37    43    1
    29    43    44    1
    30    43    45    1
    31    43    46    1
    32    37    38   ar
    33    28    29   ar
    34     5     6    1
    35     6    17    1
    36    17    18   ar
    37    18    19   ar
    38    19    20   ar
    39    20    21    1
    40    20    22   ar
    41    22    23   ar
    42    23    24    1
    43     6     7    1
    44    14    15    1
    45    15    16    1
    46    16    11    1
    47     7     3    1
    48    29    25   ar
    49    23    17   ar
    50    38    33   ar
@<TRIPOS>MOLECULE
*****
 46 50 0 0 0
SMALL
GASTEIGER

@<TRIPOS>ATOM
      1 C          -3.3646    4.1785   23.1682 C.2     1  UNL1        0.2253
      2 O          -3.2320    4.1981   21.6743 O.2     1  UNL1       -0.2749
      3 N          -2.2772    3.5794   24.0099 N.am    1  UNL1       -0.2787
      4 C          -1.0061    2.9658   23.5021 C.3     1  UNL1        0.1014
      5 C          -0.2131    2.4958   24.6856 C.3     1  UNL1        0.0875
      6 C          -0.9942    2.8191   25.9248 C.3     1  UNL1        0.0507
      7 C          -2.2698    3.4888   25.5072 C.3     1  UNL1        0.0982
      8 C          -8.1229    7.7058   26.6565 C.3     1  UNL1        0.0948
      9 C          -8.2451    6.4965   25.7774 C.2     1  UNL1        0.2261
     10 O          -9.5875    5.8668   25.5506 O.2     1  UNL1       -0.2749
     11 N          -7.0250    5.9170   25.1251 N.am    1  UNL1       -0.2795
     12 C          -5.6826    6.5468   25.3519 C.3     1  UNL1        0.0939
     13 C          -4.4625    5.9673   24.6996 C.3     1  UNL1        0.0306
     14 C          -4.5848    4.7580   23.8205 C.3     1  UNL1        0.0801
     15 C          -5.9271    4.1283   23.5938 C.3     1  UNL1        0.0306
     16 C          -7.1472    4.7078   24.2461 C.3     1  UNL1        0.0939
     17 C          -0.5735    2.5244   27.3340 C.ar    1  UNL1       -0.0242
     18 C          -0.9136    1.2032   27.9576 C.ar    1  UNL1       -0.0022
     19 C          -0.4929    0.9085   29.3669 C.ar    1  UNL1        0.0293
     20 C           0.2679    1.9350   30.1527 C.ar    1  UNL1        0.1398
     21 F           0.6886    1.6403   31.5620 F       1  UNL1       -0.2042
     22 C           0.6079    3.2562   29.5292 C.ar    1  UNL1        0.0251
     23 C           0.1872    3.5509   28.1198 C.ar    1  UNL1       -0.0235
     24 C           0.5273    4.8721   27.4964 C.3     1  UNL1        0.0308
     25 C           1.1257    1.8212   24.6382 C.ar    1  UNL1        0.1821
     26 N           2.3724    2.2865   25.3303 N.ar    1  UNL1       -0.0606
     27 O           3.4701    1.3156   25.0102 O.2     1  UNL1       -0.3370
     28 C           2.9018    0.2502   24.1203 C.ar    1  UNL1        0.2391
     29 N           1.4528    0.5627   23.8904 N.ar    1  UNL1       -0.1946
     30 C           3.6508   -0.9218   23.5589 C.3     1  UNL1        0.0901
     31 C           2.9399   -0.7489   22.2494 C.3     1  UNL1        0.0137
     32 C           4.3618   -1.0947   24.8684 C.3     1  UNL1        0.0137
     33 C           4.3999   -2.0938   22.9974 C.ar    1  UNL1       -0.0145
     34 C           4.1387   -2.5472   21.5916 C.ar    1  UNL1        0.0000
     35 C           4.8878   -3.7192   21.0302 C.ar    1  UNL1        0.0711
     36 C           5.8981   -4.4378   21.8745 C.ar    1  UNL1        0.0077
     37 C           6.1593   -3.9845   23.2803 C.ar    1  UNL1        0.0711
     38 C           5.4102   -2.8124   23.8418 C.ar    1  UNL1        0.0000
     39 C           4.6266   -4.1726   19.6244 C.3     1  UNL1        0.4186
     40 F           4.3655   -4.6260   18.2186 F       1  UNL1       -0.1659
     41 F           5.7449   -3.3007   19.1354 F       1  UNL1       -0.1659
     42 F           3.5083   -5.0446   20.1134 F       1  UNL1       -0.1659
     43 C           7.1696   -4.7031   24.1246 C.3     1  UNL1        0.4186
     44 F           8.1799   -5.4217   24.9689 F       1  UNL1       -0.1659
     45 F           6.5185   -4.1630   25.3633 F       1  UNL1       -0.1659
     46 F           7.8206   -5.2432   22.8859 F       1  UNL1       -0.1659
@<TRIPOS>BOND
     1     8     9    1
     2     9    10    2
     3     9    11   am
     4    11    12    1
     5    12    13    1
     6    13    14    1
     7    14     1    1
     8     1     2    2
     9     1     3   am
    10     3     4    1
    11     4     5    1
    12     5    25    1
    13    25    26   ar
    14    26    27   ar
    15    27    28   ar
    16    28    30    1
    17    30    31    1
    18    30    32    1
    19    30    33    1
    20    33    34   ar
    21    34    35   ar
    22    35    39    1
    23    39    40    1
    24    39    41    1
    25    39    42    1
    26    35    36   ar
    27    36    37   ar
    28    37    43    1
    29    43    44    1
    30    43    45    1
    31    43    46    1
    32    37    38   ar
    33    28    29   ar
    34     5     6    1
    35     6    17    1
    36    17    18   ar
    37    18    19   ar
    38    19    20   ar
    39    20    21    1
    40    20    22   ar
    41    22    23   ar
    42    23    24    1
    43     6     7    1
    44    14    15    1
    45    15    16    1
    46    16    11    1
    47     7     3    1
    48    29    25   ar
    49    23    17   ar
    50    38    33   ar
@<TRIPOS>MOLECULE
*****
 46 50 0 0 0
SMALL
GASTEIGER

@<TRIPOS>ATOM
      1 C           5.2869   -2.3184   24.3895 C.2     1  UNL1        0.2253
      2 O           6.0562   -3.3991   25.0896 O.2     1  UNL1       -0.2749
      3 N           4.3499   -1.4414   25.1659 N.am    1  UNL1       -0.2787
      4 C           4.0802   -1.5258   26.6391 C.3     1  UNL1        0.1014
      5 C           3.0816   -0.4625   26.9892 C.3     1  UNL1        0.0875
      6 C           2.7343    0.2790   25.7324 C.3     1  UNL1        0.0507
      7 C           3.5180   -0.3259   24.6056 C.3     1  UNL1        0.0982
      8 C           6.9632   -0.5152   17.9717 C.3     1  UNL1        0.0948
      9 C           5.9575   -1.5037   18.4830 C.2     1  UNL1        0.2261
     10 O           5.1195   -2.2885   17.5177 O.2     1  UNL1       -0.2749
     11 N           5.7898   -1.7073   19.9596 N.am    1  UNL1       -0.2795
     12 C           6.6278   -0.9225   20.9249 C.3     1  UNL1        0.0939
     13 C           6.4602   -1.1262   22.4015 C.3     1  UNL1        0.0306
     14 C           5.4545   -2.1147   22.9129 C.3     1  UNL1        0.0801
     15 C           4.6165   -2.8995   21.9476 C.3     1  UNL1        0.0306
     16 C           4.7842   -2.6958   20.4710 C.3     1  UNL1        0.0939
     17 C           1.7721    1.4243   25.6218 C.ar    1  UNL1       -0.0242
     18 C           0.3356    1.1664   25.2754 C.ar    1  UNL1       -0.0022
     19 C          -0.6267    2.3117   25.1648 C.ar    1  UNL1        0.0293
     20 C          -0.1524    3.7151   25.4007 C.ar    1  UNL1        0.1398
     21 F          -1.1146    4.8605   25.2902 F       1  UNL1       -0.2042
     22 C           1.2841    3.9731   25.7471 C.ar    1  UNL1        0.0251
     23 C           2.2463    2.8277   25.8577 C.ar    1  UNL1       -0.0235
     24 C           3.6827    3.0857   26.2041 C.3     1  UNL1        0.0308
     25 C           2.5278   -0.1889   28.3561 C.ar    1  UNL1        0.1821
     26 N           1.0816   -0.2488   28.7496 N.ar    1  UNL1       -0.0606
     27 O           0.9829    0.0958   30.2061 O.2     1  UNL1       -0.3370
     28 C           2.3681    0.3687   30.7128 C.ar    1  UNL1        0.2391
     29 N           3.3229    0.1928   29.5693 N.ar    1  UNL1       -0.1946
     30 C           2.7342    0.7505   32.1164 C.3     1  UNL1        0.0901
     31 C           3.7690   -0.3350   32.1417 C.3     1  UNL1        0.0137
     32 C           1.6993    1.8361   32.0911 C.3     1  UNL1        0.0137
     33 C           3.1003    1.1323   33.5200 C.ar    1  UNL1       -0.0145
     34 C           4.1933    0.3962   34.2366 C.ar    1  UNL1        0.0000
     35 C           4.5594    0.7780   35.6402 C.ar    1  UNL1        0.0711
     36 C           3.8325    1.8959   36.3273 C.ar    1  UNL1        0.0077
     37 C           2.7395    2.6320   35.6107 C.ar    1  UNL1        0.0711
     38 C           2.3734    2.2502   34.2070 C.ar    1  UNL1        0.0000
     39 C           5.6524    0.0419   36.3569 C.3     1  UNL1        0.4186
     40 F           6.7454   -0.6941   37.0735 F       1  UNL1       -0.1659
     41 F           5.7299   -0.9423   35.2277 F       1  UNL1       -0.1659
     42 F           5.5749    1.0263   37.4862 F       1  UNL1       -0.1659
     43 C           2.0126    3.7498   36.2977 C.3     1  UNL1        0.4186
     44 F           1.2857    4.8677   36.9847 F       1  UNL1       -0.1659
     45 F           1.3018    4.0745   35.0173 F       1  UNL1       -0.1659
     46 F           2.7234    3.4251   37.5781 F       1  UNL1       -0.1659
@<TRIPOS>BOND
     1     8     9    1
     2     9    10    2
     3     9    11   am
     4    11    12    1
     5    12    13    1
     6    13    14    1
     7    14     1    1
     8     1     2    2
     9     1     3   am
    10     3     4    1
    11     4     5    1
    12     5    25    1
    13    25    26   ar
    14    26    27   ar
    15    27    28   ar
    16    28    30    1
    17    30    31    1
    18    30    32    1
    19    30    33    1
    20    33    34   ar
    21    34    35   ar
    22    35    39    1
    23    39    40    1
    24    39    41    1
    25    39    42    1
    26    35    36   ar
    27    36    37   ar
    28    37    43    1
    29    43    44    1
    30    43    45    1
    31    43    46    1
    32    37    38   ar
    33    28    29   ar
    34     5     6    1
    35     6    17    1
    36    17    18   ar
    37    18    19   ar
    38    19    20   ar
    39    20    21    1
    40    20    22   ar
    41    22    23   ar
    42    23    24    1
    43     6     7    1
    44    14    15    1
    45    15    16    1
    46    16    11    1
    47     7     3    1
    48    29    25   ar
    49    23    17   ar
    50    38    33   ar
@<TRIPOS>MOLECULE
*****
 46 50 0 0 0
SMALL
GASTEIGER

@<TRIPOS>ATOM
      1 C          -0.6390    3.1444   22.6316 C.2     1  UNL1        0.2253
      2 O          -0.9078    3.8200   23.9436 O.2     1  UNL1       -0.2749
      3 N           0.5427    2.2321   22.4860 N.am    1  UNL1       -0.2787
      4 C           1.5383    1.9009   23.5581 C.3     1  UNL1        0.1014
      5 C           2.5473    0.9549   22.9774 C.3     1  UNL1        0.0875
      6 C           2.1753    0.7015   21.5465 C.3     1  UNL1        0.0507
      7 C           0.9365    1.4908   21.2428 C.3     1  UNL1        0.0982
      8 C          -5.7770    3.9923   18.1448 C.3     1  UNL1        0.0948
      9 C          -4.2910    4.0909   17.9661 C.2     1  UNL1        0.2261
     10 O          -3.7180    4.4262   16.6211 O.2     1  UNL1       -0.2749
     11 N          -3.3780    3.8543   19.1325 N.am    1  UNL1       -0.2795
     12 C          -3.9510    3.5190   20.4775 C.3     1  UNL1        0.0939
     13 C          -3.0380    3.2824   21.6439 C.3     1  UNL1        0.0306
     14 C          -1.5520    3.3810   21.4652 C.3     1  UNL1        0.0801
     15 C          -0.9790    3.7163   20.1202 C.3     1  UNL1        0.0306
     16 C          -1.8920    3.9530   18.9538 C.3     1  UNL1        0.0939
     17 C           2.9127   -0.1855   20.5877 C.ar    1  UNL1       -0.0242
     18 C           2.6996   -1.6698   20.6237 C.ar    1  UNL1       -0.0022
     19 C           3.4369   -2.5570   19.6648 C.ar    1  UNL1        0.0293
     20 C           4.3875   -1.9596   18.6700 C.ar    1  UNL1        0.1398
     21 F           5.1250   -2.8466   17.7111 F       1  UNL1       -0.2042
     22 C           4.6006   -0.4752   18.6340 C.ar    1  UNL1        0.0251
     23 C           3.8632    0.4118   19.5929 C.ar    1  UNL1       -0.0235
     24 C           4.0764    1.8961   19.5568 C.3     1  UNL1        0.0308
     25 C           3.7220    0.3659   23.7007 C.ar    1  UNL1        0.1821
     26 N           4.8613    1.1330   24.3035 N.ar    1  UNL1       -0.0606
     27 O           5.8070    0.1475   24.9234 O.2     1  UNL1       -0.3370
     28 C           5.2521   -1.2287   24.7038 C.ar    1  UNL1        0.2391
     29 N           3.9635   -1.0937   23.9480 N.ar    1  UNL1       -0.1946
     30 C           5.8764   -2.5141   25.1598 C.3     1  UNL1        0.0901
     31 C           6.1185   -1.9162   26.5139 C.3     1  UNL1        0.0137
     32 C           5.6342   -3.1122   23.8056 C.3     1  UNL1        0.0137
     33 C           6.5006   -3.7996   25.6158 C.ar    1  UNL1       -0.0145
     34 C           6.5054   -4.1555   27.0730 C.ar    1  UNL1        0.0000
     35 C           7.1296   -5.4409   27.5290 C.ar    1  UNL1        0.0711
     36 C           7.7490   -6.3705   26.5279 C.ar    1  UNL1        0.0077
     37 C           7.7442   -6.0146   25.0707 C.ar    1  UNL1        0.0711
     38 C           7.1200   -4.7291   24.6147 C.ar    1  UNL1        0.0000
     39 C           7.1344   -5.7969   28.9862 C.3     1  UNL1        0.4186
     40 F           7.1392   -6.1527   30.4433 F       1  UNL1       -0.1659
     41 F           6.3142   -4.5775   29.2867 F       1  UNL1       -0.1659
     42 F           7.9547   -7.0163   28.6856 F       1  UNL1       -0.1659
     43 C           8.3636   -6.9442   24.0696 C.3     1  UNL1        0.4186
     44 F           8.9830   -7.8737   23.0685 F       1  UNL1       -0.1659
     45 F           8.5104   -7.9918   25.1331 F       1  UNL1       -0.1659
     46 F           8.2168   -5.8966   23.0061 F       1  UNL1       -0.1659
@<TRIPOS>BOND
     1     8     9    1
     2     9    10    2
     3     9    11   am
     4    11    12    1
     5    12    13    1
     6    13    14    1
     7    14     1    1
     8     1     2    2
     9     1     3   am
    10     3     4    1
    11     4     5    1
    12     5    25    1
    13    25    26   ar
    14    26    27   ar
    15    27    28   ar
    16    28    30    1
    17    30    31    1
    18    30    32    1
    19    30    33    1
    20    33    34   ar
    21    34    35   ar
    22    35    39    1
    23    39    40    1
    24    39    41    1
    25    39    42    1
    26    35    36   ar
    27    36    37   ar
    28    37    43    1
    29    43    44    1
    30    43    45    1
    31    43    46    1
    32    37    38   ar
    33    28    29   ar
    34     5     6    1
    35     6    17    1
    36    17    18   ar
    37    18    19   ar
    38    19    20   ar
    39    20    21    1
    40    20    22   ar
    41    22    23   ar
    42    23    24    1
    43     6     7    1
    44    14    15    1
    45    15    16    1
    46    16    11    1
    47     7     3    1
    48    29    25   ar
    49    23    17   ar
    50    38    33   ar
@<TRIPOS>MOLECULE
*****
 46 50 0 0 0
SMALL
GASTEIGER

@<TRIPOS>ATOM
      1 C           5.3856   -2.4423   24.4384 C.2     1  UNL1        0.2253
      2 O           6.1724   -3.4917   25.1661 O.2     1  UNL1       -0.2749
      3 N           4.4356   -1.5598   25.1923 N.am    1  UNL1       -0.2787
      4 C           4.1684   -1.6092   26.6675 C.3     1  UNL1        0.1014
      5 C           3.1535   -0.5527   26.9905 C.3     1  UNL1        0.0875
      6 C           2.7935    0.1495   25.7148 C.3     1  UNL1        0.0507
      7 C           3.5858   -0.4729   24.6035 C.3     1  UNL1        0.0982
      8 C           6.8768   -0.6546   17.9707 C.3     1  UNL1        0.0948
      9 C           6.0386   -1.7748   18.5115 C.2     1  UNL1        0.2261
     10 O           5.3636   -2.7282   17.5705 O.2     1  UNL1       -0.2749
     11 N           5.8754   -1.9417   19.9932 N.am    1  UNL1       -0.2795
     12 C           6.5503   -0.9884   20.9342 C.3     1  UNL1        0.0939
     13 C           6.3871   -1.1552   22.4159 C.3     1  UNL1        0.0306
     14 C           5.5489   -2.2755   22.9566 C.3     1  UNL1        0.0801
     15 C           4.8739   -3.2288   22.0157 C.3     1  UNL1        0.0306
     16 C           5.0372   -3.0619   20.5339 C.3     1  UNL1        0.0939
     17 C           1.8134    1.2762   25.5749 C.ar    1  UNL1       -0.0242
     18 C           0.3828    0.9872   25.2285 C.ar    1  UNL1       -0.0022
     19 C          -0.5975    2.1139   25.0886 C.ar    1  UNL1        0.0293
     20 C          -0.1471    3.5298   25.2952 C.ar    1  UNL1        0.1398
     21 F          -1.1274    4.6565   25.1554 F       1  UNL1       -0.2042
     22 C           1.2834    3.8188   25.6417 C.ar    1  UNL1        0.0251
     23 C           2.2637    2.6920   25.7815 C.ar    1  UNL1       -0.0235
     24 C           3.6941    2.9811   26.1280 C.3     1  UNL1        0.0308
     25 C           2.5965   -0.2515   28.3502 C.ar    1  UNL1        0.1821
     26 N           1.1438   -0.2303   28.7230 N.ar    1  UNL1       -0.0606
     27 O           1.0439    0.1157   30.1791 O.2     1  UNL1       -0.3370
     28 C           2.4349    0.3084   30.7062 C.ar    1  UNL1        0.2391
     29 N           3.3946    0.0814   29.5759 N.ar    1  UNL1       -0.1946
     30 C           2.8019    0.6654   32.1161 C.3     1  UNL1        0.0901
     31 C           1.8635    1.8344   32.0644 C.3     1  UNL1        0.0137
     32 C           3.7404   -0.5037   32.1679 C.3     1  UNL1        0.0137
     33 C           3.1689    1.0223   33.5260 C.ar    1  UNL1       -0.0145
     34 C           2.4190    2.1042   34.2452 C.ar    1  UNL1        0.0000
     35 C           2.7859    2.4612   35.6551 C.ar    1  UNL1        0.0711
     36 C           3.9028    1.7363   36.3459 C.ar    1  UNL1        0.0077
     37 C           4.6528    0.6545   35.6267 C.ar    1  UNL1        0.0711
     38 C           4.2858    0.2975   34.2167 C.ar    1  UNL1        0.0000
     39 C           2.0360    3.5430   36.3744 C.3     1  UNL1        0.4186
     40 F           1.2861    4.6249   37.0935 F       1  UNL1       -0.1659
     41 F           1.6767    4.1683   35.0591 F       1  UNL1       -0.1659
     42 F           2.3953    2.9177   37.6897 F       1  UNL1       -0.1659
     43 C           5.7697   -0.0703   36.3175 C.3     1  UNL1        0.4186
     44 F           6.8866   -0.7952   37.0082 F       1  UNL1       -0.1659
     45 F           5.9782   -0.9140   35.0949 F       1  UNL1       -0.1659
     46 F           5.5612    0.7734   37.5400 F       1  UNL1       -0.1659
@<TRIPOS>BOND
     1     8     9    1
     2     9    10    2
     3     9    11   am
     4    11    12    1
     5    12    13    1
     6    13    14    1
     7    14     1    1
     8     1     2    2
     9     1     3   am
    10     3     4    1
    11     4     5    1
    12     5    25    1
    13    25    26   ar
    14    26    27   ar
    15    27    28   ar
    16    28    30    1
    17    30    31    1
    18    30    32    1
    19    30    33    1
    20    33    34   ar
    21    34    35   ar
    22    35    39    1
    23    39    40    1
    24    39    41    1
    25    39    42    1
    26    35    36   ar
    27    36    37   ar
    28    37    43    1
    29    43    44    1
    30    43    45    1
    31    43    46    1
    32    37    38   ar
    33    28    29   ar
    34     5     6    1
    35     6    17    1
    36    17    18   ar
    37    18    19   ar
    38    19    20   ar
    39    20    21    1
    40    20    22   ar
    41    22    23   ar
    42    23    24    1
    43     6     7    1
    44    14    15    1
    45    15    16    1
    46    16    11    1
    47     7     3    1
    48    29    25   ar
    49    23    17   ar
    50    38    33   ar
@<TRIPOS>MOLECULE
*****
 46 50 0 0 0
SMALL
GASTEIGER

@<TRIPOS>ATOM
      1 C          -0.4148    3.2294   22.2803 C.2     1  UNL1        0.2253
      2 O          -0.7102    3.9535   23.5603 O.2     1  UNL1       -0.2749
      3 N           0.7454    2.2818   22.2053 N.am    1  UNL1       -0.2787
      4 C           1.6934    1.9585   23.3220 C.3     1  UNL1        0.1014
      5 C           2.6954    0.9679   22.8072 C.3     1  UNL1        0.0875
      6 C           2.3666    0.6789   21.3725 C.3     1  UNL1        0.0507
      7 C           1.1615    1.4909   21.0005 C.3     1  UNL1        0.0982
      8 C          -3.2476    4.4501   16.1374 C.3     1  UNL1        0.0948
      9 C          -3.8744    4.1237   17.4604 C.2     1  UNL1        0.2261
     10 O          -5.3662    4.0209   17.5785 O.2     1  UNL1       -0.2749
     11 N          -3.0095    3.9001   18.6654 N.am    1  UNL1       -0.2795
     12 C          -1.5178    4.0030   18.5474 C.3     1  UNL1        0.0939
     13 C          -0.6529    3.7794   19.7523 C.3     1  UNL1        0.0306
     14 C          -1.2797    3.4530   21.0754 C.3     1  UNL1        0.0801
     15 C          -2.7715    3.3502   21.1934 C.3     1  UNL1        0.0306
     16 C          -3.6364    3.5738   19.9884 C.3     1  UNL1        0.0939
     17 C           3.1119   -0.2576   20.4685 C.ar    1  UNL1       -0.0242
     18 C           2.7458   -1.7117   20.4285 C.ar    1  UNL1       -0.0022
     19 C           3.4911   -2.6483   19.5246 C.ar    1  UNL1        0.0293
     20 C           4.6028   -2.1308   18.6605 C.ar    1  UNL1        0.1398
     21 F           5.3482   -3.0673   17.7565 F       1  UNL1       -0.2042
     22 C           4.9689   -0.6767   18.7005 C.ar    1  UNL1        0.0251
     23 C           4.2235    0.2599   19.6045 C.ar    1  UNL1       -0.0235
     24 C           4.5897    1.7139   19.6445 C.3     1  UNL1        0.0308
     25 C           3.8273    0.3710   23.5898 C.ar    1  UNL1        0.1821
     26 N           4.9032    1.1334   24.3050 N.ar    1  UNL1       -0.0606
     27 O           5.8229    0.1406   24.9518 O.2     1  UNL1       -0.3370
     28 C           5.3155   -1.2353   24.6364 C.ar    1  UNL1        0.2391
     29 N           4.0821   -1.0929   23.7946 N.ar    1  UNL1       -0.1946
     30 C           5.9330   -2.5268   25.0842 C.3     1  UNL1        0.0901
     31 C           6.2949   -1.8986   26.3973 C.3     1  UNL1        0.0137
     32 C           5.5712   -3.1552   23.7710 C.3     1  UNL1        0.0137
     33 C           6.5506   -3.8184   25.5319 C.ar    1  UNL1       -0.0145
     34 C           7.1629   -4.7459   24.5245 C.ar    1  UNL1        0.0000
     35 C           7.7804   -6.0375   24.9723 C.ar    1  UNL1        0.0711
     36 C           7.7857   -6.4015   26.4274 C.ar    1  UNL1        0.0077
     37 C           7.1734   -5.4741   27.4348 C.ar    1  UNL1        0.0711
     38 C           6.5558   -4.1825   26.9871 C.ar    1  UNL1        0.0000
     39 C           8.3928   -6.9650   23.9649 C.3     1  UNL1        0.4186
     40 F           9.0051   -7.8926   22.9576 F       1  UNL1       -0.1659
     41 F           8.4020   -8.0656   24.9839 F       1  UNL1       -0.1659
     42 F           8.3835   -5.8643   22.9458 F       1  UNL1       -0.1659
     43 C           7.1787   -5.8381   28.8899 C.3     1  UNL1        0.4186
     44 F           7.1839   -6.2022   30.3451 F       1  UNL1       -0.1659
     45 F           7.9942   -7.0587   28.5816 F       1  UNL1       -0.1659
     46 F           6.3631   -4.6176   29.1983 F       1  UNL1       -0.1659
@<TRIPOS>BOND
     1     8     9    1
     2     9    10    2
     3     9    11   am
     4    11    12    1
     5    12    13    1
     6    13    14    1
     7    14     1    1
     8     1     2    2
     9     1     3   am
    10     3     4    1
    11     4     5    1
    12     5    25    1
    13    25    26   ar
    14    26    27   ar
    15    27    28   ar
    16    28    30    1
    17    30    31    1
    18    30    32    1
    19    30    33    1
    20    33    34   ar
    21    34    35   ar
    22    35    39    1
    23    39    40    1
    24    39    41    1
    25    39    42    1
    26    35    36   ar
    27    36    37   ar
    28    37    43    1
    29    43    44    1
    30    43    45    1
    31    43    46    1
    32    37    38   ar
    33    28    29   ar
    34     5     6    1
    35     6    17    1
    36    17    18   ar
    37    18    19   ar
    38    19    20   ar
    39    20    21    1
    40    20    22   ar
    41    22    23   ar
    42    23    24    1
    43     6     7    1
    44    14    15    1
    45    15    16    1
    46    16    11    1
    47     7     3    1
    48    29    25   ar
    49    23    17   ar
    50    38    33   ar
@<TRIPOS>MOLECULE
*****
 46 50 0 0 0
SMALL
GASTEIGER

@<TRIPOS>ATOM
      1 C           1.1778    0.9583   22.1554 C.2     1  UNL1        0.2253
      2 O          -0.1835    1.4958   21.8268 O.2     1  UNL1       -0.2749
      3 N           1.6036    0.8192   23.5869 N.am    1  UNL1       -0.2787
      4 C           0.7812    1.1744   24.7900 C.3     1  UNL1        0.1014
      5 C           1.5960    0.8751   26.0134 C.3     1  UNL1        0.0875
      6 C           2.9220    0.3348   25.5664 C.3     1  UNL1        0.0507
      7 C           2.9268    0.3002   24.0668 C.3     1  UNL1        0.0982
      8 C           5.7074    0.4123   17.0141 C.3     1  UNL1        0.0948
      9 C           4.9195   -0.6348   17.7439 C.2     1  UNL1        0.2261
     10 O           5.0670   -2.0801   17.3709 O.2     1  UNL1       -0.2749
     11 N           3.9841   -0.2365   18.8468 N.am    1  UNL1       -0.2795
     12 C           3.8366    1.2088   19.2198 C.3     1  UNL1        0.0939
     13 C           2.9012    1.6071   20.3227 C.3     1  UNL1        0.0306
     14 C           2.1132    0.5601   21.0526 C.3     1  UNL1        0.0801
     15 C           2.2607   -0.8853   20.6795 C.3     1  UNL1        0.0306
     16 C           3.1961   -1.2836   19.5767 C.3     1  UNL1        0.0939
     17 C           4.0459   -0.0953   26.4617 C.ar    1  UNL1       -0.0242
     18 C           4.0876   -1.4978   26.9921 C.ar    1  UNL1       -0.0022
     19 C           5.2115   -1.9281   27.8875 C.ar    1  UNL1        0.0293
     20 C           6.2938   -0.9557   28.2525 C.ar    1  UNL1        0.1398
     21 F           7.4178   -1.3859   29.1479 F       1  UNL1       -0.2042
     22 C           6.2522    0.4468   27.7221 C.ar    1  UNL1        0.0251
     23 C           5.1282    0.8770   26.8267 C.ar    1  UNL1       -0.0235
     24 C           5.0866    2.2794   26.2964 C.3     1  UNL1        0.0308
     25 C           1.1611    1.0800   27.4343 C.ar    1  UNL1        0.1821
     26 N          -0.2558    1.1601   27.9198 N.ar    1  UNL1       -0.0606
     27 O          -0.2258    1.3704   29.4047 O.2     1  UNL1       -0.3370
     28 C           1.2097    1.4204   29.8368 C.ar    1  UNL1        0.2391
     29 N           2.0669    1.2409   28.6190 N.ar    1  UNL1       -0.1946
     30 C           1.7016    1.6155   31.2403 C.3     1  UNL1        0.0901
     31 C           2.8849    0.7416   30.9471 C.3     1  UNL1        0.0137
     32 C           0.5183    2.4895   31.5336 C.3     1  UNL1        0.0137
     33 C           2.1936    1.8107   32.6438 C.ar    1  UNL1       -0.0145
     34 C           3.2057    0.8665   33.2220 C.ar    1  UNL1        0.0000
     35 C           3.6976    1.0616   34.6255 C.ar    1  UNL1        0.0711
     36 C           3.1775    2.2010   35.4509 C.ar    1  UNL1        0.0077
     37 C           2.1654    3.1451   34.8729 C.ar    1  UNL1        0.0711
     38 C           1.6734    2.9500   33.4693 C.ar    1  UNL1        0.0000
     39 C           4.7097    0.1174   35.2036 C.3     1  UNL1        0.4186
     40 F           5.7218   -0.8267   35.7817 F       1  UNL1       -0.1659
     41 F           4.2566    0.4788   36.5870 F       1  UNL1       -0.1659
     42 F           5.1629   -0.2440   33.8200 F       1  UNL1       -0.1659
     43 C           1.6453    4.2845   35.6983 C.3     1  UNL1        0.4186
     44 F           1.1251    5.4238   36.5238 F       1  UNL1       -0.1659
     45 F           0.9316    4.8293   34.4967 F       1  UNL1       -0.1659
     46 F           2.3589    3.7397   36.8999 F       1  UNL1       -0.1659
@<TRIPOS>BOND
     1     8     9    1
     2     9    10    2
     3     9    11   am
     4    11    12    1
     5    12    13    1
     6    13    14    1
     7    14     1    1
     8     1     2    2
     9     1     3   am
    10     3     4    1
    11     4     5    1
    12     5    25    1
    13    25    26   ar
    14    26    27   ar
    15    27    28   ar
    16    28    30    1
    17    30    31    1
    18    30    32    1
    19    30    33    1
    20    33    34   ar
    21    34    35   ar
    22    35    39    1
    23    39    40    1
    24    39    41    1
    25    39    42    1
    26    35    36   ar
    27    36    37   ar
    28    37    43    1
    29    43    44    1
    30    43    45    1
    31    43    46    1
    32    37    38   ar
    33    28    29   ar
    34     5     6    1
    35     6    17    1
    36    17    18   ar
    37    18    19   ar
    38    19    20   ar
    39    20    21    1
    40    20    22   ar
    41    22    23   ar
    42    23    24    1
    43     6     7    1
    44    14    15    1
    45    15    16    1
    46    16    11    1
    47     7     3    1
    48    29    25   ar
    49    23    17   ar
    50    38    33   ar
@<TRIPOS>MOLECULE
*****
 46 50 0 0 0
SMALL
GASTEIGER

@<TRIPOS>ATOM
      1 C           1.0829    1.1605   22.1326 C.2     1  UNL1        0.2253
      2 O          -0.2712    1.7292   21.8280 O.2     1  UNL1       -0.2749
      3 N           1.5127    0.9686   23.5569 N.am    1  UNL1       -0.2787
      4 C           0.7010    1.2974   24.7747 C.3     1  UNL1        0.1014
      5 C           1.5163    0.9462   25.9839 C.3     1  UNL1        0.0875
      6 C           2.8319    0.4004   25.5133 C.3     1  UNL1        0.0507
      7 C           2.8297    0.4143   24.0134 C.3     1  UNL1        0.0982
      8 C           5.7191    0.6737   17.0810 C.3     1  UNL1        0.0948
      9 C           4.7806   -0.3464   17.6542 C.2     1  UNL1        0.2261
     10 O           4.7665   -1.7432   17.1077 O.2     1  UNL1       -0.2749
     11 N           3.8562    0.0303   18.7738 N.am    1  UNL1       -0.2795
     12 C           3.8703    1.4272   19.3202 C.3     1  UNL1        0.0939
     13 C           2.9459    1.8039   20.4399 C.3     1  UNL1        0.0306
     14 C           2.0073    0.7838   21.0130 C.3     1  UNL1        0.0801
     15 C           1.9932   -0.6130   20.4666 C.3     1  UNL1        0.0306
     16 C           2.9177   -0.9897   19.3470 C.3     1  UNL1        0.0939
     17 C           3.9528   -0.0756   26.3889 C.ar    1  UNL1       -0.0242
     18 C           3.9715   -1.4932   26.8791 C.ar    1  UNL1       -0.0022
     19 C           5.0925   -1.9693   27.7547 C.ar    1  UNL1        0.0293
     20 C           6.1948   -1.0278   28.1402 C.ar    1  UNL1        0.1398
     21 F           7.3158   -1.5039   29.0159 F       1  UNL1       -0.2042
     22 C           6.1761    0.3897   27.6501 C.ar    1  UNL1        0.0251
     23 C           5.0551    0.8658   26.7744 C.ar    1  UNL1       -0.0235
     24 C           5.0365    2.2833   26.2843 C.3     1  UNL1        0.0308
     25 C           1.0908    1.1118   27.4127 C.ar    1  UNL1        0.1821
     26 N          -0.3216    1.1102   27.9178 N.ar    1  UNL1       -0.0606
     27 O          -0.2824    1.3054   29.4045 O.2     1  UNL1       -0.3370
     28 C           1.1542    1.4277   29.8182 C.ar    1  UNL1        0.2391
     29 N           2.0029    1.3081   28.5871 N.ar    1  UNL1       -0.1946
     30 C           1.6543    1.6336   31.2173 C.3     1  UNL1        0.0901
     31 C           0.7026    2.7802   31.3888 C.3     1  UNL1        0.0137
     32 C           2.6061    0.4869   31.0458 C.3     1  UNL1        0.0137
     33 C           2.1545    1.8394   32.6164 C.ar    1  UNL1       -0.0145
     34 C           1.6351    2.9818   33.4381 C.ar    1  UNL1        0.0000
     35 C           2.1352    3.1877   34.8371 C.ar    1  UNL1        0.0711
     36 C           3.1547    2.2511   35.4146 C.ar    1  UNL1        0.0077
     37 C           3.6741    1.1087   34.5930 C.ar    1  UNL1        0.0711
     38 C           3.1740    0.9028   33.1938 C.ar    1  UNL1        0.0000
     39 C           1.6158    4.3301   35.6588 C.3     1  UNL1        0.4186
     40 F           1.0964    5.4725   36.4805 F       1  UNL1       -0.1659
     41 F           1.7706    3.5059   36.9025 F       1  UNL1       -0.1659
     42 F           1.4610    5.1543   34.4151 F       1  UNL1       -0.1659
     43 C           4.6936    0.1722   35.1704 C.3     1  UNL1        0.4186
     44 F           5.7131   -0.7644   35.7479 F       1  UNL1       -0.1659
     45 F           5.2394    1.2862   36.0136 F       1  UNL1       -0.1659
     46 F           4.1477   -0.9419   34.3273 F       1  UNL1       -0.1659
@<TRIPOS>BOND
     1     8     9    1
     2     9    10    2
     3     9    11   am
     4    11    12    1
     5    12    13    1
     6    13    14    1
     7    14     1    1
     8     1     2    2
     9     1     3   am
    10     3     4    1
    11     4     5    1
    12     5    25    1
    13    25    26   ar
    14    26    27   ar
    15    27    28   ar
    16    28    30    1
    17    30    31    1
    18    30    32    1
    19    30    33    1
    20    33    34   ar
    21    34    35   ar
    22    35    39    1
    23    39    40    1
    24    39    41    1
    25    39    42    1
    26    35    36   ar
    27    36    37   ar
    28    37    43    1
    29    43    44    1
    30    43    45    1
    31    43    46    1
    32    37    38   ar
    33    28    29   ar
    34     5     6    1
    35     6    17    1
    36    17    18   ar
    37    18    19   ar
    38    19    20   ar
    39    20    21    1
    40    20    22   ar
    41    22    23   ar
    42    23    24    1
    43     6     7    1
    44    14    15    1
    45    15    16    1
    46    16    11    1
    47     7     3    1
    48    29    25   ar
    49    23    17   ar
    50    38    33   ar
