@<TRIPOS>MOLECULE
*****
 21 23 0 0 0
SMALL
GASTEIGER

@<TRIPOS>ATOM
      1 C          -8.5314  -16.7851   22.2505 C.2     1  UNL1        0.2494
      2 O          -7.7702  -15.5631   21.8298 O.2     1  UNL1       -0.2699
      3 N          -8.6216  -17.1495   23.7028 N.am    1  UNL1       -0.2779
      4 C         -10.6049  -17.3351   20.7848 C.ar    1  UNL1        0.0296
      5 C         -11.2760  -18.1927   19.7534 C.ar    1  UNL1        0.0063
      6 C         -10.5447  -19.3582   19.1561 C.ar    1  UNL1        0.0005
      7 C          -9.1423  -19.6660   19.5903 C.ar    1  UNL1        0.0002
      8 C          -8.4712  -18.8084   20.6217 C.ar    1  UNL1        0.0050
      9 C          -9.2025  -17.6429   21.2190 C.ar    1  UNL1        0.0592
     10 C         -12.3665  -16.3971   22.4484 C.3     1  UNL1        0.0742
     11 S         -11.3362  -16.1695   21.3822 S.3     1  UNL1       -0.1126
     12 C          -7.9505  -16.2918   24.7343 C.3     1  UNL1        0.0926
     13 C          -8.3986  -16.1065   26.1538 C.3     1  UNL1        0.0383
     14 C          -7.4386  -15.1690   26.8242 C.3     1  UNL1        0.0704
     15 N          -6.3972  -14.7749   25.8191 N.3     1  UNL1       -0.2960
     16 C          -6.7136  -15.4689   24.5275 C.3     1  UNL1        0.0887
     17 H          -5.4742  -15.0588   26.1475 H       1  UNL1        0.1233
     18 C          -9.3829  -18.3716   24.1236 C.3     1  UNL1        0.0756
     19 C          -9.1700  -19.8508   23.9938 C.3     1  UNL1        0.0199
     20 C         -10.4595  -20.0999   24.7186 C.3     1  UNL1        0.0034
     21 C         -10.6723  -18.6207   24.8483 C.3     1  UNL1        0.0199
@<TRIPOS>BOND
     1    10    11    1
     2    11     4    1
     3     4     5   ar
     4     5     6   ar
     5     6     7   ar
     6     7     8   ar
     7     8     9   ar
     8     9     1    1
     9     1     2    2
    10     1     3   am
    11     3    18    1
    12    18    19    1
    13    19    20    1
    14    20    21    1
    15    12     3    1
    16    12    13    1
    17    13    14    1
    18    14    15    1
    19    15    16    1
    20     9     4   ar
    21    21    18    1
    22    16    12    1
    23    15    17    1
@<TRIPOS>MOLECULE
*****
 21 23 0 0 0
SMALL
GASTEIGER

@<TRIPOS>ATOM
      1 C          -8.4932  -16.9418   22.3042 C.2     1  UNL1        0.2494
      2 O          -7.6853  -15.7310   21.9420 O.2     1  UNL1       -0.2699
      3 N          -8.7171  -17.2903   23.7459 N.am    1  UNL1       -0.2779
      4 C          -8.2379  -18.8642   20.5752 C.ar    1  UNL1        0.0296
      5 C          -8.8218  -19.7265   19.4958 C.ar    1  UNL1        0.0063
      6 C         -10.2452  -19.5288   19.0657 C.ar    1  UNL1        0.0005
      7 C         -11.0845  -18.4688   19.7151 C.ar    1  UNL1        0.0002
      8 C         -10.5006  -17.6064   20.7946 C.ar    1  UNL1        0.0050
      9 C          -9.0772  -17.8041   21.2247 C.ar    1  UNL1        0.0592
     10 C          -6.4491  -20.2271   21.8764 C.3     1  UNL1        0.0742
     11 S          -6.8145  -19.0619   21.0053 S.3     1  UNL1       -0.1126
     12 C          -8.1332  -16.4280   24.8254 C.3     1  UNL1        0.0926
     13 C          -8.6524  -16.2968   26.2265 C.3     1  UNL1        0.0383
     14 C          -7.7676  -15.3332   26.9604 C.3     1  UNL1        0.0704
     15 N          -6.7014  -14.8689   26.0128 N.3     1  UNL1       -0.2960
     16 C          -6.9274  -15.5455   24.6933 C.3     1  UNL1        0.0887
     17 H          -5.7820  -15.1187   26.3769 H       1  UNL1        0.1233
     18 C          -9.5251  -18.5012   24.1080 C.3     1  UNL1        0.0756
     19 C         -10.9179  -18.7347   24.6136 C.3     1  UNL1        0.0199
     20 C         -10.6676  -20.2136   24.6201 C.3     1  UNL1        0.0034
     21 C          -9.2748  -19.9801   24.1145 C.3     1  UNL1        0.0199
@<TRIPOS>BOND
     1    10    11    1
     2    11     4    1
     3     4     5   ar
     4     5     6   ar
     5     6     7   ar
     6     7     8   ar
     7     8     9   ar
     8     9     1    1
     9     1     2    2
    10     1     3   am
    11     3    18    1
    12    18    19    1
    13    19    20    1
    14    20    21    1
    15    12     3    1
    16    12    13    1
    17    13    14    1
    18    14    15    1
    19    15    16    1
    20     9     4   ar
    21    21    18    1
    22    16    12    1
    23    15    17    1
@<TRIPOS>MOLECULE
*****
 21 23 0 0 0
SMALL
GASTEIGER

@<TRIPOS>ATOM
      1 C          -9.1611  -18.5511   21.4672 C.2     1  UNL1        0.2494
      2 O          -9.1323  -19.6563   20.4534 O.2     1  UNL1       -0.2699
      3 N          -7.8768  -17.9950   22.0070 N.am    1  UNL1       -0.2779
      4 C         -11.2465  -18.7205   23.0075 C.ar    1  UNL1        0.0296
      5 C         -12.5594  -18.1714   23.4814 C.ar    1  UNL1        0.0063
      6 C         -13.1000  -16.9039   22.8890 C.ar    1  UNL1        0.0005
      7 C         -12.3276  -16.1854   21.8226 C.ar    1  UNL1        0.0002
      8 C         -11.0147  -16.7345   21.3486 C.ar    1  UNL1        0.0050
      9 C         -10.4741  -18.0020   21.9411 C.ar    1  UNL1        0.0592
     10 C         -10.0345  -19.9624   24.9411 C.3     1  UNL1        0.0742
     11 S         -10.7058  -19.9881   23.6000 S.3     1  UNL1       -0.1126
     12 C          -6.5639  -18.5441   21.5332 C.3     1  UNL1        0.0926
     13 C          -5.3480  -18.7764   22.3803 C.3     1  UNL1        0.0383
     14 C          -4.2689  -19.3331   21.4997 C.3     1  UNL1        0.0704
     15 N          -4.8178  -19.4449   20.1082 N.3     1  UNL1       -0.2960
     16 C          -6.2362  -18.9573   20.1289 C.3     1  UNL1        0.0887
     17 H          -4.7907  -20.4176   19.8024 H       1  UNL1        0.1233
     18 C          -7.9056  -16.8898   23.0208 C.3     1  UNL1        0.0756
     19 C          -8.4281  -16.7468   24.4196 C.3     1  UNL1        0.0199
     20 C          -7.9462  -15.3267   24.4544 C.3     1  UNL1        0.0034
     21 C          -7.4237  -15.4697   23.0556 C.3     1  UNL1        0.0199
@<TRIPOS>BOND
     1    10    11    1
     2    11     4    1
     3     4     5   ar
     4     5     6   ar
     5     6     7   ar
     6     7     8   ar
     7     8     9   ar
     8     9     1    1
     9     1     2    2
    10     1     3   am
    11     3    18    1
    12    18    19    1
    13    19    20    1
    14    20    21    1
    15    12     3    1
    16    12    13    1
    17    13    14    1
    18    14    15    1
    19    15    16    1
    20     9     4   ar
    21    21    18    1
    22    16    12    1
    23    15    17    1
@<TRIPOS>MOLECULE
*****
 21 23 0 0 0
SMALL
GASTEIGER

@<TRIPOS>ATOM
      1 C          -9.3571  -19.0378   21.7718 C.2     1  UNL1        0.2494
      2 O          -9.2850  -20.2349   20.8709 O.2     1  UNL1       -0.2699
      3 N          -8.1101  -18.2734   22.1046 N.am    1  UNL1       -0.2779
      4 C         -11.5976  -17.7455   21.5263 C.ar    1  UNL1        0.0296
      5 C         -12.9166  -17.3128   22.0944 C.ar    1  UNL1        0.0063
      6 C         -13.3143  -17.7397   23.4763 C.ar    1  UNL1        0.0005
      7 C         -12.3929  -18.5992   24.2900 C.ar    1  UNL1        0.0002
      8 C         -11.0738  -19.0319   23.7219 C.ar    1  UNL1        0.0050
      9 C         -10.6762  -18.6051   22.3400 C.ar    1  UNL1        0.0592
     10 C         -11.4624  -15.9139   19.6886 C.3     1  UNL1        0.0742
     11 S         -11.1999  -17.3187   20.1443 S.3     1  UNL1       -0.1126
     12 C          -6.7910  -18.7060   21.5365 C.3     1  UNL1        0.0926
     13 C          -5.5316  -18.9453   22.3152 C.3     1  UNL1        0.0383
     14 C          -4.4620  -19.3625   21.3498 C.3     1  UNL1        0.0704
     15 N          -5.0604  -19.3811   19.9745 N.3     1  UNL1       -0.2960
     16 C          -6.4998  -18.9753   20.0898 C.3     1  UNL1        0.0887
     17 H          -4.9959  -20.3201   19.5815 H       1  UNL1        0.1233
     18 C          -8.1823  -17.0762   23.0056 C.3     1  UNL1        0.0756
     19 C          -8.4479  -16.8626   24.4664 C.3     1  UNL1        0.0199
     20 C          -8.2843  -15.3832   24.2797 C.3     1  UNL1        0.0034
     21 C          -8.0186  -15.5969   22.8190 C.3     1  UNL1        0.0199
@<TRIPOS>BOND
     1    10    11    1
     2    11     4    1
     3     4     5   ar
     4     5     6   ar
     5     6     7   ar
     6     7     8   ar
     7     8     9   ar
     8     9     1    1
     9     1     2    2
    10     1     3   am
    11     3    18    1
    12    18    19    1
    13    19    20    1
    14    20    21    1
    15    12     3    1
    16    12    13    1
    17    13    14    1
    18    14    15    1
    19    15    16    1
    20     9     4   ar
    21    21    18    1
    22    16    12    1
    23    15    17    1
@<TRIPOS>MOLECULE
*****
 21 23 0 0 0
SMALL
GASTEIGER

@<TRIPOS>ATOM
      1 C          -8.0890  -17.6369   22.3116 C.2     1  UNL1        0.2494
      2 O          -7.1001  -16.9942   23.2384 O.2     1  UNL1       -0.2699
      3 N          -7.6203  -18.6173   21.2776 N.am    1  UNL1       -0.2779
      4 C         -10.3934  -17.9554   23.4685 C.ar    1  UNL1        0.0296
      5 C         -11.8509  -17.6177   23.5757 C.ar    1  UNL1        0.0063
      6 C         -12.4616  -16.6237   22.6329 C.ar    1  UNL1        0.0005
      7 C         -11.6149  -15.9674   21.5831 C.ar    1  UNL1        0.0002
      8 C         -10.1573  -16.3051   21.4759 C.ar    1  UNL1        0.0050
      9 C          -9.5466  -17.2991   22.4187 C.ar    1  UNL1        0.0592
     10 C          -9.9055  -20.4187   24.1351 C.3     1  UNL1        0.0742
     11 S          -9.7825  -18.9495   24.4113 S.3     1  UNL1       -0.1126
     12 C          -6.1628  -18.9551   21.1705 C.3     1  UNL1        0.0926
     13 C          -5.3346  -18.9003   19.9211 C.3     1  UNL1        0.0383
     14 C          -3.9375  -19.3183   20.2724 C.3     1  UNL1        0.0704
     15 N          -3.9023  -19.6315   21.7390 N.3     1  UNL1       -0.2960
     16 C          -5.2776  -19.4070   22.2940 C.3     1  UNL1        0.0887
     17 H          -3.2354  -19.0184   22.2079 H       1  UNL1        0.1233
     18 C          -8.6093  -19.2601   20.3508 C.3     1  UNL1        0.0756
     19 C         -10.0197  -19.7536   20.4813 C.3     1  UNL1        0.0199
     20 C         -10.0078  -20.1690   19.0400 C.3     1  UNL1        0.0034
     21 C          -8.5973  -19.6754   18.9095 C.3     1  UNL1        0.0199
@<TRIPOS>BOND
     1    10    11    1
     2    11     4    1
     3     4     5   ar
     4     5     6   ar
     5     6     7   ar
     6     7     8   ar
     7     8     9   ar
     8     9     1    1
     9     1     2    2
    10     1     3   am
    11     3    18    1
    12    18    19    1
    13    19    20    1
    14    20    21    1
    15    12     3    1
    16    12    13    1
    17    13    14    1
    18    14    15    1
    19    15    16    1
    20     9     4   ar
    21    21    18    1
    22    16    12    1
    23    15    17    1
@<TRIPOS>MOLECULE
*****
 21 23 0 0 0
SMALL
GASTEIGER

@<TRIPOS>ATOM
      1 C          -9.2853  -17.8277   23.5882 C.2     1  UNL1        0.2494
      2 O          -8.5041  -17.2002   24.7044 O.2     1  UNL1       -0.2699
      3 N          -8.5670  -18.4741   22.4410 N.am    1  UNL1       -0.2779
      4 C         -11.5424  -16.8872   22.7101 C.ar    1  UNL1        0.0296
      5 C         -13.0419  -16.8684   22.7411 C.ar    1  UNL1        0.0063
      6 C         -13.7839  -17.7713   23.6814 C.ar    1  UNL1        0.0005
      7 C         -13.0265  -18.6930   24.5906 C.ar    1  UNL1        0.0002
      8 C         -11.5269  -18.7118   24.5595 C.ar    1  UNL1        0.0050
      9 C         -10.7849  -17.8089   23.6193 C.ar    1  UNL1        0.0592
     10 C         -11.1670  -15.9511   20.3158 C.3     1  UNL1        0.0742
     11 S         -10.8002  -15.9843   21.7698 S.3     1  UNL1       -0.1126
     12 C          -7.0674  -18.4929   22.4099 C.3     1  UNL1        0.0926
     13 C          -6.2084  -19.6566   22.0127 C.3     1  UNL1        0.0383
     14 C          -4.7737  -19.2343   22.1278 C.3     1  UNL1        0.0704
     15 N          -4.7460  -17.8095   22.5962 N.3     1  UNL1       -0.2960
     16 C          -6.1637  -17.3513   22.7705 C.3     1  UNL1        0.0887
     17 H          -4.2765  -17.2264   21.9034 H       1  UNL1        0.1233
     18 C          -9.3482  -19.1017   21.3248 C.3     1  UNL1        0.0756
     19 C         -10.5628  -19.9780   21.2422 C.3     1  UNL1        0.0199
     20 C         -10.4531  -19.9891   19.7462 C.3     1  UNL1        0.0034
     21 C          -9.2385  -19.1127   19.8288 C.3     1  UNL1        0.0199
@<TRIPOS>BOND
     1    10    11    1
     2    11     4    1
     3     4     5   ar
     4     5     6   ar
     5     6     7   ar
     6     7     8   ar
     7     8     9   ar
     8     9     1    1
     9     1     2    2
    10     1     3   am
    11     3    18    1
    12    18    19    1
    13    19    20    1
    14    20    21    1
    15    12     3    1
    16    12    13    1
    17    13    14    1
    18    14    15    1
    19    15    16    1
    20     9     4   ar
    21    21    18    1
    22    16    12    1
    23    15    17    1
@<TRIPOS>MOLECULE
*****
 21 23 0 0 0
SMALL
GASTEIGER

@<TRIPOS>ATOM
      1 C          -7.0166  -19.6900   22.1210 C.2     1  UNL1        0.2494
      2 O          -6.3481  -20.9524   21.6636 O.2     1  UNL1       -0.2699
      3 N          -6.1994  -18.4577   22.3736 N.am    1  UNL1       -0.2779
      4 C          -9.4152  -19.4179   21.1605 C.ar    1  UNL1        0.0296
      5 C         -10.9008  -19.3876   21.3653 C.ar    1  UNL1        0.0063
      6 C         -11.4735  -19.5992   22.7354 C.ar    1  UNL1        0.0005
      7 C         -10.5605  -19.8410   23.9007 C.ar    1  UNL1        0.0002
      8 C          -9.0749  -19.8713   23.6960 C.ar    1  UNL1        0.0050
      9 C          -8.5023  -19.6597   22.3259 C.ar    1  UNL1        0.0592
     10 C          -8.9506  -20.2883   18.7570 C.3     1  UNL1        0.0742
     11 S          -8.8425  -19.2063   19.7903 S.3     1  UNL1       -0.1126
     12 C          -4.7138  -18.4879   22.1688 C.3     1  UNL1        0.0926
     13 C          -3.6756  -18.1260   23.1892 C.3     1  UNL1        0.0383
     14 C          -2.3257  -18.2997   22.5587 C.3     1  UNL1        0.0704
     15 N          -2.5296  -18.7691   21.1487 N.3     1  UNL1       -0.2960
     16 C          -4.0055  -18.8854   20.9077 C.3     1  UNL1        0.0887
     17 H          -2.0849  -19.6778   21.0186 H       1  UNL1        0.1233
     18 C          -6.8680  -17.1952   22.8311 C.3     1  UNL1        0.0756
     19 C          -6.6459  -16.2235   23.9520 C.3     1  UNL1        0.0199
     20 C          -7.8135  -15.4098   23.4779 C.3     1  UNL1        0.0034
     21 C          -8.0355  -16.3815   22.3570 C.3     1  UNL1        0.0199
@<TRIPOS>BOND
     1    10    11    1
     2    11     4    1
     3     4     5   ar
     4     5     6   ar
     5     6     7   ar
     6     7     8   ar
     7     8     9   ar
     8     9     1    1
     9     1     2    2
    10     1     3   am
    11     3    18    1
    12    18    19    1
    13    19    20    1
    14    20    21    1
    15    12     3    1
    16    12    13    1
    17    13    14    1
    18    14    15    1
    19    15    16    1
    20     9     4   ar
    21    21    18    1
    22    16    12    1
    23    15    17    1
@<TRIPOS>MOLECULE
*****
 21 23 0 0 0
SMALL
GASTEIGER

@<TRIPOS>ATOM
      1 C          -8.9889  -16.7818   23.8681 C.2     1  UNL1        0.2494
      2 O          -8.5666  -15.9174   25.0189 O.2     1  UNL1       -0.2699
      3 N          -7.9630  -17.3049   22.9069 N.am    1  UNL1       -0.2779
      4 C         -10.9845  -18.4051   24.2328 C.ar    1  UNL1        0.0296
      5 C         -12.4327  -18.7465   24.0431 C.ar    1  UNL1        0.0063
      6 C         -13.3337  -17.8059   23.2991 C.ar    1  UNL1        0.0005
      7 C         -12.7865  -16.5240   22.7448 C.ar    1  UNL1        0.0002
      8 C         -11.3383  -16.1827   22.9344 C.ar    1  UNL1        0.0050
      9 C         -10.4373  -17.1232   23.6784 C.ar    1  UNL1        0.0592
     10 C          -9.6891  -20.6537   24.3576 C.3     1  UNL1        0.0742
     11 S         -10.0834  -19.3456   24.9768 S.3     1  UNL1       -0.1126
     12 C          -6.5148  -16.9636   23.0965 C.3     1  UNL1        0.0926
     13 C          -5.3630  -17.9190   22.9938 C.3     1  UNL1        0.0383
     14 C          -4.1004  -17.1528   23.2560 C.3     1  UNL1        0.0704
     15 N          -4.4718  -15.7238   23.5207 N.3     1  UNL1       -0.2960
     16 C          -5.9640  -15.6069   23.4222 C.3     1  UNL1        0.0887
     17 H          -4.0306  -15.1176   22.8291 H       1  UNL1        0.1233
     18 C          -8.3854  -18.1693   21.7560 C.3     1  UNL1        0.0756
     19 C          -9.3954  -18.0487   20.6536 C.3     1  UNL1        0.0199
     20 C          -8.9827  -19.3918   20.1285 C.3     1  UNL1        0.0034
     21 C          -7.9727  -19.5124   21.2310 C.3     1  UNL1        0.0199
@<TRIPOS>BOND
     1    10    11    1
     2    11     4    1
     3     4     5   ar
     4     5     6   ar
     5     6     7   ar
     6     7     8   ar
     7     8     9   ar
     8     9     1    1
     9     1     2    2
    10     1     3   am
    11     3    18    1
    12    18    19    1
    13    19    20    1
    14    20    21    1
    15    12     3    1
    16    12    13    1
    17    13    14    1
    18    14    15    1
    19    15    16    1
    20     9     4   ar
    21    21    18    1
    22    16    12    1
    23    15    17    1
@<TRIPOS>MOLECULE
*****
 21 23 0 0 0
SMALL
GASTEIGER

@<TRIPOS>ATOM
      1 C          -8.1655  -15.9905   22.4543 C.2     1  UNL1        0.2494
      2 O          -8.0284  -15.0386   21.3033 O.2     1  UNL1       -0.2699
      3 N          -9.3356  -16.9269   22.5180 N.am    1  UNL1       -0.2779
      4 C          -5.9799  -16.9634   23.4676 C.ar    1  UNL1        0.0296
      5 C          -4.9468  -16.9792   24.5549 C.ar    1  UNL1        0.0063
      6 C          -5.0662  -16.0377   25.7165 C.ar    1  UNL1        0.0005
      7 C          -6.2187  -15.0805   25.7907 C.ar    1  UNL1        0.0002
      8 C          -7.2518  -15.0648   24.7034 C.ar    1  UNL1        0.0050
      9 C          -7.1324  -16.0062   23.5418 C.ar    1  UNL1        0.0592
     10 C          -4.8581  -19.0202   22.3443 C.3     1  UNL1        0.0742
     11 S          -5.8605  -17.9049   22.3059 S.3     1  UNL1       -0.1126
     12 C         -10.3687  -16.9112   21.4306 C.3     1  UNL1        0.0926
     13 C         -11.4629  -15.8981   21.2686 C.3     1  UNL1        0.0383
     14 C         -12.2595  -16.2666   20.0522 C.3     1  UNL1        0.0704
     15 N         -11.6575  -17.5076   19.4623 N.3     1  UNL1       -0.2960
     16 C         -10.4890  -17.9059   20.3143 C.3     1  UNL1        0.0887
     17 H         -11.3439  -17.3211   18.5098 H       1  UNL1        0.1233
     18 C          -9.4727  -17.8789   23.6691 C.3     1  UNL1        0.0756
     19 C          -9.3782  -19.3670   23.8318 C.3     1  UNL1        0.0199
     20 C          -9.6665  -19.2251   25.2970 C.3     1  UNL1        0.0034
     21 C          -9.7609  -17.7370   25.1343 C.3     1  UNL1        0.0199
@<TRIPOS>BOND
     1    10    11    1
     2    11     4    1
     3     4     5   ar
     4     5     6   ar
     5     6     7   ar
     6     7     8   ar
     7     8     9   ar
     8     9     1    1
     9     1     2    2
    10     1     3   am
    11     3    18    1
    12    18    19    1
    13    19    20    1
    14    20    21    1
    15    12     3    1
    16    12    13    1
    17    13    14    1
    18    14    15    1
    19    15    16    1
    20     9     4   ar
    21    21    18    1
    22    16    12    1
    23    15    17    1
