@<TRIPOS>MOLECULE
*****
 24 27 0 0 0
SMALL
GASTEIGER

@<TRIPOS>ATOM
      1 C          -9.1396  -19.1296   23.7203 C.3     1  UNL1        0.0271
      2 C         -10.5486  -18.6565   23.5180 C.2     1  UNL1       -0.0337
      3 C         -11.5714  -18.8637   24.5954 C.2     1  UNL1        0.0025
      4 C         -12.9803  -18.3907   24.3931 C.2     1  UNL1        0.0690
      5 C         -13.3666  -17.7104   23.1132 C.2     1  UNL1        0.0256
      6 C         -12.3439  -17.5032   22.0357 C.2     1  UNL1        0.0674
      7 N         -12.4298  -16.8697   20.6788 N.2     1  UNL1       -0.2476
      8 C         -11.0739  -16.9512   20.0425 C.2     1  UNL1        0.1013
      9 C         -10.1500  -17.6351   21.0062 C.2     1  UNL1        0.0814
     10 C         -10.9349  -17.9762   22.2381 C.3     1  UNL1        0.0886
     11 C         -14.0031  -18.5979   25.4707 C.1     1  UNL1        0.1004
     12 N         -15.0259  -18.8051   26.5482 N.1     1  UNL1       -0.1908
     13 C          -8.6964  -17.9267   20.7780 C.2     1  UNL1        0.3394
     14 O          -8.2902  -19.0562   19.8785 O.2     1  UNL1       -0.2452
     15 O          -7.6489  -17.0887   21.4494 O.3     1  UNL1       -0.4456
     16 C          -8.0473  -15.8624   22.2157 C.3     1  UNL1        0.2087
     17 C          -7.6520  -15.7162   23.6553 C.3     1  UNL1        0.0445
     18 C          -6.2045  -15.5828   24.0257 C.3     1  UNL1        0.0210
     19 C          -5.8091  -15.4366   25.4653 C.3     1  UNL1        0.0722
     20 N          -6.8612  -15.4239   26.5345 N.3     1  UNL1       -0.2727
     21 C          -8.3086  -15.5572   26.1640 C.3     1  UNL1        0.0722
     22 C          -8.7040  -15.7034   24.7245 C.3     1  UNL1        0.0210
     23 C          -7.1264  -15.5063   25.7593 C.3     1  UNL1        0.0722
     24 C          -7.4839  -15.6384   24.4576 C.3     1  UNL1        0.0210
@<TRIPOS>BOND
     1     1     2    1
     2     2     3    2
     3     3     4    1
     4     4    11    1
     5    11    12    3
     6     4     5    2
     7     5     6    1
     8     6     7    2
     9     7     8    1
    10     8     9    2
    11     9    13    1
    12    13    14    2
    13    13    15    1
    14    15    16    1
    15    16    17    1
    16    17    18    1
    17    18    19    1
    18    19    20    1
    19    20    21    1
    20    21    22    1
    21    20    23    1
    22    23    24    1
    23     9    10    1
    24    10     2    1
    25    10     6    1
    26    22    17    1
    27    24    17    1
@<TRIPOS>MOLECULE
*****
 24 27 0 0 0
SMALL
GASTEIGER

@<TRIPOS>ATOM
      1 C          -9.2464  -19.8653   23.3491 C.3     1  UNL1        0.0271
      2 C         -10.5717  -19.1721   23.2341 C.2     1  UNL1       -0.0337
      3 C         -11.5480  -19.2270   24.3716 C.2     1  UNL1        0.0025
      4 C         -12.8732  -18.5339   24.2566 C.2     1  UNL1        0.0690
      5 C         -13.2222  -17.7858   23.0041 C.2     1  UNL1        0.0256
      6 C         -12.2459  -17.7309   21.8667 C.2     1  UNL1        0.0674
      7 N         -12.3110  -17.0758   20.5189 N.2     1  UNL1       -0.2476
      8 C         -11.0260  -17.3641   19.8009 C.2     1  UNL1        0.1013
      9 C         -10.1667  -18.1973   20.7049 C.2     1  UNL1        0.0814
     10 C         -10.9207  -18.4241   21.9817 C.3     1  UNL1        0.0886
     11 C         -13.8495  -18.5888   25.3942 C.1     1  UNL1        0.1004
     12 N         -14.8258  -18.6437   26.5316 N.1     1  UNL1       -0.1908
     13 C          -8.7944  -18.7133   20.3879 C.2     1  UNL1        0.3394
     14 O          -8.6324  -19.9603   19.5701 O.2     1  UNL1       -0.2452
     15 O          -7.5840  -17.9823   20.8886 O.3     1  UNL1       -0.4456
     16 C          -6.7122  -18.6056   21.9380 C.3     1  UNL1        0.2087
     17 C          -5.3605  -19.1411   21.5690 C.3     1  UNL1        0.0445
     18 C          -5.2178  -20.0835   20.4107 C.3     1  UNL1        0.0210
     19 C          -3.8661  -20.6190   20.0416 C.3     1  UNL1        0.0722
     20 N          -2.6571  -20.2121   20.8309 N.3     1  UNL1       -0.2727
     21 C          -2.7998  -19.2697   21.9892 C.3     1  UNL1        0.0722
     22 C          -4.1515  -18.7342   22.3582 C.3     1  UNL1        0.0210
     23 C          -3.3770  -19.8925   21.0710 C.3     1  UNL1        0.0722
     24 C          -4.5992  -19.4083   21.4046 C.3     1  UNL1        0.0210
@<TRIPOS>BOND
     1     1     2    1
     2     2     3    2
     3     3     4    1
     4     4    11    1
     5    11    12    3
     6     4     5    2
     7     5     6    1
     8     6     7    2
     9     7     8    1
    10     8     9    2
    11     9    13    1
    12    13    14    2
    13    13    15    1
    14    15    16    1
    15    16    17    1
    16    17    18    1
    17    18    19    1
    18    19    20    1
    19    20    21    1
    20    21    22    1
    21    20    23    1
    22    23    24    1
    23     9    10    1
    24    10     2    1
    25    10     6    1
    26    22    17    1
    27    24    17    1
@<TRIPOS>MOLECULE
*****
 24 27 0 0 0
SMALL
GASTEIGER

@<TRIPOS>ATOM
      1 C          -5.8941  -21.0176   20.2364 C.3     1  UNL1        0.0271
      2 C          -4.9745  -19.9423   20.7346 C.2     1  UNL1       -0.0337
      3 C          -3.5466  -19.9050   20.2764 C.2     1  UNL1        0.0025
      4 C          -2.6270  -18.8299   20.7745 C.2     1  UNL1        0.0690
      5 C          -3.1352  -17.7919   21.7309 C.2     1  UNL1        0.0256
      6 C          -4.5630  -17.8292   22.1890 C.2     1  UNL1        0.0674
      7 N          -5.3418  -16.9475   23.1196 N.2     1  UNL1       -0.2476
      8 C          -6.7428  -17.4778   23.1966 C.2     1  UNL1        0.1013
      9 C          -6.8299  -18.6873   22.3136 C.2     1  UNL1        0.0814
     10 C          -5.4826  -18.9044   21.6908 C.3     1  UNL1        0.0886
     11 C          -1.1991  -18.7925   20.3164 C.1     1  UNL1        0.1004
     12 N           0.2287  -18.7552   19.8582 N.1     1  UNL1       -0.1908
     13 C          -8.0499  -19.5313   22.0922 C.2     1  UNL1        0.3394
     14 O          -8.5652  -20.4085   23.1945 O.2     1  UNL1       -0.2452
     15 O          -8.7548  -19.4982   20.7685 O.3     1  UNL1       -0.4456
     16 C         -10.2438  -19.6686   20.7073 C.3     1  UNL1        0.2087
     17 C         -11.1406  -18.6783   21.3892 C.3     1  UNL1        0.0445
     18 C         -11.5305  -17.4116   20.6866 C.3     1  UNL1        0.0210
     19 C         -12.4274  -16.4213   21.3684 C.3     1  UNL1        0.0722
     20 N         -12.9344  -16.6977   22.7529 N.3     1  UNL1       -0.2727
     21 C         -12.5446  -17.9643   23.4554 C.3     1  UNL1        0.0722
     22 C         -11.6477  -18.9547   22.7736 C.3     1  UNL1        0.0210
     23 C         -12.4453  -17.2703   22.4198 C.3     1  UNL1        0.0722
     24 C         -11.6343  -18.1657   21.8033 C.3     1  UNL1        0.0210
@<TRIPOS>BOND
     1     1     2    1
     2     2     3    2
     3     3     4    1
     4     4    11    1
     5    11    12    3
     6     4     5    2
     7     5     6    1
     8     6     7    2
     9     7     8    1
    10     8     9    2
    11     9    13    1
    12    13    14    2
    13    13    15    1
    14    15    16    1
    15    16    17    1
    16    17    18    1
    17    18    19    1
    18    19    20    1
    19    20    21    1
    20    21    22    1
    21    20    23    1
    22    23    24    1
    23     9    10    1
    24    10     2    1
    25    10     6    1
    26    22    17    1
    27    24    17    1
@<TRIPOS>MOLECULE
*****
 24 27 0 0 0
SMALL
GASTEIGER

@<TRIPOS>ATOM
      1 C          -8.9494  -16.5099   22.2729 C.3     1  UNL1        0.0271
      2 C          -8.1781  -17.6497   21.6761 C.2     1  UNL1       -0.0337
      3 C          -6.7811  -17.9352   22.1416 C.2     1  UNL1        0.0025
      4 C          -6.0099  -19.0748   21.5449 C.2     1  UNL1        0.0690
      5 C          -6.6357  -19.9292   20.4825 C.2     1  UNL1        0.0256
      6 C          -8.0327  -19.6438   20.0170 C.2     1  UNL1        0.0674
      7 N          -8.9051  -20.3083   18.9937 N.2     1  UNL1       -0.2476
      8 C         -10.2155  -19.5793   18.9580 C.2     1  UNL1        0.1013
      9 C         -10.1530  -18.4641   19.9593 C.2     1  UNL1        0.0814
     10 C          -8.8040  -18.5040   20.6138 C.3     1  UNL1        0.0886
     11 C          -4.6127  -19.3603   22.0105 C.1     1  UNL1        0.1004
     12 N          -3.2157  -19.6457   22.4760 N.1     1  UNL1       -0.1908
     13 C         -11.2474  -17.4817   20.2542 C.2     1  UNL1        0.3394
     14 O         -11.0925  -16.0442   19.8549 O.2     1  UNL1       -0.2452
     15 O         -12.4968  -17.9368   20.9485 O.3     1  UNL1       -0.4456
     16 C         -12.5775  -17.9029   22.4459 C.3     1  UNL1        0.2087
     17 C         -11.5659  -18.6446   23.2685 C.3     1  UNL1        0.0445
     18 C         -11.0068  -18.0193   24.5121 C.3     1  UNL1        0.0210
     19 C          -9.9952  -18.7609   25.3347 C.3     1  UNL1        0.0722
     20 N          -9.5428  -20.1278   24.9138 N.3     1  UNL1       -0.2727
     21 C         -10.1020  -20.7530   23.6703 C.3     1  UNL1        0.0722
     22 C         -11.1135  -20.0114   22.8476 C.3     1  UNL1        0.0210
     23 C         -10.0991  -19.7601   24.4307 C.3     1  UNL1        0.0722
     24 C         -11.0138  -19.0895   23.6869 C.3     1  UNL1        0.0210
@<TRIPOS>BOND
     1     1     2    1
     2     2     3    2
     3     3     4    1
     4     4    11    1
     5    11    12    3
     6     4     5    2
     7     5     6    1
     8     6     7    2
     9     7     8    1
    10     8     9    2
    11     9    13    1
    12    13    14    2
    13    13    15    1
    14    15    16    1
    15    16    17    1
    16    17    18    1
    17    18    19    1
    18    19    20    1
    19    20    21    1
    20    21    22    1
    21    20    23    1
    22    23    24    1
    23     9    10    1
    24    10     2    1
    25    10     6    1
    26    22    17    1
    27    24    17    1
@<TRIPOS>MOLECULE
*****
 24 27 0 0 0
SMALL
GASTEIGER

@<TRIPOS>ATOM
      1 C          -9.1733  -20.0748   20.7689 C.3     1  UNL1        0.0271
      2 C          -9.6232  -19.1350   21.8480 C.2     1  UNL1       -0.0337
      3 C         -11.0650  -19.1016   22.2603 C.2     1  UNL1        0.0025
      4 C         -11.5149  -18.1618   23.3393 C.2     1  UNL1        0.0690
      5 C         -10.5230  -17.2554   24.0061 C.2     1  UNL1        0.0256
      6 C          -9.0812  -17.2888   23.5938 C.2     1  UNL1        0.0674
      7 N          -7.8839  -16.5190   24.0670 N.2     1  UNL1       -0.2476
      8 C          -6.6940  -16.9831   23.2804 C.2     1  UNL1        0.1013
      9 C          -7.1559  -18.0396   22.3210 C.2     1  UNL1        0.0814
     10 C          -8.6313  -18.2286   22.5148 C.3     1  UNL1        0.0886
     11 C         -12.9569  -18.1284   23.7516 C.1     1  UNL1        0.1004
     12 N         -14.3987  -18.0951   24.1639 N.1     1  UNL1       -0.1908
     13 C          -6.2938  -18.7776   21.3402 C.2     1  UNL1        0.3394
     14 O          -6.3480  -18.4281   19.8826 O.2     1  UNL1       -0.2452
     15 O          -5.3773  -19.8652   21.8170 O.3     1  UNL1       -0.4456
     16 C          -4.0913  -19.5144   22.5046 C.3     1  UNL1        0.2087
     17 C          -3.1275  -18.5666   21.8544 C.3     1  UNL1        0.0445
     18 C          -2.3412  -19.0030   20.6538 C.3     1  UNL1        0.0210
     19 C          -1.3773  -18.0552   20.0035 C.3     1  UNL1        0.0722
     20 N          -1.1997  -16.6711   20.5539 N.3     1  UNL1       -0.2727
     21 C          -1.9860  -16.2348   21.7545 C.3     1  UNL1        0.0722
     22 C          -2.9499  -17.1826   22.4048 C.3     1  UNL1        0.0210
     23 C          -1.7397  -17.1551   20.9442 C.3     1  UNL1        0.0722
     24 C          -2.6112  -18.0121   21.5321 C.3     1  UNL1        0.0210
@<TRIPOS>BOND
     1     1     2    1
     2     2     3    2
     3     3     4    1
     4     4    11    1
     5    11    12    3
     6     4     5    2
     7     5     6    1
     8     6     7    2
     9     7     8    1
    10     8     9    2
    11     9    13    1
    12    13    14    2
    13    13    15    1
    14    15    16    1
    15    16    17    1
    16    17    18    1
    17    18    19    1
    18    19    20    1
    19    20    21    1
    20    21    22    1
    21    20    23    1
    22    23    24    1
    23     9    10    1
    24    10     2    1
    25    10     6    1
    26    22    17    1
    27    24    17    1
@<TRIPOS>MOLECULE
*****
 24 27 0 0 0
SMALL
GASTEIGER

@<TRIPOS>ATOM
      1 C          -5.0596  -17.4118   23.5721 C.3     1  UNL1        0.0271
      2 C          -4.5808  -18.1670   22.3678 C.2     1  UNL1       -0.0337
      3 C          -3.1419  -18.0826   21.9527 C.2     1  UNL1        0.0025
      4 C          -2.6631  -18.8378   20.7485 C.2     1  UNL1        0.0690
      5 C          -3.6232  -19.6776   19.9592 C.2     1  UNL1        0.0256
      6 C          -5.0622  -19.7620   20.3742 C.2     1  UNL1        0.0674
      7 N          -6.2315  -20.5029   19.7966 N.2     1  UNL1       -0.2476
      8 C          -7.4330  -20.2055   20.6439 C.2     1  UNL1        0.1013
      9 C          -7.0063  -19.2809   21.7452 C.2     1  UNL1        0.0814
     10 C          -5.5410  -19.0068   21.5785 C.3     1  UNL1        0.0886
     11 C          -1.2240  -18.7533   20.3334 C.1     1  UNL1        0.1004
     12 N           0.2149  -18.6688   19.9184 N.1     1  UNL1       -0.1908
     13 C          -7.8897  -18.7275   22.8237 C.2     1  UNL1        0.3394
     14 O          -8.0413  -17.2435   22.9812 O.2     1  UNL1       -0.2452
     15 O          -8.6215  -19.6581   23.7449 O.3     1  UNL1       -0.4456
     16 C          -9.9920  -20.1481   23.3822 C.3     1  UNL1        0.2087
     17 C         -10.9416  -19.2466   22.6504 C.3     1  UNL1        0.0445
     18 C         -10.8660  -19.1319   21.1566 C.3     1  UNL1        0.0210
     19 C         -11.8156  -18.2304   20.4247 C.3     1  UNL1        0.0722
     20 N         -12.8407  -17.4436   21.1866 N.3     1  UNL1       -0.2727
     21 C         -12.9162  -17.5584   22.6803 C.3     1  UNL1        0.0722
     22 C         -11.9666  -18.4599   23.4122 C.3     1  UNL1        0.0210
     23 C         -12.3418  -17.9245   21.6314 C.3     1  UNL1        0.0722
     24 C         -11.4832  -18.7397   22.2931 C.3     1  UNL1        0.0210
@<TRIPOS>BOND
     1     1     2    1
     2     2     3    2
     3     3     4    1
     4     4    11    1
     5    11    12    3
     6     4     5    2
     7     5     6    1
     8     6     7    2
     9     7     8    1
    10     8     9    2
    11     9    13    1
    12    13    14    2
    13    13    15    1
    14    15    16    1
    15    16    17    1
    16    17    18    1
    17    18    19    1
    18    19    20    1
    19    20    21    1
    20    21    22    1
    21    20    23    1
    22    23    24    1
    23     9    10    1
    24    10     2    1
    25    10     6    1
    26    22    17    1
    27    24    17    1
@<TRIPOS>MOLECULE
*****
 24 27 0 0 0
SMALL
GASTEIGER

@<TRIPOS>ATOM
      1 C          -8.7956  -15.6601   21.6125 C.3     1  UNL1        0.0271
      2 C          -8.9529  -16.2484   22.9833 C.2     1  UNL1       -0.0337
      3 C          -8.2077  -15.6574   24.1432 C.2     1  UNL1        0.0025
      4 C          -8.3650  -16.2457   25.5139 C.2     1  UNL1        0.0690
      5 C          -9.2677  -17.4250   25.7250 C.2     1  UNL1        0.0256
      6 C         -10.0129  -18.0160   24.5651 C.2     1  UNL1        0.0674
      7 N         -10.9664  -19.1699   24.4677 N.2     1  UNL1       -0.2476
      8 C         -11.3983  -19.2947   23.0367 C.2     1  UNL1        0.1013
      9 C         -10.7118  -18.2180   22.2497 C.2     1  UNL1        0.0814
     10 C          -9.8556  -17.4277   23.1943 C.3     1  UNL1        0.0886
     11 C          -7.6197  -15.6546   26.6738 C.1     1  UNL1        0.1004
     12 N          -6.8744  -15.0636   27.8337 N.1     1  UNL1       -0.1908
     13 C         -10.8562  -17.9744   20.7766 C.2     1  UNL1        0.3394
     14 O         -12.0819  -17.2918   20.2460 O.2     1  UNL1       -0.2452
     15 O          -9.7748  -18.4134   19.8343 O.3     1  UNL1       -0.4456
     16 C          -8.8966  -19.5761   20.1900 C.3     1  UNL1        0.2087
     17 C          -7.4674  -19.3442   20.5820 C.3     1  UNL1        0.0445
     18 C          -6.3971  -19.3134   19.5314 C.3     1  UNL1        0.0210
     19 C          -4.9679  -19.0815   19.9233 C.3     1  UNL1        0.0722
     20 N          -4.6090  -18.8804   21.3659 N.3     1  UNL1       -0.2727
     21 C          -5.6792  -18.9113   22.4164 C.3     1  UNL1        0.0722
     22 C          -7.1084  -19.1432   22.0245 C.3     1  UNL1        0.0210
     23 C          -5.4059  -19.0042   21.1995 C.3     1  UNL1        0.0722
     24 C          -6.6982  -19.2139   20.8451 C.3     1  UNL1        0.0210
@<TRIPOS>BOND
     1     1     2    1
     2     2     3    2
     3     3     4    1
     4     4    11    1
     5    11    12    3
     6     4     5    2
     7     5     6    1
     8     6     7    2
     9     7     8    1
    10     8     9    2
    11     9    13    1
    12    13    14    2
    13    13    15    1
    14    15    16    1
    15    16    17    1
    16    17    18    1
    17    18    19    1
    18    19    20    1
    19    20    21    1
    20    21    22    1
    21    20    23    1
    22    23    24    1
    23     9    10    1
    24    10     2    1
    25    10     6    1
    26    22    17    1
    27    24    17    1
@<TRIPOS>MOLECULE
*****
 24 27 0 0 0
SMALL
GASTEIGER

@<TRIPOS>ATOM
      1 C          -8.0099  -19.6601   19.0244 C.3     1  UNL1        0.0271
      2 C          -7.1332  -19.2261   20.1615 C.2     1  UNL1       -0.0337
      3 C          -5.7258  -19.7353   20.2601 C.2     1  UNL1        0.0025
      4 C          -4.8491  -19.3013   21.3971 C.2     1  UNL1        0.0690
      5 C          -5.3798  -18.3580   22.4357 C.2     1  UNL1        0.0256
      6 C          -6.7873  -17.8488   22.3372 C.2     1  UNL1        0.0674
      7 N          -7.5806  -16.9171   23.2047 N.2     1  UNL1       -0.2476
      8 C          -8.9476  -16.7754   22.6038 C.2     1  UNL1        0.1013
      9 C          -8.9992  -17.6194   21.3648 C.2     1  UNL1        0.0814
     10 C          -7.6640  -18.2828   21.2001 C.3     1  UNL1        0.0886
     11 C          -3.4416  -19.8105   21.4957 C.1     1  UNL1        0.1004
     12 N          -2.0341  -20.3197   21.5942 N.1     1  UNL1       -0.1908
     13 C         -10.1788  -17.7730   20.4511 C.2     1  UNL1        0.3394
     14 O         -10.8816  -16.5577   19.9229 O.2     1  UNL1       -0.2452
     15 O         -10.6556  -19.1420   20.0656 O.3     1  UNL1       -0.4456
     16 C         -11.2798  -20.0363   21.0953 C.3     1  UNL1        0.2087
     17 C         -10.9443  -19.8576   22.5464 C.3     1  UNL1        0.0445
     18 C         -11.7508  -18.9173   23.3923 C.3     1  UNL1        0.0210
     19 C         -11.4154  -18.7386   24.8433 C.3     1  UNL1        0.0722
     20 N         -10.2735  -19.5001   25.4485 N.3     1  UNL1       -0.2727
     21 C          -9.4670  -20.4403   24.6026 C.3     1  UNL1        0.0722
     22 C          -9.8024  -20.6191   23.1516 C.3     1  UNL1        0.0210
     23 C         -10.4194  -19.6311   24.6488 C.3     1  UNL1        0.0722
     24 C         -10.7227  -19.7927   23.3367 C.3     1  UNL1        0.0210
@<TRIPOS>BOND
     1     1     2    1
     2     2     3    2
     3     3     4    1
     4     4    11    1
     5    11    12    3
     6     4     5    2
     7     5     6    1
     8     6     7    2
     9     7     8    1
    10     8     9    2
    11     9    13    1
    12    13    14    2
    13    13    15    1
    14    15    16    1
    15    16    17    1
    16    17    18    1
    17    18    19    1
    18    19    20    1
    19    20    21    1
    20    21    22    1
    21    20    23    1
    22    23    24    1
    23     9    10    1
    24    10     2    1
    25    10     6    1
    26    22    17    1
    27    24    17    1
@<TRIPOS>MOLECULE
*****
 24 27 0 0 0
SMALL
GASTEIGER

@<TRIPOS>ATOM
      1 C          -6.5430  -18.1803   21.6207 C.3     1  UNL1        0.0271
      2 C          -7.5605  -17.5655   22.5355 C.2     1  UNL1       -0.0337
      3 C          -9.0200  -17.8430   22.3285 C.2     1  UNL1        0.0025
      4 C         -10.0374  -17.2283   23.2433 C.2     1  UNL1        0.0690
      5 C          -9.5954  -16.3360   24.3651 C.2     1  UNL1        0.0256
      6 C          -8.1359  -16.0584   24.5721 C.2     1  UNL1        0.0674
      7 N          -7.4062  -15.2261   25.5844 N.2     1  UNL1       -0.2476
      8 C          -5.9378  -15.3265   25.2952 C.2     1  UNL1        0.1013
      9 C          -5.7599  -16.2208   24.1042 C.2     1  UNL1        0.0814
     10 C          -7.1184  -16.6732   23.6572 C.3     1  UNL1        0.0886
     11 C         -11.4969  -17.5059   23.0363 C.1     1  UNL1        0.1004
     12 N         -12.9564  -17.7834   22.8293 N.1     1  UNL1       -0.1908
     13 C          -4.4530  -16.5968   23.4712 C.2     1  UNL1        0.3394
     14 O          -3.7314  -15.6124   22.5993 O.2     1  UNL1       -0.2452
     15 O          -3.8677  -17.9570   23.7102 O.3     1  UNL1       -0.4456
     16 C          -2.5580  -18.3309   23.0819 C.3     1  UNL1        0.2087
     17 C          -2.4388  -18.4135   21.5890 C.3     1  UNL1        0.0445
     18 C          -3.2978  -19.3732   20.8200 C.3     1  UNL1        0.0210
     19 C          -3.1787  -19.4559   19.3271 C.3     1  UNL1        0.0722
     20 N          -2.2005  -18.5789   18.6030 N.3     1  UNL1       -0.2727
     21 C          -1.3415  -17.6193   19.3719 C.3     1  UNL1        0.0722
     22 C          -1.4607  -17.5366   20.8649 C.3     1  UNL1        0.0210
     23 C          -2.2301  -18.4979   19.4219 C.3     1  UNL1        0.0722
     24 C          -2.3379  -18.4232   20.7718 C.3     1  UNL1        0.0210
@<TRIPOS>BOND
     1     1     2    1
     2     2     3    2
     3     3     4    1
     4     4    11    1
     5    11    12    3
     6     4     5    2
     7     5     6    1
     8     6     7    2
     9     7     8    1
    10     8     9    2
    11     9    13    1
    12    13    14    2
    13    13    15    1
    14    15    16    1
    15    16    17    1
    16    17    18    1
    17    18    19    1
    18    19    20    1
    19    20    21    1
    20    21    22    1
    21    20    23    1
    22    23    24    1
    23     9    10    1
    24    10     2    1
    25    10     6    1
    26    22    17    1
    27    24    17    1
