@<TRIPOS>MOLECULE
*****
 43 47 0 0 0
SMALL
GASTEIGER

@<TRIPOS>ATOM
      1 C           4.3056   -2.2358   19.0849 C.3     1  UNL1        0.1139
      2 C           1.2259    1.0444   19.1552 C.ar    1  UNL1       -0.0000
      3 C           2.4412    1.1751   18.2857 C.ar    1  UNL1       -0.0003
      4 C           3.4677    0.0817   18.2622 C.ar    1  UNL1       -0.0026
      5 C           3.2791   -1.1424   19.1083 C.ar    1  UNL1       -0.0029
      6 C           2.0638   -1.2732   19.9778 C.ar    1  UNL1       -0.0026
      7 C           1.0372   -0.1798   20.0013 C.ar    1  UNL1       -0.0003
      8 C          -1.8539    4.3247   19.2254 C.ar    1  UNL1        0.0503
      9 C          -1.0217    4.1034   17.9972 C.ar    1  UNL1        0.0147
     10 C           0.0049    3.0099   17.9738 C.ar    1  UNL1        0.0013
     11 C           0.1993    2.1378   19.1786 C.ar    1  UNL1        0.0001
     12 C          -0.6329    2.3591   20.4069 C.ar    1  UNL1        0.0013
     13 C          -1.6594    3.4525   20.4303 C.ar    1  UNL1        0.0147
     14 C          -5.3403    6.2015   18.9563 C.3     1  UNL1        0.0949
     15 C          -4.3137    5.1081   18.9329 C.2     1  UNL1        0.2266
     16 O          -4.7203    3.7047   18.5936 O.2     1  UNL1       -0.2748
     17 N          -2.8804    5.4181   19.2489 N.am    1  UNL1       -0.2839
     18 H          -2.6135    6.3392   19.4716 H       1  UNL1        0.1549
     19 N           4.1121   -3.4644   19.9235 N.am    1  UNL1       -0.2729
     20 C           3.5114   -4.6985   19.3184 C.3     1  UNL1        0.1152
     21 C           4.5194   -3.4588   21.3672 C.2     1  UNL1        0.2465
     22 O           4.3258   -4.6874   22.2057 O.2     1  UNL1       -0.2730
     23 C           5.1201   -2.2248   21.9722 C.3     1  UNL1        0.1835
     24 N           5.2091   -2.0875   23.4633 N.am    1  UNL1       -0.2439
     25 C           6.2784   -2.8170   24.2212 C.2     1  UNL1        0.2744
     26 O           7.2588   -3.6837   23.4880 O.2     1  UNL1       -0.2705
     27 C           6.3673   -2.6797   25.7122 C.3     1  UNL1        0.2900
     28 O           5.3869   -1.8130   26.4454 O.3     1  UNL1       -0.4643
     29 C           4.3176   -1.0835   25.6875 C.ar    1  UNL1        0.1525
     30 C           3.3372   -0.2167   26.4207 C.ar    1  UNL1        0.0336
     31 C           2.2678    0.5127   25.6629 C.ar    1  UNL1       -0.0227
     32 C           1.2874    1.3795   26.3960 C.3     1  UNL1        0.0308
     33 C           2.1789    0.3755   24.1717 C.ar    1  UNL1       -0.0244
     34 C           1.1096    1.1049   23.4139 C.3     1  UNL1        0.0307
     35 C           3.1593   -0.4913   23.4386 C.ar    1  UNL1        0.0134
     36 C           4.2287   -1.2208   24.1965 C.ar    1  UNL1        0.0882
     37 C           5.5258   -2.1007   18.2229 C.3     1  UNL1        0.0968
     38 N           6.8194   -1.6342   18.8220 N.3     1  UNL1       -0.2667
     39 C           7.1748   -0.1771   18.7978 C.3     1  UNL1        0.1047
     40 C           8.4684    0.2894   19.3969 C.3     1  UNL1        0.1595
     41 O           9.4066   -0.7012   20.0203 O.3     1  UNL1       -0.3508
     42 C           9.0512   -2.1583   20.0445 C.3     1  UNL1        0.1595
     43 C           7.7576   -2.6248   19.4453 C.3     1  UNL1        0.1047
@<TRIPOS>BOND
     1    14    15    1
     2    15    16    2
     3    15    17   am
     4    17     8    1
     5     8     9   ar
     6     9    10   ar
     7    10    11   ar
     8    11     2    1
     9     2     3   ar
    10     3     4   ar
    11     4     5   ar
    12     5     1    1
    13     1    37    1
    14    37    38    1
    15    38    39    1
    16    39    40    1
    17    40    41    1
    18    41    42    1
    19    42    43    1
    20     1    19    1
    21    19    20    1
    22    19    21   am
    23    21    22    2
    24    21    23    1
    25    23    24    1
    26    24    25   am
    27    25    26    2
    28    25    27    1
    29    27    28    1
    30    28    29    1
    31    29    30   ar
    32    30    31   ar
    33    31    32    1
    34    31    33   ar
    35    33    34    1
    36    33    35   ar
    37    35    36   ar
    38     5     6   ar
    39     6     7   ar
    40    11    12   ar
    41    12    13   ar
    42    13     8   ar
    43     7     2   ar
    44    43    38    1
    45    36    24    1
    46    36    29   ar
    47    17    18    1
@<TRIPOS>MOLECULE
*****
 43 47 0 0 0
SMALL
GASTEIGER

@<TRIPOS>ATOM
      1 C           2.8254    0.5328   29.5187 C.3     1  UNL1        0.1139
      2 C          -0.3595    2.3424   26.9050 C.ar    1  UNL1       -0.0000
      3 C          -0.5783    0.9972   27.5317 C.ar    1  UNL1       -0.0003
      4 C           0.4833    0.3941   28.4029 C.ar    1  UNL1       -0.0026
      5 C           1.7638    1.1360   28.6475 C.ar    1  UNL1       -0.0029
      6 C           1.9827    2.4811   28.0208 C.ar    1  UNL1       -0.0026
      7 C           0.9211    3.0843   27.1496 C.ar    1  UNL1       -0.0003
      8 C          -3.5444    4.1520   24.2913 C.ar    1  UNL1        0.0503
      9 C          -3.8198    3.9009   25.7443 C.ar    1  UNL1        0.0147
     10 C          -2.7581    3.2977   26.6155 C.ar    1  UNL1        0.0013
     11 C          -1.4211    2.9456   26.0338 C.ar    1  UNL1        0.0001
     12 C          -1.1457    3.1967   24.5808 C.ar    1  UNL1        0.0013
     13 C          -2.2073    3.7999   23.7096 C.ar    1  UNL1        0.0147
     14 C          -6.2923    4.5440   21.4549 C.3     1  UNL1        0.0949
     15 C          -5.2307    3.9408   22.3261 C.2     1  UNL1        0.2266
     16 O          -4.7937    2.5232   22.1034 O.2     1  UNL1       -0.2748
     17 N          -4.6060    4.7552   23.4201 N.am    1  UNL1       -0.2839
     18 H          -4.8929    5.6855   23.5662 H       1  UNL1        0.1549
     19 N           4.2667    0.8846   29.2973 N.am    1  UNL1       -0.2729
     20 C           4.8032    2.1954   29.7912 C.3     1  UNL1        0.1152
     21 C           5.1715   -0.0745   28.5820 C.2     1  UNL1        0.2465
     22 O           6.6127    0.2772   28.3606 O.2     1  UNL1       -0.2730
     23 C           4.6349   -1.3853   28.0882 C.3     1  UNL1        0.1835
     24 N           5.1290   -1.9577   26.7926 N.am    1  UNL1       -0.2439
     25 C           6.2808   -2.9186   26.7881 C.2     1  UNL1        0.2744
     26 O           6.9385   -3.3072   28.0790 O.2     1  UNL1       -0.2705
     27 C           6.7748   -3.4910   25.4926 C.3     1  UNL1        0.2900
     28 O           6.1171   -3.1025   24.2017 O.3     1  UNL1       -0.4643
     29 C           4.9654   -2.1415   24.2063 C.ar    1  UNL1        0.1525
     30 C           4.3077   -1.7530   22.9154 C.ar    1  UNL1        0.0336
     31 C           3.1559   -0.7921   22.9199 C.ar    1  UNL1       -0.0227
     32 C           2.4982   -0.4035   21.6290 C.3     1  UNL1        0.0308
     33 C           2.6618   -0.2197   24.2154 C.ar    1  UNL1       -0.0244
     34 C           1.5101    0.7412   24.2200 C.3     1  UNL1        0.0307
     35 C           3.3195   -0.6082   25.5063 C.ar    1  UNL1        0.0134
     36 C           4.4713   -1.5692   25.5017 C.ar    1  UNL1        0.0882
     37 C           2.4458   -0.4222   30.6114 C.3     1  UNL1        0.0968
     38 N           3.2395   -0.4599   31.8837 N.3     1  UNL1       -0.2667
     39 C           3.1768    0.6930   32.8412 C.3     1  UNL1        0.1047
     40 C           3.9705    0.6553   34.1135 C.3     1  UNL1        0.1595
     41 O           4.8268   -0.5354   34.4283 O.3     1  UNL1       -0.3508
     42 C           4.8894   -1.6884   33.4708 C.3     1  UNL1        0.1595
     43 C           4.0957   -1.6506   32.1985 C.3     1  UNL1        0.1047
@<TRIPOS>BOND
     1    14    15    1
     2    15    16    2
     3    15    17   am
     4    17     8    1
     5     8     9   ar
     6     9    10   ar
     7    10    11   ar
     8    11     2    1
     9     2     3   ar
    10     3     4   ar
    11     4     5   ar
    12     5     1    1
    13     1    37    1
    14    37    38    1
    15    38    39    1
    16    39    40    1
    17    40    41    1
    18    41    42    1
    19    42    43    1
    20     1    19    1
    21    19    20    1
    22    19    21   am
    23    21    22    2
    24    21    23    1
    25    23    24    1
    26    24    25   am
    27    25    26    2
    28    25    27    1
    29    27    28    1
    30    28    29    1
    31    29    30   ar
    32    30    31   ar
    33    31    32    1
    34    31    33   ar
    35    33    34    1
    36    33    35   ar
    37    35    36   ar
    38     5     6   ar
    39     6     7   ar
    40    11    12   ar
    41    12    13   ar
    42    13     8   ar
    43     7     2   ar
    44    43    38    1
    45    36    24    1
    46    36    29   ar
    47    17    18    1
@<TRIPOS>MOLECULE
*****
 43 47 0 0 0
SMALL
GASTEIGER

@<TRIPOS>ATOM
      1 C           6.6829   -2.7503   30.2525 C.3     1  UNL1        0.1139
      2 C           4.9278   -0.5042   33.7345 C.ar    1  UNL1       -0.0000
      3 C           5.7211    0.2278   32.6929 C.ar    1  UNL1       -0.0003
      4 C           6.3061   -0.5209   31.5323 C.ar    1  UNL1       -0.0026
      5 C           6.0979   -2.0016   31.4132 C.ar    1  UNL1       -0.0029
      6 C           5.3047   -2.7336   32.4547 C.ar    1  UNL1       -0.0026
      7 C           4.7196   -1.9849   33.6154 C.ar    1  UNL1       -0.0003
      8 C           3.1726    1.7419   37.2165 C.ar    1  UNL1        0.0503
      9 C           2.8689    2.1770   35.8135 C.ar    1  UNL1        0.0147
     10 C           3.4540    1.4282   34.6528 C.ar    1  UNL1        0.0013
     11 C           4.3428    0.2445   34.8952 C.ar    1  UNL1        0.0001
     12 C           4.6465   -0.1906   36.2982 C.ar    1  UNL1        0.0013
     13 C           4.0615    0.5581   37.4589 C.ar    1  UNL1        0.0147
     14 C           0.8217    2.6786   40.2736 C.3     1  UNL1        0.0949
     15 C           1.4067    1.9299   39.1129 C.2     1  UNL1        0.2266
     16 O           0.8109    0.6206   38.6879 O.2     1  UNL1       -0.2748
     17 N           2.5876    2.4906   38.3772 N.am    1  UNL1       -0.2839
     18 H           2.9787    3.3500   38.6561 H       1  UNL1        0.1549
     19 N           7.3588   -2.0026   29.1416 N.am    1  UNL1       -0.2729
     20 C           8.7979   -1.6010   29.2748 C.3     1  UNL1        0.1152
     21 C           6.5956   -1.6564   27.8975 C.2     1  UNL1        0.2465
     22 O           7.2715   -0.9087   26.7866 O.2     1  UNL1       -0.2730
     23 C           5.1565   -2.0580   27.7644 C.3     1  UNL1        0.1835
     24 N           4.2145   -1.2155   26.9563 N.am    1  UNL1       -0.2439
     25 C           4.1885   -1.3425   25.4619 C.2     1  UNL1        0.2744
     26 O           5.1046   -2.3119   24.7755 O.2     1  UNL1       -0.2705
     27 C           3.2465   -0.5001   24.6539 C.3     1  UNL1        0.2900
     28 O           2.3304    0.4693   25.3403 O.3     1  UNL1       -0.4643
     29 C           2.3564    0.5962   26.8347 C.ar    1  UNL1        0.1525
     30 C           1.4403    1.5656   27.5210 C.ar    1  UNL1        0.0336
     31 C           1.4662    1.6926   29.0154 C.ar    1  UNL1       -0.0227
     32 C           0.5502    2.6620   29.7018 C.3     1  UNL1        0.0308
     33 C           2.4083    0.8502   29.8235 C.ar    1  UNL1       -0.0244
     34 C           2.4343    0.9772   31.3178 C.3     1  UNL1        0.0307
     35 C           3.3244   -0.1192   29.1371 C.ar    1  UNL1        0.0134
     36 C           3.2984   -0.2462   27.6426 C.ar    1  UNL1        0.0882
     37 C           6.5921   -4.2467   30.2027 C.3     1  UNL1        0.0968
     38 N           7.1951   -4.9968   29.0522 N.3     1  UNL1       -0.2667
     39 C           8.6579   -5.3290   29.0577 C.3     1  UNL1        0.1047
     40 C           9.2610   -6.0791   27.9072 C.3     1  UNL1        0.1595
     41 O           8.4012   -6.4970   26.7511 O.3     1  UNL1       -0.3508
     42 C           6.9385   -6.1648   26.7457 C.3     1  UNL1        0.1595
     43 C           6.3355   -5.4147   27.8962 C.3     1  UNL1        0.1047
@<TRIPOS>BOND
     1    14    15    1
     2    15    16    2
     3    15    17   am
     4    17     8    1
     5     8     9   ar
     6     9    10   ar
     7    10    11   ar
     8    11     2    1
     9     2     3   ar
    10     3     4   ar
    11     4     5   ar
    12     5     1    1
    13     1    37    1
    14    37    38    1
    15    38    39    1
    16    39    40    1
    17    40    41    1
    18    41    42    1
    19    42    43    1
    20     1    19    1
    21    19    20    1
    22    19    21   am
    23    21    22    2
    24    21    23    1
    25    23    24    1
    26    24    25   am
    27    25    26    2
    28    25    27    1
    29    27    28    1
    30    28    29    1
    31    29    30   ar
    32    30    31   ar
    33    31    32    1
    34    31    33   ar
    35    33    34    1
    36    33    35   ar
    37    35    36   ar
    38     5     6   ar
    39     6     7   ar
    40    11    12   ar
    41    12    13   ar
    42    13     8   ar
    43     7     2   ar
    44    43    38    1
    45    36    24    1
    46    36    29   ar
    47    17    18    1
@<TRIPOS>MOLECULE
*****
 43 47 0 0 0
SMALL
GASTEIGER

@<TRIPOS>ATOM
      1 C           0.6579    3.8689   26.4174 C.3     1  UNL1        0.1139
      2 C           2.1570    0.9504   23.3375 C.ar    1  UNL1       -0.0000
      3 C           0.8251    0.7320   23.9922 C.ar    1  UNL1       -0.0003
      4 C           0.3255    1.7048   25.0188 C.ar    1  UNL1       -0.0026
      5 C           1.1576    2.8961   25.3908 C.ar    1  UNL1       -0.0029
      6 C           2.4894    3.1146   24.7362 C.ar    1  UNL1       -0.0026
      7 C           2.9891    2.1418   23.7095 C.ar    1  UNL1       -0.0003
      8 C           3.6561   -1.9680   20.2577 C.ar    1  UNL1        0.0503
      9 C           2.3207   -1.3086   20.0787 C.ar    1  UNL1        0.0147
     10 C           1.8210   -0.3357   21.1054 C.ar    1  UNL1        0.0013
     11 C           2.6567   -0.0223   22.3109 C.ar    1  UNL1        0.0001
     12 C           3.9920   -0.6817   22.4899 C.ar    1  UNL1        0.0013
     13 C           4.4917   -1.6545   21.4633 C.ar    1  UNL1        0.0147
     14 C           4.7900   -5.3668   18.5512 C.3     1  UNL1        0.0949
     15 C           4.2903   -4.3940   19.5778 C.2     1  UNL1        0.2266
     16 O           3.9251   -4.8743   20.9510 O.2     1  UNL1       -0.2748
     17 N           4.1557   -2.9408   19.2311 N.am    1  UNL1       -0.2839
     18 H           4.3954   -2.6255   18.3298 H       1  UNL1        0.1549
     19 N           0.0546    5.1722   25.9845 N.am    1  UNL1       -0.2729
     20 C           0.8412    6.4427   26.1146 C.3     1  UNL1        0.1152
     21 C          -1.3355    5.2050   25.4216 C.2     1  UNL1        0.2465
     22 O          -1.9388    6.5083   24.9888 O.2     1  UNL1       -0.2730
     23 C          -2.1221    3.9345   25.2916 C.3     1  UNL1        0.1835
     24 N          -2.9915    3.7102   24.0899 N.am    1  UNL1       -0.2439
     25 C          -4.4748    3.5605   24.2547 C.2     1  UNL1        0.2744
     26 O          -5.0889    3.6349   25.6213 O.2     1  UNL1       -0.2705
     27 C          -5.3441    3.3363   23.0531 C.3     1  UNL1        0.2900
     28 O          -4.7300    3.2618   21.6866 O.3     1  UNL1       -0.4643
     29 C          -3.2467    3.4116   21.5217 C.ar    1  UNL1        0.1525
     30 C          -2.6326    3.3371   20.1552 C.ar    1  UNL1        0.0336
     31 C          -1.1492    3.4869   19.9904 C.ar    1  UNL1       -0.0227
     32 C          -0.5352    3.4124   18.6239 C.3     1  UNL1        0.0308
     33 C          -0.2799    3.7111   21.1921 C.ar    1  UNL1       -0.0244
     34 C           1.2034    3.8609   21.0272 C.3     1  UNL1        0.0307
     35 C          -0.8940    3.7856   22.5586 C.ar    1  UNL1        0.0134
     36 C          -2.3774    3.6358   22.7234 C.ar    1  UNL1        0.0882
     37 C           0.7615    3.5383   27.8769 C.3     1  UNL1        0.0968
     38 N           0.4212    2.1595   28.3596 N.3     1  UNL1       -0.2667
     39 C          -0.9845    1.6493   28.2419 C.3     1  UNL1        0.1047
     40 C          -1.3247    0.2704   28.7246 C.3     1  UNL1        0.1595
     41 O          -0.2593   -0.5982   29.3250 O.3     1  UNL1       -0.3508
     42 C           1.1463   -0.0879   29.4427 C.3     1  UNL1        0.1595
     43 C           1.4866    1.2909   28.9600 C.3     1  UNL1        0.1047
@<TRIPOS>BOND
     1    14    15    1
     2    15    16    2
     3    15    17   am
     4    17     8    1
     5     8     9   ar
     6     9    10   ar
     7    10    11   ar
     8    11     2    1
     9     2     3   ar
    10     3     4   ar
    11     4     5   ar
    12     5     1    1
    13     1    37    1
    14    37    38    1
    15    38    39    1
    16    39    40    1
    17    40    41    1
    18    41    42    1
    19    42    43    1
    20     1    19    1
    21    19    20    1
    22    19    21   am
    23    21    22    2
    24    21    23    1
    25    23    24    1
    26    24    25   am
    27    25    26    2
    28    25    27    1
    29    27    28    1
    30    28    29    1
    31    29    30   ar
    32    30    31   ar
    33    31    32    1
    34    31    33   ar
    35    33    34    1
    36    33    35   ar
    37    35    36   ar
    38     5     6   ar
    39     6     7   ar
    40    11    12   ar
    41    12    13   ar
    42    13     8   ar
    43     7     2   ar
    44    43    38    1
    45    36    24    1
    46    36    29   ar
    47    17    18    1
@<TRIPOS>MOLECULE
*****
 43 47 0 0 0
SMALL
GASTEIGER

@<TRIPOS>ATOM
      1 C           6.7159   -2.5793   30.2167 C.3     1  UNL1        0.1139
      2 C           4.9554   -0.4108   33.7448 C.ar    1  UNL1       -0.0000
      3 C           5.7165    0.3504   32.7001 C.ar    1  UNL1       -0.0003
      4 C           6.3034   -0.3724   31.5241 C.ar    1  UNL1       -0.0026
      5 C           6.1291   -1.8564   31.3927 C.ar    1  UNL1       -0.0029
      6 C           5.3680   -2.6176   32.4373 C.ar    1  UNL1       -0.0026
      7 C           4.7812   -1.8948   33.6134 C.ar    1  UNL1       -0.0003
      8 C           3.1949    1.7579   37.2729 C.ar    1  UNL1        0.0503
      9 C           2.8860    2.2183   35.8792 C.ar    1  UNL1        0.0147
     10 C           3.4729    1.4954   34.7031 C.ar    1  UNL1        0.0013
     11 C           4.3686    0.3121   34.9208 C.ar    1  UNL1        0.0001
     12 C           4.6775   -0.1483   36.3146 C.ar    1  UNL1        0.0013
     13 C           4.0907    0.5745   37.4906 C.ar    1  UNL1        0.0147
     14 C           0.8117    2.6500   40.3183 C.3     1  UNL1        0.0949
     15 C           1.3985    1.9272   39.1422 C.2     1  UNL1        0.2266
     16 O           0.7758    0.6508   38.6594 O.2     1  UNL1       -0.2748
     17 N           2.6081    2.4807   38.4490 N.am    1  UNL1       -0.2839
     18 H           3.0168    3.3184   38.7658 H       1  UNL1        0.1549
     19 N           7.3487   -1.8040   29.0993 N.am    1  UNL1       -0.2729
     20 C           8.8130   -1.4820   29.1451 C.3     1  UNL1        0.1152
     21 C           6.5171   -1.3507   27.9360 C.2     1  UNL1        0.2465
     22 O           7.1499   -0.5755   26.8186 O.2     1  UNL1       -0.2730
     23 C           5.0529   -1.6727   27.8902 C.3     1  UNL1        0.1835
     24 N           4.0939   -0.7142   27.2486 N.am    1  UNL1       -0.2439
     25 C           3.4281    0.3463   28.0745 C.2     1  UNL1        0.2744
     26 O           3.7214    0.4483   29.5420 O.2     1  UNL1       -0.2705
     27 C           2.4692    1.3047   27.4329 C.3     1  UNL1        0.2900
     28 O           2.1760    1.2027   25.9654 O.3     1  UNL1       -0.4643
     29 C           2.8417    0.1423   25.1394 C.ar    1  UNL1        0.1525
     30 C           2.5484    0.0403   23.6719 C.ar    1  UNL1        0.0336
     31 C           3.2141   -1.0202   22.8460 C.ar    1  UNL1       -0.0227
     32 C           2.9209   -1.1222   21.3785 C.3     1  UNL1        0.0308
     33 C           4.1731   -1.9788   23.4876 C.ar    1  UNL1       -0.0244
     34 C           4.8389   -3.0392   22.6617 C.3     1  UNL1        0.0307
     35 C           4.4664   -1.8768   24.9551 C.ar    1  UNL1        0.0134
     36 C           3.8006   -0.8162   25.7810 C.ar    1  UNL1        0.0882
     37 C           6.6700   -4.0775   30.1580 C.3     1  UNL1        0.0968
     38 N           7.1839   -4.7967   28.9461 N.3     1  UNL1       -0.2667
     39 C           8.6478   -5.0975   28.8171 C.3     1  UNL1        0.1047
     40 C           9.1618   -5.8166   27.6053 C.3     1  UNL1        0.1595
     41 O           8.2119   -6.2351   26.5224 O.3     1  UNL1       -0.3508
     42 C           6.7480   -5.9343   26.6514 C.3     1  UNL1        0.1595
     43 C           6.2341   -5.2151   27.8632 C.3     1  UNL1        0.1047
@<TRIPOS>BOND
     1    14    15    1
     2    15    16    2
     3    15    17   am
     4    17     8    1
     5     8     9   ar
     6     9    10   ar
     7    10    11   ar
     8    11     2    1
     9     2     3   ar
    10     3     4   ar
    11     4     5   ar
    12     5     1    1
    13     1    37    1
    14    37    38    1
    15    38    39    1
    16    39    40    1
    17    40    41    1
    18    41    42    1
    19    42    43    1
    20     1    19    1
    21    19    20    1
    22    19    21   am
    23    21    22    2
    24    21    23    1
    25    23    24    1
    26    24    25   am
    27    25    26    2
    28    25    27    1
    29    27    28    1
    30    28    29    1
    31    29    30   ar
    32    30    31   ar
    33    31    32    1
    34    31    33   ar
    35    33    34    1
    36    33    35   ar
    37    35    36   ar
    38     5     6   ar
    39     6     7   ar
    40    11    12   ar
    41    12    13   ar
    42    13     8   ar
    43     7     2   ar
    44    43    38    1
    45    36    24    1
    46    36    29   ar
    47    17    18    1
@<TRIPOS>MOLECULE
*****
 43 47 0 0 0
SMALL
GASTEIGER

@<TRIPOS>ATOM
      1 C           2.8982    0.2349   27.0533 C.3     1  UNL1        0.1139
      2 C          -0.8601    2.5161   26.0936 C.ar    1  UNL1       -0.0000
      3 C          -0.0229    1.9497   24.9853 C.ar    1  UNL1       -0.0003
      4 C           1.2299    1.1893   25.3052 C.ar    1  UNL1       -0.0026
      5 C           1.6455    0.9953   26.7334 C.ar    1  UNL1       -0.0029
      6 C           0.8083    1.5616   27.8416 C.ar    1  UNL1       -0.0026
      7 C          -0.4445    2.3221   27.5218 C.ar    1  UNL1       -0.0003
      8 C          -4.6184    4.7973   25.1339 C.ar    1  UNL1        0.0503
      9 C          -3.5897    4.5640   24.0674 C.ar    1  UNL1        0.0147
     10 C          -2.3369    3.8035   24.3874 C.ar    1  UNL1        0.0013
     11 C          -2.1128    3.2765   25.7737 C.ar    1  UNL1        0.0001
     12 C          -3.1416    3.5098   26.8402 C.ar    1  UNL1        0.0013
     13 C          -4.3943    4.2702   26.5203 C.ar    1  UNL1        0.0147
     14 C          -8.0470    5.8248   23.4195 C.3     1  UNL1        0.0949
     15 C          -6.7942    5.0644   23.7394 C.2     1  UNL1        0.2266
     16 O          -6.4645    3.8107   22.9848 O.2     1  UNL1       -0.2748
     17 N          -5.8712    5.5577   24.8140 N.am    1  UNL1       -0.2839
     18 H          -6.0876    6.3805   25.3093 H       1  UNL1        0.1549
     19 N           4.1890    0.5994   26.3817 N.am    1  UNL1       -0.2729
     20 C           4.9744    1.7847   26.8594 C.3     1  UNL1        0.1152
     21 C           4.6944   -0.2214   25.2323 C.2     1  UNL1        0.2465
     22 O           5.9852    0.1432   24.5607 O.2     1  UNL1       -0.2730
     23 C           3.9090   -1.4066   24.7546 C.3     1  UNL1        0.1835
     24 N           4.1507   -1.9630   23.3827 N.am    1  UNL1       -0.2439
     25 C           5.1097   -3.1007   23.1930 C.2     1  UNL1        0.2744
     26 O           5.8270   -3.6820   24.3751 O.2     1  UNL1       -0.2705
     27 C           5.3514   -3.6570   21.8211 C.3     1  UNL1        0.2900
     28 O           4.6340   -3.0757   20.6389 O.3     1  UNL1       -0.4643
     29 C           3.6751   -1.9380   20.8286 C.ar    1  UNL1        0.1525
     30 C           2.9577   -1.3567   19.6465 C.ar    1  UNL1        0.0336
     31 C           1.9987   -0.2190   19.8362 C.ar    1  UNL1       -0.0227
     32 C           1.2814    0.3623   18.6540 C.3     1  UNL1        0.0308
     33 C           1.7570    0.3374   21.2081 C.ar    1  UNL1       -0.0244
     34 C           0.7980    1.4750   21.3978 C.3     1  UNL1        0.0307
     35 C           2.4744   -0.2440   22.3903 C.ar    1  UNL1        0.0134
     36 C           3.4334   -1.3817   22.2005 C.ar    1  UNL1        0.0882
     37 C           2.8603   -0.8901   28.0448 C.3     1  UNL1        0.0968
     38 N           3.4848   -0.7187   29.3978 N.3     1  UNL1       -0.2667
     39 C           4.9653   -0.8903   29.5676 C.3     1  UNL1        0.1047
     40 C           5.5898   -0.7189   30.9206 C.3     1  UNL1        0.1595
     41 O           4.7338   -0.3760   32.1038 O.3     1  UNL1       -0.3508
     42 C           3.2534   -0.2044   31.9339 C.3     1  UNL1        0.1595
     43 C           2.6289   -0.3758   30.5809 C.3     1  UNL1        0.1047
@<TRIPOS>BOND
     1    14    15    1
     2    15    16    2
     3    15    17   am
     4    17     8    1
     5     8     9   ar
     6     9    10   ar
     7    10    11   ar
     8    11     2    1
     9     2     3   ar
    10     3     4   ar
    11     4     5   ar
    12     5     1    1
    13     1    37    1
    14    37    38    1
    15    38    39    1
    16    39    40    1
    17    40    41    1
    18    41    42    1
    19    42    43    1
    20     1    19    1
    21    19    20    1
    22    19    21   am
    23    21    22    2
    24    21    23    1
    25    23    24    1
    26    24    25   am
    27    25    26    2
    28    25    27    1
    29    27    28    1
    30    28    29    1
    31    29    30   ar
    32    30    31   ar
    33    31    32    1
    34    31    33   ar
    35    33    34    1
    36    33    35   ar
    37    35    36   ar
    38     5     6   ar
    39     6     7   ar
    40    11    12   ar
    41    12    13   ar
    42    13     8   ar
    43     7     2   ar
    44    43    38    1
    45    36    24    1
    46    36    29   ar
    47    17    18    1
@<TRIPOS>MOLECULE
*****
 43 47 0 0 0
SMALL
GASTEIGER

@<TRIPOS>ATOM
      1 C          -0.2096    2.2107   21.1431 C.3     1  UNL1        0.1139
      2 C           0.1042    2.1750   25.6320 C.ar    1  UNL1       -0.0000
      3 C          -0.7859    3.1715   24.9502 C.ar    1  UNL1       -0.0003
      4 C          -0.8904    3.1835   23.4540 C.ar    1  UNL1       -0.0026
      5 C          -0.1050    2.1988   22.6393 C.ar    1  UNL1       -0.0029
      6 C           0.7850    1.2023   23.3210 C.ar    1  UNL1       -0.0026
      7 C           0.8897    1.1904   24.8173 C.ar    1  UNL1       -0.0003
      8 C           0.4180    2.1392   30.1209 C.ar    1  UNL1        0.0503
      9 C          -0.0590    0.9177   29.3926 C.ar    1  UNL1        0.0147
     10 C          -0.1636    0.9296   27.8962 C.ar    1  UNL1        0.0013
     11 C           0.2088    2.1631   27.1282 C.ar    1  UNL1        0.0001
     12 C           0.6859    3.3846   27.8565 C.ar    1  UNL1        0.0013
     13 C           0.7905    3.3727   29.3527 C.ar    1  UNL1        0.0147
     14 C           1.9747    2.0673   33.7707 C.3     1  UNL1        0.0949
     15 C           1.8701    2.0792   32.2744 C.2     1  UNL1        0.2266
     16 O           3.1130    2.0430   31.4354 O.2     1  UNL1       -0.2748
     17 N           0.5226    2.1273   31.6171 N.am    1  UNL1       -0.2839
     18 H          -0.2931    2.1510   32.1678 H       1  UNL1        0.1549
     19 N          -0.3305    3.5138   20.4100 N.am    1  UNL1       -0.2729
     20 C           0.8786    4.3800   20.2156 C.3     1  UNL1        0.1152
     21 C          -1.6606    3.9508   19.8714 C.2     1  UNL1        0.2465
     22 O          -1.7814    5.2538   19.1383 O.2     1  UNL1       -0.2730
     23 C          -2.8697    3.0846   20.0658 C.3     1  UNL1        0.1835
     24 N          -4.2430    3.6751   19.9422 N.am    1  UNL1       -0.2439
     25 C          -4.8394    3.9094   18.5859 C.2     1  UNL1        0.2744
     26 O          -4.0625    3.5531   17.3533 O.2     1  UNL1       -0.2705
     27 C          -6.2127    4.4999   18.4624 C.3     1  UNL1        0.2900
     28 O          -6.9896    4.8561   19.6951 O.3     1  UNL1       -0.4643
     29 C          -6.3932    4.6219   21.0513 C.ar    1  UNL1        0.1525
     30 C          -7.1701    4.9782   22.2840 C.ar    1  UNL1        0.0336
     31 C          -6.5738    4.7440   23.6402 C.ar    1  UNL1       -0.0227
     32 C          -7.3507    5.1002   24.8729 C.3     1  UNL1        0.0308
     33 C          -5.2004    4.1534   23.7638 C.ar    1  UNL1       -0.0244
     34 C          -4.6040    3.9192   25.1200 C.3     1  UNL1        0.0307
     35 C          -4.4235    3.7972   22.5311 C.ar    1  UNL1        0.0134
     36 C          -5.0199    4.0314   21.1748 C.ar    1  UNL1        0.0882
     37 C          -0.1933    0.9195   20.3798 C.3     1  UNL1        0.0968
     38 N           1.0955    0.3966   19.8180 N.3     1  UNL1       -0.2667
     39 C           1.7134   -0.8453   20.3889 C.3     1  UNL1        0.1047
     40 C           3.0022   -1.3682   19.8272 C.3     1  UNL1        0.1595
     41 O           3.6730   -0.6492   18.6944 O.3     1  UNL1       -0.3508
     42 C           3.0551    0.5926   18.1235 C.3     1  UNL1        0.1595
     43 C           1.7663    1.1155   18.6853 C.3     1  UNL1        0.1047
@<TRIPOS>BOND
     1    14    15    1
     2    15    16    2
     3    15    17   am
     4    17     8    1
     5     8     9   ar
     6     9    10   ar
     7    10    11   ar
     8    11     2    1
     9     2     3   ar
    10     3     4   ar
    11     4     5   ar
    12     5     1    1
    13     1    37    1
    14    37    38    1
    15    38    39    1
    16    39    40    1
    17    40    41    1
    18    41    42    1
    19    42    43    1
    20     1    19    1
    21    19    20    1
    22    19    21   am
    23    21    22    2
    24    21    23    1
    25    23    24    1
    26    24    25   am
    27    25    26    2
    28    25    27    1
    29    27    28    1
    30    28    29    1
    31    29    30   ar
    32    30    31   ar
    33    31    32    1
    34    31    33   ar
    35    33    34    1
    36    33    35   ar
    37    35    36   ar
    38     5     6   ar
    39     6     7   ar
    40    11    12   ar
    41    12    13   ar
    42    13     8   ar
    43     7     2   ar
    44    43    38    1
    45    36    24    1
    46    36    29   ar
    47    17    18    1
@<TRIPOS>MOLECULE
*****
 43 47 0 0 0
SMALL
GASTEIGER

@<TRIPOS>ATOM
      1 C           4.4888   -1.3957   23.0546 C.3     1  UNL1        0.1139
      2 C           1.1735    1.2541   24.5505 C.ar    1  UNL1       -0.0000
      3 C           2.1504    0.6558   25.5190 C.ar    1  UNL1       -0.0003
      4 C           3.2554   -0.2275   25.0203 C.ar    1  UNL1       -0.0026
      5 C           3.3837   -0.5124   23.5532 C.ar    1  UNL1       -0.0029
      6 C           2.4070    0.0859   22.5848 C.ar    1  UNL1       -0.0026
      7 C           1.3018    0.9692   23.0834 C.ar    1  UNL1       -0.0003
      8 C          -2.1417    3.9039   26.0465 C.ar    1  UNL1        0.0503
      9 C          -1.5715    2.8405   26.9376 C.ar    1  UNL1        0.0147
     10 C          -0.4664    1.9572   26.4389 C.ar    1  UNL1        0.0013
     11 C           0.0685    2.1374   25.0491 C.ar    1  UNL1        0.0001
     12 C          -0.5017    3.2007   24.1580 C.ar    1  UNL1        0.0013
     13 C          -1.6068    4.0840   24.6566 C.ar    1  UNL1        0.0147
     14 C          -5.7780    5.3501   26.7066 C.3     1  UNL1        0.0949
     15 C          -4.6729    4.4669   26.2079 C.2     1  UNL1        0.2266
     16 O          -4.9939    3.2634   25.3722 O.2     1  UNL1       -0.2748
     17 N          -3.2467    4.7871   26.5451 N.am    1  UNL1       -0.2839
     18 H          -3.0360    5.5770   27.0936 H       1  UNL1        0.1549
     19 N           5.9155   -1.0710   23.3851 N.am    1  UNL1       -0.2729
     20 C           6.5949    0.0879   22.7178 C.3     1  UNL1        0.1152
     21 C           6.6627   -1.9053   24.3829 C.2     1  UNL1        0.2465
     22 O           8.0894   -1.5807   24.7134 O.2     1  UNL1       -0.2730
     23 C           5.9833   -3.0642   25.0502 C.3     1  UNL1        0.1835
     24 N           6.7472   -4.3262   25.3222 N.am    1  UNL1       -0.2439
     25 C           7.2140   -5.1810   24.1814 C.2     1  UNL1        0.2744
     26 O           6.9169   -4.7739   22.7686 O.2     1  UNL1       -0.2705
     27 C           7.9779   -6.4429   24.4534 C.3     1  UNL1        0.2900
     28 O           8.2750   -6.8501   25.8662 O.3     1  UNL1       -0.4643
     29 C           7.8082   -5.9953   27.0070 C.ar    1  UNL1        0.1525
     30 C           8.1053   -6.4024   28.4198 C.ar    1  UNL1        0.0336
     31 C           7.6385   -5.5476   29.5606 C.ar    1  UNL1       -0.0227
     32 C           7.9356   -5.9547   30.9733 C.3     1  UNL1        0.0308
     33 C           6.8746   -4.2856   29.2886 C.ar    1  UNL1       -0.0244
     34 C           6.4079   -3.4308   30.4293 C.3     1  UNL1        0.0307
     35 C           6.5775   -3.8785   27.8758 C.ar    1  UNL1        0.0134
     36 C           7.0443   -4.7334   26.7350 C.ar    1  UNL1        0.0882
     37 C           4.1672   -2.6037   22.2254 C.3     1  UNL1        0.0968
     38 N           4.4948   -2.6175   20.7617 N.3     1  UNL1       -0.2667
     39 C           4.6898   -3.9230   20.0491 C.3     1  UNL1        0.1047
     40 C           5.0175   -3.9368   18.5854 C.3     1  UNL1        0.1595
     41 O           5.1501   -2.6451   17.8343 O.3     1  UNL1       -0.3508
     42 C           4.9551   -1.3397   18.5469 C.3     1  UNL1        0.1595
     43 C           4.6275   -1.3259   20.0106 C.3     1  UNL1        0.1047
@<TRIPOS>BOND
     1    14    15    1
     2    15    16    2
     3    15    17   am
     4    17     8    1
     5     8     9   ar
     6     9    10   ar
     7    10    11   ar
     8    11     2    1
     9     2     3   ar
    10     3     4   ar
    11     4     5   ar
    12     5     1    1
    13     1    37    1
    14    37    38    1
    15    38    39    1
    16    39    40    1
    17    40    41    1
    18    41    42    1
    19    42    43    1
    20     1    19    1
    21    19    20    1
    22    19    21   am
    23    21    22    2
    24    21    23    1
    25    23    24    1
    26    24    25   am
    27    25    26    2
    28    25    27    1
    29    27    28    1
    30    28    29    1
    31    29    30   ar
    32    30    31   ar
    33    31    32    1
    34    31    33   ar
    35    33    34    1
    36    33    35   ar
    37    35    36   ar
    38     5     6   ar
    39     6     7   ar
    40    11    12   ar
    41    12    13   ar
    42    13     8   ar
    43     7     2   ar
    44    43    38    1
    45    36    24    1
    46    36    29   ar
    47    17    18    1
@<TRIPOS>MOLECULE
*****
 43 47 0 0 0
SMALL
GASTEIGER

@<TRIPOS>ATOM
      1 C           4.0469    0.1701   21.6166 C.3     1  UNL1        0.1139
      2 C           3.8930   -0.0048   26.1106 C.ar    1  UNL1       -0.0000
      3 C           3.7775   -1.2659   25.3065 C.ar    1  UNL1       -0.0003
      4 C           3.8288   -1.2076   23.8085 C.ar    1  UNL1       -0.0026
      5 C           3.9956    0.1117   23.1146 C.ar    1  UNL1       -0.0029
      6 C           4.1111    1.3727   23.9186 C.ar    1  UNL1       -0.0026
      7 C           4.0598    1.3145   25.4166 C.ar    1  UNL1       -0.0003
      8 C           3.7390   -0.1798   30.6045 C.ar    1  UNL1        0.0503
      9 C           2.5768   -0.6729   29.7945 C.ar    1  UNL1        0.0147
     10 C           2.6282   -0.6146   28.2964 C.ar    1  UNL1        0.0013
     11 C           3.8417   -0.0632   27.6085 C.ar    1  UNL1        0.0001
     12 C           5.0039    0.4300   28.4185 C.ar    1  UNL1        0.0013
     13 C           4.9525    0.3717   29.9165 C.ar    1  UNL1        0.0147
     14 C           4.3202   -1.4137   34.3314 C.3     1  UNL1        0.0949
     15 C           4.3715   -1.3553   32.8334 C.2     1  UNL1        0.2266
     16 O           5.1067   -2.4142   32.0664 O.2     1  UNL1       -0.2748
     17 N           3.6877   -0.2381   32.1025 N.am    1  UNL1       -0.2839
     18 H           3.2052    0.4569   32.6059 H       1  UNL1        0.1549
     19 N           2.8763   -0.3035   20.8071 N.am    1  UNL1       -0.2729
     20 C           2.8408   -1.7121   20.2926 C.3     1  UNL1        0.1152
     21 C           1.7411    0.6316   20.5119 C.2     1  UNL1        0.2465
     22 O           0.5705    0.1580   19.7024 O.2     1  UNL1       -0.2730
     23 C           1.7765    2.0401   21.0263 C.3     1  UNL1        0.1835
     24 N           0.4982    2.8017   21.2161 N.am    1  UNL1       -0.2439
     25 C          -0.1213    3.5275   20.0588 C.2     1  UNL1        0.2744
     26 O           0.5375    3.4918   18.7117 O.2     1  UNL1       -0.2705
     27 C          -1.3996    4.2890   20.2487 C.3     1  UNL1        0.2900
     28 O          -2.0583    4.3247   21.5958 O.3     1  UNL1       -0.4643
     29 C          -1.4388    3.5989   22.7531 C.ar    1  UNL1        0.1525
     30 C          -2.0976    3.6346   24.1002 C.ar    1  UNL1        0.0336
     31 C          -1.4781    2.9088   25.2575 C.ar    1  UNL1       -0.0227
     32 C          -2.1368    2.9446   26.6046 C.3     1  UNL1        0.0308
     33 C          -0.1997    2.1473   25.0677 C.ar    1  UNL1       -0.0244
     34 C           0.4197    1.4215   26.2250 C.3     1  UNL1        0.0307
     35 C           0.4590    2.1115   23.7206 C.ar    1  UNL1        0.0134
     36 C          -0.1606    2.8374   22.5633 C.ar    1  UNL1        0.0882
     37 C           5.2689    0.7020   20.9281 C.3     1  UNL1        0.0968
     38 N           5.7596    0.0564   19.6662 N.3     1  UNL1       -0.2667
     39 C           5.4272    0.6630   18.3351 C.3     1  UNL1        0.1047
     40 C           5.9179    0.0174   17.0732 C.3     1  UNL1        0.1595
     41 O           6.7409   -1.2348   17.1423 O.3     1  UNL1       -0.3508
     42 C           7.0732   -1.8414   18.4733 C.3     1  UNL1        0.1595
     43 C           6.5825   -1.1958   19.7353 C.3     1  UNL1        0.1047
@<TRIPOS>BOND
     1    14    15    1
     2    15    16    2
     3    15    17   am
     4    17     8    1
     5     8     9   ar
     6     9    10   ar
     7    10    11   ar
     8    11     2    1
     9     2     3   ar
    10     3     4   ar
    11     4     5   ar
    12     5     1    1
    13     1    37    1
    14    37    38    1
    15    38    39    1
    16    39    40    1
    17    40    41    1
    18    41    42    1
    19    42    43    1
    20     1    19    1
    21    19    20    1
    22    19    21   am
    23    21    22    2
    24    21    23    1
    25    23    24    1
    26    24    25   am
    27    25    26    2
    28    25    27    1
    29    27    28    1
    30    28    29    1
    31    29    30   ar
    32    30    31   ar
    33    31    32    1
    34    31    33   ar
    35    33    34    1
    36    33    35   ar
    37    35    36   ar
    38     5     6   ar
    39     6     7   ar
    40    11    12   ar
    41    12    13   ar
    42    13     8   ar
    43     7     2   ar
    44    43    38    1
    45    36    24    1
    46    36    29   ar
    47    17    18    1
