@<TRIPOS>MOLECULE
*****
 33 36 0 0 0
SMALL
GASTEIGER

@<TRIPOS>ATOM
      1 N         -11.9488  -17.8859   23.2861 N.ar    1  UNL1       -0.2394
      2 N         -10.6832  -18.6772   23.1374 N.ar    1  UNL1       -0.1680
      3 C          -9.7590  -17.9091   22.2397 C.ar    1  UNL1        0.1094
      4 C         -10.4535  -16.6430   21.8336 C.ar    1  UNL1        0.1032
      5 C         -11.8068  -16.6287   22.4802 C.ar    1  UNL1        0.1280
      6 N         -12.8373  -15.5471   22.3449 N.pl3   1  UNL1       -0.3427
      7 H         -12.6501  -14.7555   21.7902 H       1  UNL1        0.1437
      8 H         -13.7007  -15.6287   22.8107 H       1  UNL1        0.1437
      9 C          -8.3821  -18.3326   21.8215 C.ar    1  UNL1        0.0387
     10 C          -8.1966  -19.1722   20.5925 C.ar    1  UNL1        0.1003
     11 N          -6.8198  -19.5958   20.1744 N.ar    1  UNL1       -0.2437
     12 C          -5.6284  -19.1797   20.9854 C.ar    1  UNL1        0.0843
     13 C          -4.2515  -19.6033   20.5672 C.ar    1  UNL1        0.0560
     14 C          -3.0602  -19.1873   21.3782 C.ar    1  UNL1        0.1399
     15 C          -3.2458  -18.3476   22.6073 C.ar    1  UNL1        0.0370
     16 C          -4.6226  -17.9241   23.0254 C.ar    1  UNL1        0.0046
     17 C          -5.8140  -18.3401   22.2144 C.ar    1  UNL1        0.0179
     18 C          -7.1908  -17.9166   22.6325 C.ar    1  UNL1        0.0046
     19 O          -1.6834  -19.6108   20.9601 O.3     1  UNL1       -0.4791
     20 C          -0.8257  -18.6819   20.1527 C.3     1  UNL1        0.1661
     21 C           0.4453  -17.9032   19.9853 C.3     1  UNL1        0.0472
     22 C          -0.6112  -17.8520   18.9219 C.3     1  UNL1        0.0472
     23 C          -9.8930  -15.5783   20.9380 C.2     1  UNL1        0.2470
     24 N          -8.6857  -14.7975   21.3655 N.am    1  UNL1       -0.3252
     25 O         -10.5399  -15.2942   19.6147 O.2     1  UNL1       -0.2702
     26 H          -8.2611  -14.9839   22.2339 H       1  UNL1        0.1453
     27 H          -8.3179  -14.0987   20.7776 H       1  UNL1        0.1453
     28 C         -12.2472  -18.6700   25.2345 C.3     1  UNL1        0.0270
     29 C         -13.1462  -18.2822   24.0980 C.3     1  UNL1        0.1147
     30 C         -14.0451  -17.8944   22.9616 C.3     1  UNL1        0.0270
     31 C         -14.3435  -18.6785   24.9100 C.3     1  UNL1        0.1594
     32 O         -14.2706  -18.6682   26.4082 O.3     1  UNL1       -0.3800
     33 H         -13.6416  -19.3440   26.7059 H       1  UNL1        0.2105
@<TRIPOS>BOND
     1    28    29    1
     2    29    30    1
     3    29    31    1
     4    31    32    1
     5    29     1    1
     6     1     2   ar
     7     2     3   ar
     8     3     9    1
     9     9    10   ar
    10    10    11   ar
    11    11    12   ar
    12    12    13   ar
    13    13    14   ar
    14    14    19    1
    15    19    20    1
    16    20    21    1
    17    21    22    1
    18    14    15   ar
    19    15    16   ar
    20    16    17   ar
    21    17    18   ar
    22     3     4   ar
    23     4    23    1
    24    23    24   am
    25    23    25    2
    26     4     5   ar
    27     5     6    1
    28     5     1   ar
    29    18     9   ar
    30    17    12   ar
    31    22    20    1
    32    32    33    1
    33    24    26    1
    34    24    27    1
    35     6     7    1
    36     6     8    1
@<TRIPOS>MOLECULE
*****
 33 36 0 0 0
SMALL
GASTEIGER

@<TRIPOS>ATOM
      1 N         -11.8745  -18.2651   23.4615 N.ar    1  UNL1       -0.2394
      2 N         -10.4114  -18.4337   23.7457 N.ar    1  UNL1       -0.1680
      3 C          -9.6627  -18.2225   22.4632 C.ar    1  UNL1        0.1094
      4 C         -10.6631  -17.9233   21.3864 C.ar    1  UNL1        0.1032
      5 C         -12.0301  -17.9497   22.0033 C.ar    1  UNL1        0.1280
      6 N         -13.3252  -17.7037   21.2877 N.pl3   1  UNL1       -0.3427
      7 H         -13.3247  -17.5030   20.3239 H       1  UNL1        0.1437
      8 H         -14.1758  -17.7431   21.7818 H       1  UNL1        0.1437
      9 C          -8.1747  -18.2973   22.2883 C.ar    1  UNL1        0.0387
     10 C          -7.2879  -17.3006   22.9740 C.ar    1  UNL1        0.1003
     11 N          -5.8001  -17.3754   22.7991 N.ar    1  UNL1       -0.2437
     12 C          -5.1990  -18.4470   21.9385 C.ar    1  UNL1        0.0843
     13 C          -3.7111  -18.5218   21.7637 C.ar    1  UNL1        0.0560
     14 C          -3.1100  -19.5933   20.9032 C.ar    1  UNL1        0.1399
     15 C          -3.9969  -20.5901   20.2175 C.ar    1  UNL1        0.0370
     16 C          -5.4847  -20.5153   20.3924 C.ar    1  UNL1        0.0046
     17 C          -6.0858  -19.4437   21.2529 C.ar    1  UNL1        0.0179
     18 C          -7.5737  -19.3689   21.4278 C.ar    1  UNL1        0.0046
     19 O          -1.6221  -19.6682   20.7283 O.3     1  UNL1       -0.4791
     20 C          -0.8450  -18.4337   20.3786 C.3     1  UNL1        0.1661
     21 C           0.4401  -17.7825   19.9609 C.3     1  UNL1        0.0472
     22 C          -0.7842  -16.9468   20.1905 C.3     1  UNL1        0.0472
     23 C         -10.3513  -17.6464   19.9455 C.2     1  UNL1        0.2470
     24 N         -10.7392  -16.3333   19.3330 N.am    1  UNL1       -0.3252
     25 O          -9.6514  -18.6828   19.1170 O.2     1  UNL1       -0.2702
     26 H         -11.1985  -15.6531   19.8767 H       1  UNL1        0.1453
     27 H         -10.5345  -16.1517   18.3873 H       1  UNL1        0.1453
     28 C         -13.8792  -17.5796   23.5675 C.3     1  UNL1        0.0270
     29 C         -12.9868  -18.3901   24.4601 C.3     1  UNL1        0.1147
     30 C         -12.0944  -19.2005   25.3527 C.3     1  UNL1        0.0270
     31 C         -14.0991  -18.5150   25.4587 C.3     1  UNL1        0.1594
     32 O         -15.5085  -18.7226   24.9893 O.3     1  UNL1       -0.3800
     33 H         -15.8089  -17.9349   24.5094 H       1  UNL1        0.2105
@<TRIPOS>BOND
     1    28    29    1
     2    29    30    1
     3    29    31    1
     4    31    32    1
     5    29     1    1
     6     1     2   ar
     7     2     3   ar
     8     3     9    1
     9     9    10   ar
    10    10    11   ar
    11    11    12   ar
    12    12    13   ar
    13    13    14   ar
    14    14    19    1
    15    19    20    1
    16    20    21    1
    17    21    22    1
    18    14    15   ar
    19    15    16   ar
    20    16    17   ar
    21    17    18   ar
    22     3     4   ar
    23     4    23    1
    24    23    24   am
    25    23    25    2
    26     4     5   ar
    27     5     6    1
    28     5     1   ar
    29    18     9   ar
    30    17    12   ar
    31    22    20    1
    32    32    33    1
    33    24    26    1
    34    24    27    1
    35     6     7    1
    36     6     8    1
@<TRIPOS>MOLECULE
*****
 33 36 0 0 0
SMALL
GASTEIGER

@<TRIPOS>ATOM
      1 N          -3.7610    4.0024   21.9303 N.ar    1  UNL1       -0.2394
      2 N          -3.0815    2.9430   21.1143 N.ar    1  UNL1       -0.1680
      3 C          -1.6208    3.2771   21.0446 C.ar    1  UNL1        0.1094
      4 C          -1.3976    4.5431   21.8176 C.ar    1  UNL1        0.1032
      5 C          -2.7202    4.9914   22.3650 C.ar    1  UNL1        0.1280
      6 N          -2.9601    6.2139   23.2003 N.pl3   1  UNL1       -0.3427
      7 H          -2.2085    6.8051   23.4349 H       1  UNL1        0.1437
      8 H          -3.8690    6.4252   23.5141 H       1  UNL1        0.1437
      9 C          -0.5682    2.4844   20.3278 C.ar    1  UNL1        0.0387
     10 C          -0.1758    2.8524   18.9277 C.ar    1  UNL1        0.1003
     11 N           0.8767    2.0597   18.2109 N.ar    1  UNL1       -0.2437
     12 C           1.5368    0.8990   18.8944 C.ar    1  UNL1        0.0843
     13 C           2.5894    0.1063   18.1776 C.ar    1  UNL1        0.0560
     14 C           3.2496   -1.0543   18.8611 C.ar    1  UNL1        0.1399
     15 C           2.8571   -1.4223   20.2614 C.ar    1  UNL1        0.0370
     16 C           1.8046   -0.6296   20.9781 C.ar    1  UNL1        0.0046
     17 C           1.1444    0.5311   20.2946 C.ar    1  UNL1        0.0179
     18 C           0.0919    1.3238   21.0113 C.ar    1  UNL1        0.0046
     19 O           4.3021   -1.8470   18.1444 O.3     1  UNL1       -0.4791
     20 C           4.7370   -3.1772   18.6845 C.3     1  UNL1        0.1661
     21 C           4.6245   -4.6729   18.6993 C.3     1  UNL1        0.0472
     22 C           5.6026   -3.9853   19.6051 C.3     1  UNL1        0.0472
     23 C          -0.0826    5.2387   22.0095 C.2     1  UNL1        0.2470
     24 N           0.5605    5.9574   20.8607 N.am    1  UNL1       -0.3252
     25 O           0.5894    5.2155   23.3504 O.2     1  UNL1       -0.2702
     26 H           0.1195    5.9726   19.9806 H       1  UNL1        0.1453
     27 H           1.4236    6.4140   20.9867 H       1  UNL1        0.1453
     28 C          -5.4687    4.8555   21.0052 C.3     1  UNL1        0.0270
     29 C          -5.2243    4.0624   22.2547 C.3     1  UNL1        0.1147
     30 C          -4.9798    3.2693   23.5041 C.3     1  UNL1        0.0270
     31 C          -6.6875    4.1224   22.5791 C.3     1  UNL1        0.1594
     32 O          -7.6296    4.8465   21.6636 O.3     1  UNL1       -0.3800
     33 H          -7.4228    5.7942   21.6705 H       1  UNL1        0.2105
@<TRIPOS>BOND
     1    28    29    1
     2    29    30    1
     3    29    31    1
     4    31    32    1
     5    29     1    1
     6     1     2   ar
     7     2     3   ar
     8     3     9    1
     9     9    10   ar
    10    10    11   ar
    11    11    12   ar
    12    12    13   ar
    13    13    14   ar
    14    14    19    1
    15    19    20    1
    16    20    21    1
    17    21    22    1
    18    14    15   ar
    19    15    16   ar
    20    16    17   ar
    21    17    18   ar
    22     3     4   ar
    23     4    23    1
    24    23    24   am
    25    23    25    2
    26     4     5   ar
    27     5     6    1
    28     5     1   ar
    29    18     9   ar
    30    17    12   ar
    31    22    20    1
    32    32    33    1
    33    24    26    1
    34    24    27    1
    35     6     7    1
    36     6     8    1
@<TRIPOS>MOLECULE
*****
 33 36 0 0 0
SMALL
GASTEIGER

@<TRIPOS>ATOM
      1 N           7.8944   -4.3958   28.2143 N.ar    1  UNL1       -0.2394
      2 N           7.7594   -3.6099   26.9438 N.ar    1  UNL1       -0.1680
      3 C           7.6348   -4.5822   25.8084 C.ar    1  UNL1        0.1094
      4 C           7.6927   -5.9690   26.3772 C.ar    1  UNL1        0.1032
      5 C           7.8531   -5.8538   27.8641 C.ar    1  UNL1        0.1280
      6 N           7.9545   -6.9961   28.8310 N.pl3   1  UNL1       -0.3427
      7 H           7.9169   -7.9235   28.5030 H       1  UNL1        0.1437
      8 H           8.0586   -6.8183   29.7938 H       1  UNL1        0.1437
      9 C           7.4795   -4.2295   24.3587 C.ar    1  UNL1        0.0387
     10 C           8.6885   -3.9065   23.5317 C.ar    1  UNL1        0.1003
     11 N           8.5331   -3.5539   22.0821 N.ar    1  UNL1       -0.2437
     12 C           7.1688   -3.5243   21.4594 C.ar    1  UNL1        0.0843
     13 C           7.0135   -3.1716   20.0097 C.ar    1  UNL1        0.0560
     14 C           5.6491   -3.1420   19.3871 C.ar    1  UNL1        0.1399
     15 C           4.4401   -3.4651   20.2141 C.ar    1  UNL1        0.0370
     16 C           4.5954   -3.8177   21.6637 C.ar    1  UNL1        0.0046
     17 C           5.9598   -3.8473   22.2864 C.ar    1  UNL1        0.0179
     18 C           6.1151   -4.1999   23.7360 C.ar    1  UNL1        0.0046
     19 O           5.4938   -2.7894   17.9374 O.3     1  UNL1       -0.4791
     20 C           4.8852   -1.4753   17.5462 C.3     1  UNL1        0.1661
     21 C           3.6775   -0.6017   17.3785 C.3     1  UNL1        0.0472
     22 C           5.0389   -0.0730   17.0364 C.3     1  UNL1        0.0472
     23 C           7.6055   -7.2466   25.5961 C.2     1  UNL1        0.2470
     24 N           8.2941   -7.3628   24.2687 N.am    1  UNL1       -0.3252
     25 O           6.8295   -8.4082   26.1427 O.2     1  UNL1       -0.2702
     26 H           8.8034   -6.6004   23.9100 H       1  UNL1        0.1453
     27 H           8.2368   -8.2014   23.7562 H       1  UNL1        0.1453
     28 C           6.5527   -3.8156   29.7516 C.3     1  UNL1        0.0270
     29 C           8.0442   -3.8241   29.5930 C.3     1  UNL1        0.1147
     30 C           9.5358   -3.8326   29.4344 C.3     1  UNL1        0.0270
     31 C           8.1941   -3.2524   30.9716 C.3     1  UNL1        0.1594
     32 O           7.6376   -3.9893   32.1537 O.3     1  UNL1       -0.3800
     33 H           6.6698   -4.0145   32.0927 H       1  UNL1        0.2105
@<TRIPOS>BOND
     1    28    29    1
     2    29    30    1
     3    29    31    1
     4    31    32    1
     5    29     1    1
     6     1     2   ar
     7     2     3   ar
     8     3     9    1
     9     9    10   ar
    10    10    11   ar
    11    11    12   ar
    12    12    13   ar
    13    13    14   ar
    14    14    19    1
    15    19    20    1
    16    20    21    1
    17    21    22    1
    18    14    15   ar
    19    15    16   ar
    20    16    17   ar
    21    17    18   ar
    22     3     4   ar
    23     4    23    1
    24    23    24   am
    25    23    25    2
    26     4     5   ar
    27     5     6    1
    28     5     1   ar
    29    18     9   ar
    30    17    12   ar
    31    22    20    1
    32    32    33    1
    33    24    26    1
    34    24    27    1
    35     6     7    1
    36     6     8    1
@<TRIPOS>MOLECULE
*****
 33 36 0 0 0
SMALL
GASTEIGER

@<TRIPOS>ATOM
      1 N           7.4197   -4.3570   28.8113 N.ar    1  UNL1       -0.2394
      2 N           6.5348   -4.5527   27.6161 N.ar    1  UNL1       -0.1680
      3 C           7.0140   -3.6362   26.5295 C.ar    1  UNL1        0.1094
      4 C           8.1950   -2.8741   27.0533 C.ar    1  UNL1        0.1032
      5 C           8.4458   -3.3196   28.4635 C.ar    1  UNL1        0.1280
      6 N           9.5320   -2.8160   29.3672 N.pl3   1  UNL1       -0.3427
      7 H          10.1607   -2.1299   29.0462 H       1  UNL1        0.1437
      8 H           9.6160   -3.1717   30.2813 H       1  UNL1        0.1437
      9 C           6.4168   -3.5049   25.1597 C.ar    1  UNL1        0.0387
     10 C           6.8479   -4.4314   24.0617 C.ar    1  UNL1        0.1003
     11 N           6.2508   -4.3001   22.6920 N.ar    1  UNL1       -0.2437
     12 C           5.2226   -3.2423   22.4203 C.ar    1  UNL1        0.0843
     13 C           4.6255   -3.1110   21.0505 C.ar    1  UNL1        0.0560
     14 C           3.5973   -2.0532   20.7788 C.ar    1  UNL1        0.1399
     15 C           3.1662   -1.1267   21.8769 C.ar    1  UNL1        0.0370
     16 C           3.7633   -1.2580   23.2467 C.ar    1  UNL1        0.0046
     17 C           4.7915   -2.3158   23.5183 C.ar    1  UNL1        0.0179
     18 C           5.3886   -2.4471   24.8880 C.ar    1  UNL1        0.0046
     19 O           3.0002   -1.9218   19.4091 O.3     1  UNL1       -0.4791
     20 C           3.7962   -1.2996   18.3004 C.3     1  UNL1        0.1661
     21 C           5.0757   -0.6985   17.7988 C.3     1  UNL1        0.0472
     22 C           3.8954   -0.8230   16.8816 C.3     1  UNL1        0.0472
     23 C           8.9864   -1.8469   26.2992 C.2     1  UNL1        0.2470
     24 N           9.5145   -2.1626   24.9313 N.am    1  UNL1       -0.3252
     25 O           9.2496   -0.5039   26.9133 O.2     1  UNL1       -0.2702
     26 H           9.3417   -3.0441   24.5283 H       1  UNL1        0.1453
     27 H          10.0338   -1.4884   24.4364 H       1  UNL1        0.1453
     28 C           6.6431   -3.8647   30.7230 C.3     1  UNL1        0.0270
     29 C           7.2996   -5.0730   30.1239 C.3     1  UNL1        0.1147
     30 C           7.9562   -6.2813   29.5248 C.3     1  UNL1        0.0270
     31 C           7.1796   -5.7890   31.4365 C.3     1  UNL1        0.1594
     32 O           6.3540   -5.1978   32.5405 O.3     1  UNL1       -0.3800
     33 H           6.7627   -4.3717   32.8430 H       1  UNL1        0.2105
@<TRIPOS>BOND
     1    28    29    1
     2    29    30    1
     3    29    31    1
     4    31    32    1
     5    29     1    1
     6     1     2   ar
     7     2     3   ar
     8     3     9    1
     9     9    10   ar
    10    10    11   ar
    11    11    12   ar
    12    12    13   ar
    13    13    14   ar
    14    14    19    1
    15    19    20    1
    16    20    21    1
    17    21    22    1
    18    14    15   ar
    19    15    16   ar
    20    16    17   ar
    21    17    18   ar
    22     3     4   ar
    23     4    23    1
    24    23    24   am
    25    23    25    2
    26     4     5   ar
    27     5     6    1
    28     5     1   ar
    29    18     9   ar
    30    17    12   ar
    31    22    20    1
    32    32    33    1
    33    24    26    1
    34    24    27    1
    35     6     7    1
    36     6     8    1
@<TRIPOS>MOLECULE
*****
 33 36 0 0 0
SMALL
GASTEIGER

@<TRIPOS>ATOM
      1 N           6.2661   -2.3134   31.5934 N.ar    1  UNL1       -0.2394
      2 N           6.2273   -1.6358   30.2558 N.ar    1  UNL1       -0.1680
      3 C           6.3864   -2.6878   29.1984 C.ar    1  UNL1        0.1094
      4 C           6.5236   -4.0156   29.8825 C.ar    1  UNL1        0.1032
      5 C           6.4492   -3.7843   31.3627 C.ar    1  UNL1        0.1280
      6 N           6.5418   -4.8386   32.4256 N.pl3   1  UNL1       -0.3427
      7 H           6.6626   -5.7826   32.1734 H       1  UNL1        0.1437
      8 H           6.4817   -4.5867   33.3754 H       1  UNL1        0.1437
      9 C           6.4051   -2.4531   27.7169 C.ar    1  UNL1        0.0387
     10 C           7.6785   -2.6334   26.9450 C.ar    1  UNL1        0.1003
     11 N           7.6971   -2.3987   25.4636 N.ar    1  UNL1       -0.2437
     12 C           6.4423   -1.9837   24.7542 C.ar    1  UNL1        0.0843
     13 C           6.4610   -1.7491   23.2727 C.ar    1  UNL1        0.0560
     14 C           5.2062   -1.3341   22.5632 C.ar    1  UNL1        0.1399
     15 C           3.9327   -1.1539   23.3352 C.ar    1  UNL1        0.0370
     16 C           3.9141   -1.3885   24.8166 C.ar    1  UNL1        0.0046
     17 C           5.1689   -1.8035   25.5261 C.ar    1  UNL1        0.0179
     18 C           5.1503   -2.0382   27.0074 C.ar    1  UNL1        0.0046
     19 O           5.2248   -1.0994   21.0819 O.3     1  UNL1       -0.4791
     20 C           4.6876   -2.1450   20.1500 C.3     1  UNL1        0.1661
     21 C           3.5230   -2.8246   19.4928 C.3     1  UNL1        0.0472
     22 C           4.9216   -3.2763   19.1933 C.3     1  UNL1        0.0472
     23 C           6.7035   -5.3419   29.2054 C.2     1  UNL1        0.2470
     24 N           5.8564   -5.7003   28.0206 N.am    1  UNL1       -0.3252
     25 O           7.7308   -6.3099   29.7132 O.2     1  UNL1       -0.2702
     26 H           5.1822   -5.0650   27.6873 H       1  UNL1        0.1453
     27 H           5.9745   -6.5708   27.5763 H       1  UNL1        0.1453
     28 C           7.6200   -1.3756   32.9302 C.3     1  UNL1        0.0270
     29 C           6.1433   -1.6388   32.9274 C.3     1  UNL1        0.1147
     30 C           4.6666   -1.9019   32.9247 C.3     1  UNL1        0.0270
     31 C           6.0206   -0.9641   34.2615 C.3     1  UNL1        0.1594
     32 O           4.7057   -0.9634   34.9834 O.3     1  UNL1       -0.3800
     33 H           4.0601   -0.4442   34.4789 H       1  UNL1        0.2105
@<TRIPOS>BOND
     1    28    29    1
     2    29    30    1
     3    29    31    1
     4    31    32    1
     5    29     1    1
     6     1     2   ar
     7     2     3   ar
     8     3     9    1
     9     9    10   ar
    10    10    11   ar
    11    11    12   ar
    12    12    13   ar
    13    13    14   ar
    14    14    19    1
    15    19    20    1
    16    20    21    1
    17    21    22    1
    18    14    15   ar
    19    15    16   ar
    20    16    17   ar
    21    17    18   ar
    22     3     4   ar
    23     4    23    1
    24    23    24   am
    25    23    25    2
    26     4     5   ar
    27     5     6    1
    28     5     1   ar
    29    18     9   ar
    30    17    12   ar
    31    22    20    1
    32    32    33    1
    33    24    26    1
    34    24    27    1
    35     6     7    1
    36     6     8    1
@<TRIPOS>MOLECULE
*****
 33 36 0 0 0
SMALL
GASTEIGER

@<TRIPOS>ATOM
      1 N           3.1929    0.2397   19.1039 N.ar    1  UNL1       -0.2394
      2 N           3.6471   -0.1957   20.4656 N.ar    1  UNL1       -0.1680
      3 C           4.5164   -1.4067   20.2991 C.ar    1  UNL1        0.1094
      4 C           4.5994   -1.7199   18.8345 C.ar    1  UNL1        0.1032
      5 C           3.7815   -0.7024   18.0958 C.ar    1  UNL1        0.1280
      6 N           3.5863   -0.6382   16.6099 N.pl3   1  UNL1       -0.3427
      7 H           4.0164   -1.3055   16.0277 H       1  UNL1        0.1437
      8 H           3.0282    0.0712   16.2170 H       1  UNL1        0.1437
      9 C           5.1852   -2.1705   21.4033 C.ar    1  UNL1        0.0387
     10 C           4.3582   -2.8310   22.4662 C.ar    1  UNL1        0.1003
     11 N           5.0271   -3.5947   23.5704 N.ar    1  UNL1       -0.2437
     12 C           6.5229   -3.6980   23.6117 C.ar    1  UNL1        0.0843
     13 C           7.1918   -4.4618   24.7160 C.ar    1  UNL1        0.0560
     14 C           8.6877   -4.5650   24.7573 C.ar    1  UNL1        0.1399
     15 C           9.5147   -3.9045   23.6944 C.ar    1  UNL1        0.0370
     16 C           8.8458   -3.1408   22.5902 C.ar    1  UNL1        0.0046
     17 C           7.3500   -3.0375   22.5489 C.ar    1  UNL1        0.0179
     18 C           6.6811   -2.2738   21.4447 C.ar    1  UNL1        0.0046
     19 O           9.3565   -5.3288   25.8615 O.3     1  UNL1       -0.4791
     20 C           8.9098   -6.7234   26.1864 C.3     1  UNL1        0.1661
     21 C           9.0817   -7.9946   26.9639 C.3     1  UNL1        0.0472
     22 C           7.9641   -7.8677   25.9715 C.3     1  UNL1        0.0472
     23 C           5.3658   -2.8518   18.2170 C.2     1  UNL1        0.2470
     24 N           4.8649   -4.2591   18.3528 N.am    1  UNL1       -0.3252
     25 O           6.6333   -2.5763   17.4635 O.2     1  UNL1       -0.2702
     26 H           4.0330   -4.4399   18.8473 H       1  UNL1        0.1453
     27 H           5.3680   -5.0020   17.9475 H       1  UNL1        0.1453
     28 C           1.0996    0.5267   18.9150 C.3     1  UNL1        0.0270
     29 C           2.3059    1.4113   18.8031 C.3     1  UNL1        0.1147
     30 C           3.5121    2.2958   18.6912 C.3     1  UNL1        0.0270
     31 C           1.4188    2.5829   18.5023 C.3     1  UNL1        0.1594
     32 O           0.0987    2.3691   17.8229 O.3     1  UNL1       -0.3800
     33 H           0.2479    2.0429   16.9217 H       1  UNL1        0.2105
@<TRIPOS>BOND
     1    28    29    1
     2    29    30    1
     3    29    31    1
     4    31    32    1
     5    29     1    1
     6     1     2   ar
     7     2     3   ar
     8     3     9    1
     9     9    10   ar
    10    10    11   ar
    11    11    12   ar
    12    12    13   ar
    13    13    14   ar
    14    14    19    1
    15    19    20    1
    16    20    21    1
    17    21    22    1
    18    14    15   ar
    19    15    16   ar
    20    16    17   ar
    21    17    18   ar
    22     3     4   ar
    23     4    23    1
    24    23    24   am
    25    23    25    2
    26     4     5   ar
    27     5     6    1
    28     5     1   ar
    29    18     9   ar
    30    17    12   ar
    31    22    20    1
    32    32    33    1
    33    24    26    1
    34    24    27    1
    35     6     7    1
    36     6     8    1
@<TRIPOS>MOLECULE
*****
 33 36 0 0 0
SMALL
GASTEIGER

@<TRIPOS>ATOM
      1 N           5.3989   -1.8173   19.9973 N.ar    1  UNL1       -0.2394
      2 N           5.0003   -1.9972   21.4321 N.ar    1  UNL1       -0.1680
      3 C           6.2026   -2.4761   22.1907 C.ar    1  UNL1        0.1094
      4 C           7.3442   -2.5922   21.2247 C.ar    1  UNL1        0.1032
      5 C           6.8475   -2.1850   19.8691 C.ar    1  UNL1        0.1280
      6 N           7.6573   -2.1515   18.6069 N.pl3   1  UNL1       -0.3427
      7 H           8.6064   -2.4126   18.6238 H       1  UNL1        0.1437
      8 H           7.2397   -1.8682   17.7615 H       1  UNL1        0.1437
      9 C           6.2541   -2.7848   23.6577 C.ar    1  UNL1        0.0387
     10 C           5.9770   -1.7051   24.6615 C.ar    1  UNL1        0.1003
     11 N           6.0286   -2.0138   26.1284 N.ar    1  UNL1       -0.2437
     12 C           6.3571   -3.4021   26.5916 C.ar    1  UNL1        0.0843
     13 C           6.4087   -3.7108   28.0587 C.ar    1  UNL1        0.0560
     14 C           6.7372   -5.0991   28.5219 C.ar    1  UNL1        0.1399
     15 C           7.0143   -6.1788   27.5181 C.ar    1  UNL1        0.0370
     16 C           6.9628   -5.8701   26.0511 C.ar    1  UNL1        0.0046
     17 C           6.6342   -4.4818   25.5879 C.ar    1  UNL1        0.0179
     18 C           6.5827   -4.1731   24.1210 C.ar    1  UNL1        0.0046
     19 O           6.7887   -5.4078   29.9889 O.3     1  UNL1       -0.4791
     20 C           6.9087   -4.2936   30.9860 C.3     1  UNL1        0.1661
     21 C           6.2919   -3.4183   32.0365 C.3     1  UNL1        0.0472
     22 C           7.7334   -3.2391   31.6626 C.3     1  UNL1        0.0472
     23 C           8.7378   -3.0373   21.5560 C.2     1  UNL1        0.2470
     24 N           9.3332   -4.2223   20.8553 N.am    1  UNL1       -0.3252
     25 O           9.5360   -2.2971   22.5880 O.2     1  UNL1       -0.2702
     26 H           8.8093   -4.7081   20.1780 H       1  UNL1        0.1453
     27 H          10.2479   -4.5144   21.0729 H       1  UNL1        0.1453
     28 C           4.1007   -2.7704   18.6167 C.3     1  UNL1        0.0270
     29 C           4.5058   -1.3515   18.8859 C.3     1  UNL1        0.1147
     30 C           4.9109    0.0674   19.1550 C.3     1  UNL1        0.0270
     31 C           3.6127   -0.8857   17.7745 C.3     1  UNL1        0.1594
     32 O           3.8964   -1.2994   16.3609 O.3     1  UNL1       -0.3800
     33 H           4.7346   -0.9066   16.0711 H       1  UNL1        0.2105
@<TRIPOS>BOND
     1    28    29    1
     2    29    30    1
     3    29    31    1
     4    31    32    1
     5    29     1    1
     6     1     2   ar
     7     2     3   ar
     8     3     9    1
     9     9    10   ar
    10    10    11   ar
    11    11    12   ar
    12    12    13   ar
    13    13    14   ar
    14    14    19    1
    15    19    20    1
    16    20    21    1
    17    21    22    1
    18    14    15   ar
    19    15    16   ar
    20    16    17   ar
    21    17    18   ar
    22     3     4   ar
    23     4    23    1
    24    23    24   am
    25    23    25    2
    26     4     5   ar
    27     5     6    1
    28     5     1   ar
    29    18     9   ar
    30    17    12   ar
    31    22    20    1
    32    32    33    1
    33    24    26    1
    34    24    27    1
    35     6     7    1
    36     6     8    1
@<TRIPOS>MOLECULE
*****
 33 36 0 0 0
SMALL
GASTEIGER

@<TRIPOS>ATOM
      1 N          -3.7893    4.2375   20.7057 N.ar    1  UNL1       -0.2394
      2 N          -3.0000    2.9711   20.5529 N.ar    1  UNL1       -0.1680
      3 C          -1.5753    3.2659   20.9182 C.ar    1  UNL1        0.1094
      4 C          -1.4840    4.7145   21.2967 C.ar    1  UNL1        0.1032
      5 C          -2.8523    5.3150   21.1654 C.ar    1  UNL1        0.1280
      6 N          -3.2192    6.7423   21.4447 N.pl3   1  UNL1       -0.3427
      7 H          -2.5299    7.3783   21.7439 H       1  UNL1        0.1437
      8 H          -4.1494    7.0432   21.3287 H       1  UNL1        0.1437
      9 C          -0.4410    2.2843   20.9069 C.ar    1  UNL1        0.0387
     10 C           0.0848    1.7310   22.1981 C.ar    1  UNL1        0.1003
     11 N           1.2190    0.7495   22.1868 N.ar    1  UNL1       -0.2437
     12 C           1.8274    0.3214   20.8842 C.ar    1  UNL1        0.0843
     13 C           2.9617   -0.6602   20.8729 C.ar    1  UNL1        0.0560
     14 C           3.5701   -1.0883   19.5704 C.ar    1  UNL1        0.1399
     15 C           3.0442   -0.5349   18.2792 C.ar    1  UNL1        0.0370
     16 C           1.9100    0.4466   18.2905 C.ar    1  UNL1        0.0046
     17 C           1.3016    0.8747   19.5930 C.ar    1  UNL1        0.0179
     18 C           0.1674    1.8562   19.6044 C.ar    1  UNL1        0.0046
     19 O           4.7043   -2.0698   19.5591 O.3     1  UNL1       -0.4791
     20 C           4.4353   -3.5240   19.3083 C.3     1  UNL1        0.1661
     21 C           4.8307   -4.8295   18.6842 C.3     1  UNL1        0.0472
     22 C           3.5739   -4.7373   19.4979 C.3     1  UNL1        0.0472
     23 C          -0.2425    5.4359   21.7303 C.2     1  UNL1        0.2470
     24 N          -0.1294    5.9583   23.1318 N.am    1  UNL1       -0.3252
     25 O           0.8860    5.6350   20.7623 O.2     1  UNL1       -0.2702
     26 H          -0.8700    5.8277   23.7671 H       1  UNL1        0.1453
     27 H           0.6855    6.4318   23.4164 H       1  UNL1        0.1453
     28 C          -5.5510    4.0311   21.8691 C.3     1  UNL1        0.0270
     29 C          -5.2576    4.3982   20.4446 C.3     1  UNL1        0.1147
     30 C          -4.9641    4.7653   19.0202 C.3     1  UNL1        0.0270
     31 C          -6.7259    4.5589   20.1836 C.3     1  UNL1        0.1594
     32 O          -7.5895    5.2799   21.1757 O.3     1  UNL1       -0.3800
     33 H          -7.6260    4.7724   22.0016 H       1  UNL1        0.2105
@<TRIPOS>BOND
     1    28    29    1
     2    29    30    1
     3    29    31    1
     4    31    32    1
     5    29     1    1
     6     1     2   ar
     7     2     3   ar
     8     3     9    1
     9     9    10   ar
    10    10    11   ar
    11    11    12   ar
    12    12    13   ar
    13    13    14   ar
    14    14    19    1
    15    19    20    1
    16    20    21    1
    17    21    22    1
    18    14    15   ar
    19    15    16   ar
    20    16    17   ar
    21    17    18   ar
    22     3     4   ar
    23     4    23    1
    24    23    24   am
    25    23    25    2
    26     4     5   ar
    27     5     6    1
    28     5     1   ar
    29    18     9   ar
    30    17    12   ar
    31    22    20    1
    32    32    33    1
    33    24    26    1
    34    24    27    1
    35     6     7    1
    36     6     8    1
