@<TRIPOS>MOLECULE
*****
 24 26 0 0 0
SMALL
GASTEIGER

@<TRIPOS>ATOM
      1 O          -6.4429  -14.6363   24.9036 O.2     1  UNL1       -0.2262
      2 C          -6.1574  -15.6983   23.8834 C.2     1  UNL1        0.4052
      3 N          -7.1879  -16.7460   23.5828 N.am    1  UNL1       -0.2460
      4 C          -6.9023  -17.8079   22.5626 C.3     1  UNL1        0.0968
      5 C          -7.9328  -18.8556   22.2620 C.3     1  UNL1        0.0234
      6 C          -9.2490  -18.8413   22.9815 C.3     1  UNL1        0.0230
      7 C          -9.5345  -17.7794   24.0017 C.3     1  UNL1        0.0234
      8 C          -8.5039  -16.7317   24.3023 C.3     1  UNL1        0.0968
      9 O          -4.8412  -15.7126   23.1639 O.3     1  UNL1       -0.4295
     10 C          -3.8196  -16.7614   23.4898 C.3     1  UNL1        0.2367
     11 C          -2.9864  -17.3621   22.3966 C.ar    1  UNL1        0.0213
     12 C          -3.0824  -18.8295   22.1007 C.ar    1  UNL1       -0.0007
     13 C          -2.2493  -19.4302   21.0076 C.ar    1  UNL1       -0.0002
     14 C          -1.3200  -18.5635   20.2104 C.ar    1  UNL1       -0.0000
     15 C          -1.2240  -17.0962   20.5064 C.ar    1  UNL1       -0.0002
     16 C          -2.0572  -16.4955   21.5995 C.ar    1  UNL1       -0.0007
     17 C         -10.2795  -19.8890   22.6809 C.3     1  UNL1        0.0887
     18 N         -11.2047  -19.7175   21.5128 N.pl3   1  UNL1       -0.3116
     19 H         -11.6845  -20.4953   21.1466 H       1  UNL1        0.1487
     20 C         -11.3989  -18.3611   20.9027 C.ar    1  UNL1        0.1825
     21 N         -10.5891  -17.7725   19.7855 N.ar    1  UNL1       -0.1256
     22 N         -11.1267  -16.4027   19.4950 N.ar    1  UNL1       -0.1374
     23 C         -12.2689  -16.1445   20.4324 C.ar    1  UNL1        0.1604
     24 S         -12.4371  -17.3549   21.3025 S.2     1  UNL1       -0.0287
@<TRIPOS>BOND
     1     1     2    2
     2     2     9    1
     3     9    10    1
     4    10    11    1
     5    11    12   ar
     6    12    13   ar
     7    13    14   ar
     8    14    15   ar
     9    15    16   ar
    10     2     3   am
    11     3     4    1
    12     4     5    1
    13     5     6    1
    14     6    17    1
    15    17    18    1
    16    18    20    1
    17    20    21   ar
    18    21    22   ar
    19    22    23   ar
    20    23    24   ar
    21     6     7    1
    22     7     8    1
    23    16    11   ar
    24     8     3    1
    25    24    20   ar
    26    18    19    1
@<TRIPOS>MOLECULE
*****
 24 26 0 0 0
SMALL
GASTEIGER

@<TRIPOS>ATOM
      1 O          -5.8688  -14.4990   25.2167 O.2     1  UNL1       -0.2262
      2 C          -6.6511  -15.4134   24.3212 C.2     1  UNL1        0.4052
      3 N          -5.9734  -16.5779   23.6620 N.am    1  UNL1       -0.2460
      4 C          -6.7558  -17.4923   22.7666 C.3     1  UNL1        0.0968
      5 C          -6.0781  -18.6568   22.1074 C.3     1  UNL1        0.0234
      6 C          -4.6180  -18.9070   22.3436 C.3     1  UNL1        0.0230
      7 C          -3.8357  -17.9926   23.2390 C.3     1  UNL1        0.0234
      8 C          -4.5135  -16.8280   23.8982 C.3     1  UNL1        0.0968
      9 O          -8.1112  -15.1632   24.0850 O.3     1  UNL1       -0.4295
     10 C          -9.1387  -15.9074   24.8853 C.3     1  UNL1        0.2367
     11 C          -9.8975  -17.0414   24.2623 C.ar    1  UNL1        0.0213
     12 C          -9.8243  -18.4133   24.8644 C.ar    1  UNL1       -0.0007
     13 C         -10.5831  -19.5473   24.2413 C.ar    1  UNL1       -0.0002
     14 C         -11.4152  -19.3094   23.0162 C.ar    1  UNL1       -0.0000
     15 C         -11.4885  -17.9375   22.4141 C.ar    1  UNL1       -0.0002
     16 C         -10.7296  -16.8035   23.0371 C.ar    1  UNL1       -0.0007
     17 C          -3.9404  -20.0715   21.6843 C.3     1  UNL1        0.0887
     18 N          -2.4609  -20.0379   21.4392 N.pl3   1  UNL1       -0.3116
     19 H          -1.8578  -20.5858   21.9917 H       1  UNL1        0.1487
     20 C          -1.9004  -19.1695   20.3522 C.ar    1  UNL1        0.1825
     21 N          -0.4477  -18.8785   20.1170 N.ar    1  UNL1       -0.1256
     22 N          -0.3435  -17.9687   18.9290 N.ar    1  UNL1       -0.1374
     23 C          -1.7318  -17.6973   18.4298 C.ar    1  UNL1        0.1604
     24 S          -2.6940  -18.4395   19.3094 S.2     1  UNL1       -0.0287
@<TRIPOS>BOND
     1     1     2    2
     2     2     9    1
     3     9    10    1
     4    10    11    1
     5    11    12   ar
     6    12    13   ar
     7    13    14   ar
     8    14    15   ar
     9    15    16   ar
    10     2     3   am
    11     3     4    1
    12     4     5    1
    13     5     6    1
    14     6    17    1
    15    17    18    1
    16    18    20    1
    17    20    21   ar
    18    21    22   ar
    19    22    23   ar
    20    23    24   ar
    21     6     7    1
    22     7     8    1
    23    16    11   ar
    24     8     3    1
    25    24    20   ar
    26    18    19    1
@<TRIPOS>MOLECULE
*****
 24 26 0 0 0
SMALL
GASTEIGER

@<TRIPOS>ATOM
      1 O          -9.8067  -15.9614   22.0731 O.2     1  UNL1       -0.2262
      2 C          -9.2679  -17.1474   21.3293 C.2     1  UNL1        0.4052
      3 N          -7.9074  -17.6854   21.6601 N.am    1  UNL1       -0.2460
      4 C          -7.3687  -18.8714   20.9163 C.3     1  UNL1        0.0968
      5 C          -6.0081  -19.4094   21.2471 C.3     1  UNL1        0.0234
      6 C          -5.1863  -18.7614   22.3217 C.3     1  UNL1        0.0230
      7 C          -5.7250  -17.5754   23.0655 C.3     1  UNL1        0.0234
      8 C          -7.0856  -17.0374   22.7346 C.3     1  UNL1        0.0968
      9 O         -10.0898  -17.7954   20.2547 O.3     1  UNL1       -0.4295
     10 C         -11.2380  -18.6872   20.6237 C.3     1  UNL1        0.2367
     11 C         -11.8070  -18.6421   22.0110 C.ar    1  UNL1        0.0213
     12 C         -13.0764  -17.8886   22.2768 C.ar    1  UNL1       -0.0007
     13 C         -13.6453  -17.8436   23.6640 C.ar    1  UNL1       -0.0002
     14 C         -12.9448  -18.5521   24.7853 C.ar    1  UNL1       -0.0000
     15 C         -11.6754  -19.3056   24.5194 C.ar    1  UNL1       -0.0002
     16 C         -11.1065  -19.3506   23.1323 C.ar    1  UNL1       -0.0007
     17 C          -3.8257  -19.2994   22.6525 C.3     1  UNL1        0.0887
     18 N          -3.0144  -19.9885   21.5957 N.pl3   1  UNL1       -0.3116
     19 H          -2.9564  -20.9712   21.5823 H       1  UNL1        0.1487
     20 C          -2.2914  -19.1803   20.5593 C.ar    1  UNL1        0.1825
     21 N          -0.8217  -18.8803   20.5425 N.ar    1  UNL1       -0.1256
     22 N          -0.5330  -18.0448   19.3306 N.ar    1  UNL1       -0.1374
     23 C          -1.8242  -17.8285   18.5983 C.ar    1  UNL1        0.1604
     24 S          -2.9109  -18.5303   19.3578 S.2     1  UNL1       -0.0287
@<TRIPOS>BOND
     1     1     2    2
     2     2     9    1
     3     9    10    1
     4    10    11    1
     5    11    12   ar
     6    12    13   ar
     7    13    14   ar
     8    14    15   ar
     9    15    16   ar
    10     2     3   am
    11     3     4    1
    12     4     5    1
    13     5     6    1
    14     6    17    1
    15    17    18    1
    16    18    20    1
    17    20    21   ar
    18    21    22   ar
    19    22    23   ar
    20    23    24   ar
    21     6     7    1
    22     7     8    1
    23    16    11   ar
    24     8     3    1
    25    24    20   ar
    26    18    19    1
@<TRIPOS>MOLECULE
*****
 24 26 0 0 0
SMALL
GASTEIGER

@<TRIPOS>ATOM
      1 O         -12.7324   -1.4596   17.3933 O.2     1  UNL1       -0.2262
      2 C         -12.5375   -2.6499   18.2852 C.2     1  UNL1        0.4052
      3 N         -13.6745   -3.5966   18.5316 N.am    1  UNL1       -0.2460
      4 C         -13.4797   -4.7868   19.4234 C.3     1  UNL1        0.0968
      5 C         -14.6167   -5.7336   19.6698 C.3     1  UNL1        0.0234
      6 C         -15.9487   -5.4901   19.0244 C.3     1  UNL1        0.0230
      7 C         -16.1436   -4.2999   18.1325 C.3     1  UNL1        0.0234
      8 C         -15.0064   -3.3531   17.8861 C.3     1  UNL1        0.0968
      9 O         -11.2055   -2.8933   18.9307 O.3     1  UNL1       -0.4295
     10 C         -10.1322   -3.6267   18.1823 C.3     1  UNL1        0.2367
     11 C         -10.2178   -5.1150   18.0148 C.ar    1  UNL1        0.0213
     12 C          -9.5338   -6.0206   18.9955 C.ar    1  UNL1       -0.0007
     13 C          -9.6194   -7.5087   18.8279 C.ar    1  UNL1       -0.0002
     14 C         -10.3890   -8.0912   17.6797 C.ar    1  UNL1       -0.0000
     15 C         -11.0731   -7.1855   16.6990 C.ar    1  UNL1       -0.0002
     16 C         -10.9875   -5.6974   16.8666 C.ar    1  UNL1       -0.0007
     17 C         -17.0857   -6.4369   19.2707 C.3     1  UNL1        0.0887
     18 N         -16.8692   -7.6704   20.0962 N.pl3   1  UNL1       -0.3116
     19 H         -16.9189   -7.6206   21.0782 H       1  UNL1        0.1487
     20 C         -16.5767   -8.9799   19.4256 C.ar    1  UNL1        0.1825
     21 N         -15.2925   -9.3559   18.7477 N.ar    1  UNL1       -0.1256
     22 N         -15.4392  -10.7517   18.2182 N.ar    1  UNL1       -0.1374
     23 C         -16.8141  -11.2384   18.5689 C.ar    1  UNL1        0.1604
     24 S         -17.5171  -10.1433   19.3152 S.2     1  UNL1       -0.0287
@<TRIPOS>BOND
     1     1     2    2
     2     2     9    1
     3     9    10    1
     4    10    11    1
     5    11    12   ar
     6    12    13   ar
     7    13    14   ar
     8    14    15   ar
     9    15    16   ar
    10     2     3   am
    11     3     4    1
    12     4     5    1
    13     5     6    1
    14     6    17    1
    15    17    18    1
    16    18    20    1
    17    20    21   ar
    18    21    22   ar
    19    22    23   ar
    20    23    24   ar
    21     6     7    1
    22     7     8    1
    23    16    11   ar
    24     8     3    1
    25    24    20   ar
    26    18    19    1
@<TRIPOS>MOLECULE
*****
 24 26 0 0 0
SMALL
GASTEIGER

@<TRIPOS>ATOM
      1 O          -8.7836  -15.0061   26.7703 O.2     1  UNL1       -0.2262
      2 C          -8.6069  -15.5462   25.3821 C.2     1  UNL1        0.4052
      3 N          -7.2395  -15.9179   24.8903 N.am    1  UNL1       -0.2460
      4 C          -7.0628  -16.4580   23.5022 C.3     1  UNL1        0.0968
      5 C          -5.6954  -16.8297   23.0104 C.3     1  UNL1        0.0234
      6 C          -4.5045  -16.6612   23.9068 C.3     1  UNL1        0.0230
      7 C          -4.6811  -16.1210   25.2950 C.3     1  UNL1        0.0234
      8 C          -6.0487  -15.7494   25.7867 C.3     1  UNL1        0.0968
      9 O          -9.7978  -15.7147   24.4857 O.3     1  UNL1       -0.4295
     10 C         -10.1869  -17.0810   24.0043 C.3     1  UNL1        0.2367
     11 C         -10.5563  -17.2924   22.5659 C.ar    1  UNL1        0.0213
     12 C         -10.0570  -18.5023   21.8334 C.ar    1  UNL1       -0.0007
     13 C         -10.4264  -18.7137   20.3950 C.ar    1  UNL1       -0.0002
     14 C         -11.2952  -17.7151   19.6893 C.ar    1  UNL1       -0.0000
     15 C         -11.7945  -16.5052   20.4219 C.ar    1  UNL1       -0.0002
     16 C         -11.4251  -16.2939   21.8602 C.ar    1  UNL1       -0.0007
     17 C          -3.1370  -17.0328   23.4150 C.3     1  UNL1        0.0887
     18 N          -2.5772  -16.3764   22.1879 N.pl3   1  UNL1       -0.3116
     19 H          -2.3518  -15.4181   22.2017 H       1  UNL1        0.1487
     20 C          -2.3608  -17.1799   20.9400 C.ar    1  UNL1        0.1825
     21 N          -3.3527  -18.1108   20.3076 N.ar    1  UNL1       -0.1256
     22 N          -2.7195  -18.6998   19.0820 N.ar    1  UNL1       -0.1374
     23 C          -1.3363  -18.1331   18.9568 C.ar    1  UNL1        0.1604
     24 S          -1.1146  -17.1936   20.1052 S.2     1  UNL1       -0.0287
@<TRIPOS>BOND
     1     1     2    2
     2     2     9    1
     3     9    10    1
     4    10    11    1
     5    11    12   ar
     6    12    13   ar
     7    13    14   ar
     8    14    15   ar
     9    15    16   ar
    10     2     3   am
    11     3     4    1
    12     4     5    1
    13     5     6    1
    14     6    17    1
    15    17    18    1
    16    18    20    1
    17    20    21   ar
    18    21    22   ar
    19    22    23   ar
    20    23    24   ar
    21     6     7    1
    22     7     8    1
    23    16    11   ar
    24     8     3    1
    25    24    20   ar
    26    18    19    1
@<TRIPOS>MOLECULE
*****
 24 26 0 0 0
SMALL
GASTEIGER

@<TRIPOS>ATOM
      1 O         -11.6385  -15.4165   22.4163 O.2     1  UNL1       -0.2262
      2 C         -10.6002  -16.3543   21.8755 C.2     1  UNL1        0.4052
      3 N          -9.2044  -16.3248   22.4239 N.am    1  UNL1       -0.2460
      4 C          -8.1661  -17.2626   21.8832 C.3     1  UNL1        0.0968
      5 C          -6.7703  -17.2331   22.4316 C.3     1  UNL1        0.0234
      6 C          -6.4127  -16.2657   23.5208 C.3     1  UNL1        0.0230
      7 C          -7.4510  -15.3278   24.0615 C.3     1  UNL1        0.0234
      8 C          -8.8469  -15.3574   23.5130 C.3     1  UNL1        0.0968
      9 O         -10.9578  -17.3218   20.7863 O.3     1  UNL1       -0.4295
     10 C         -11.1993  -18.7652   21.1148 C.3     1  UNL1        0.2367
     11 C         -10.8452  -19.2948   22.4729 C.ar    1  UNL1        0.0213
     12 C          -9.6953  -20.2448   22.6310 C.ar    1  UNL1       -0.0007
     13 C          -9.3412  -20.7744   23.9890 C.ar    1  UNL1       -0.0002
     14 C         -10.1371  -20.3538   25.1889 C.ar    1  UNL1       -0.0000
     15 C         -11.2870  -19.4038   25.0308 C.ar    1  UNL1       -0.0002
     16 C         -11.6411  -18.8743   23.6728 C.ar    1  UNL1       -0.0007
     17 C          -5.0169  -16.2361   24.0691 C.3     1  UNL1        0.0887
     18 N          -4.0937  -17.3945   23.8331 N.pl3   1  UNL1       -0.3116
     19 H          -4.1276  -18.1798   24.4259 H       1  UNL1        0.1487
     20 C          -3.1187  -17.3565   22.6938 C.ar    1  UNL1        0.1825
     21 N          -2.5797  -16.1212   22.0354 N.ar    1  UNL1       -0.1256
     22 N          -1.6395  -16.5483   20.9475 N.ar    1  UNL1       -0.1374
     23 C          -1.5972  -18.0477   20.9336 C.ar    1  UNL1        0.1604
     24 S          -2.5115  -18.5472   22.0129 S.2     1  UNL1       -0.0287
@<TRIPOS>BOND
     1     1     2    2
     2     2     9    1
     3     9    10    1
     4    10    11    1
     5    11    12   ar
     6    12    13   ar
     7    13    14   ar
     8    14    15   ar
     9    15    16   ar
    10     2     3   am
    11     3     4    1
    12     4     5    1
    13     5     6    1
    14     6    17    1
    15    17    18    1
    16    18    20    1
    17    20    21   ar
    18    21    22   ar
    19    22    23   ar
    20    23    24   ar
    21     6     7    1
    22     7     8    1
    23    16    11   ar
    24     8     3    1
    25    24    20   ar
    26    18    19    1
@<TRIPOS>MOLECULE
*****
 24 26 0 0 0
SMALL
GASTEIGER

@<TRIPOS>ATOM
      1 O         -14.4458   -9.3057   18.5915 O.2     1  UNL1       -0.2262
      2 C         -14.3307   -8.2185   17.5645 C.2     1  UNL1        0.4052
      3 N         -13.2445   -7.1904   17.6791 N.am    1  UNL1       -0.2460
      4 C         -13.1295   -6.1032   16.6521 C.3     1  UNL1        0.0968
      5 C         -12.0433   -5.0751   16.7667 C.3     1  UNL1        0.0234
      6 C         -11.0721   -5.1342   17.9084 C.3     1  UNL1        0.0230
      7 C         -11.1871   -6.2214   18.9354 C.3     1  UNL1        0.0234
      8 C         -12.2734   -7.2496   18.8207 C.3     1  UNL1        0.0968
      9 O         -15.3019   -8.1594   16.4228 O.3     1  UNL1       -0.4295
     10 C         -16.6564   -7.5463   16.6214 C.3     1  UNL1        0.2367
     11 C         -17.5659   -8.0681   17.6941 C.ar    1  UNL1        0.0213
     12 C         -18.4249   -9.2691   17.4304 C.ar    1  UNL1       -0.0007
     13 C         -19.3343   -9.7908   18.5031 C.ar    1  UNL1       -0.0002
     14 C         -19.3848   -9.1115   19.8395 C.ar    1  UNL1       -0.0000
     15 C         -18.5258   -7.9104   20.1032 C.ar    1  UNL1       -0.0002
     16 C         -17.6164   -7.3887   19.0305 C.ar    1  UNL1       -0.0007
     17 C          -9.9859   -4.1061   18.0230 C.3     1  UNL1        0.0887
     18 N         -10.2083   -2.8680   18.8400 N.pl3   1  UNL1       -0.3116
     19 H          -9.4731   -2.4943   19.3777 H       1  UNL1        0.1487
     20 C         -11.5509   -2.1991   18.8379 C.ar    1  UNL1        0.1825
     21 N         -12.7580   -2.6422   19.6103 N.ar    1  UNL1       -0.1256
     22 N         -13.8753   -1.6867   19.3128 N.ar    1  UNL1       -0.1374
     23 C         -13.3588   -0.6529   18.3564 C.ar    1  UNL1        0.1604
     24 S         -11.9222   -0.9696   18.0629 S.2     1  UNL1       -0.0287
@<TRIPOS>BOND
     1     1     2    2
     2     2     9    1
     3     9    10    1
     4    10    11    1
     5    11    12   ar
     6    12    13   ar
     7    13    14   ar
     8    14    15   ar
     9    15    16   ar
    10     2     3   am
    11     3     4    1
    12     4     5    1
    13     5     6    1
    14     6    17    1
    15    17    18    1
    16    18    20    1
    17    20    21   ar
    18    21    22   ar
    19    22    23   ar
    20    23    24   ar
    21     6     7    1
    22     7     8    1
    23    16    11   ar
    24     8     3    1
    25    24    20   ar
    26    18    19    1
@<TRIPOS>MOLECULE
*****
 24 26 0 0 0
SMALL
GASTEIGER

@<TRIPOS>ATOM
      1 O         -13.1863   -3.2229   20.6394 O.2     1  UNL1       -0.2262
      2 C         -13.6177   -3.2924   19.2044 C.2     1  UNL1        0.4052
      3 N         -14.8254   -4.0958   18.8224 N.am    1  UNL1       -0.2460
      4 C         -15.2568   -4.1652   17.3875 C.3     1  UNL1        0.0968
      5 C         -16.4645   -4.9687   17.0054 C.3     1  UNL1        0.0234
      6 C         -17.2409   -5.7027   18.0584 C.3     1  UNL1        0.0230
      7 C         -16.8094   -5.6332   19.4933 C.3     1  UNL1        0.0234
      8 C         -15.6017   -4.8297   19.8753 C.3     1  UNL1        0.0968
      9 O         -12.8414   -2.5584   18.1515 O.3     1  UNL1       -0.4295
     10 C         -11.8629   -3.2985   17.2886 C.3     1  UNL1        0.2367
     11 C         -11.2047   -4.5453   17.8006 C.ar    1  UNL1        0.0213
     12 C         -11.6455   -5.8874   17.2963 C.ar    1  UNL1       -0.0007
     13 C         -10.9872   -7.1342   17.8083 C.ar    1  UNL1       -0.0002
     14 C          -9.8882   -7.0389   18.8247 C.ar    1  UNL1       -0.0000
     15 C          -9.4474   -5.6968   19.3291 C.ar    1  UNL1       -0.0002
     16 C         -10.1056   -4.4500   18.8170 C.ar    1  UNL1       -0.0007
     17 C         -18.4485   -6.5061   17.6764 C.3     1  UNL1        0.0887
     18 N         -18.2862   -7.7889   16.9161 N.pl3   1  UNL1       -0.3116
     19 H         -18.6794   -7.8822   16.0184 H       1  UNL1        0.1487
     20 C         -17.5248   -8.9296   17.5237 C.ar    1  UNL1        0.1825
     21 N         -16.0335   -9.0233   17.6557 N.ar    1  UNL1       -0.1256
     22 N         -15.7080  -10.3284   18.3195 N.ar    1  UNL1       -0.1374
     23 C         -16.9981  -11.0414   18.5979 C.ar    1  UNL1        0.1604
     24 S         -18.1209  -10.1768   18.1060 S.2     1  UNL1       -0.0287
@<TRIPOS>BOND
     1     1     2    2
     2     2     9    1
     3     9    10    1
     4    10    11    1
     5    11    12   ar
     6    12    13   ar
     7    13    14   ar
     8    14    15   ar
     9    15    16   ar
    10     2     3   am
    11     3     4    1
    12     4     5    1
    13     5     6    1
    14     6    17    1
    15    17    18    1
    16    18    20    1
    17    20    21   ar
    18    21    22   ar
    19    22    23   ar
    20    23    24   ar
    21     6     7    1
    22     7     8    1
    23    16    11   ar
    24     8     3    1
    25    24    20   ar
    26    18    19    1
@<TRIPOS>MOLECULE
*****
 24 26 0 0 0
SMALL
GASTEIGER

@<TRIPOS>ATOM
      1 O           4.3929   -1.3774   25.9874 O.2     1  UNL1       -0.2262
      2 C           3.7357   -0.8916   24.7296 C.2     1  UNL1        0.4052
      3 N           3.9269   -1.6426   23.4453 N.am    1  UNL1       -0.2460
      4 C           3.2697   -1.1568   22.1874 C.3     1  UNL1        0.0968
      5 C           3.4609   -1.9077   20.9031 C.3     1  UNL1        0.0234
      6 C           4.3092   -3.1446   20.8766 C.3     1  UNL1        0.0230
      7 C           4.9664   -3.6304   22.1344 C.3     1  UNL1        0.0234
      8 C           4.7752   -2.8793   23.4188 C.3     1  UNL1        0.0968
      9 O           2.8873    0.3452   24.7561 O.3     1  UNL1       -0.4295
     10 C           2.7721    1.1487   26.0174 C.3     1  UNL1        0.2367
     11 C           1.6360    0.8989   26.9646 C.ar    1  UNL1        0.0213
     12 C           1.8558    0.0754   28.1989 C.ar    1  UNL1       -0.0007
     13 C           0.7198   -0.1743   29.1460 C.ar    1  UNL1       -0.0002
     14 C          -0.6360    0.3995   28.8588 C.ar    1  UNL1       -0.0000
     15 C          -0.8558    1.2231   27.6246 C.ar    1  UNL1       -0.0002
     16 C           0.2802    1.4728   26.6775 C.ar    1  UNL1       -0.0007
     17 C           4.5004   -3.8955   19.5923 C.3     1  UNL1        0.0887
     18 N           4.1471   -3.2490   18.2857 N.pl3   1  UNL1       -0.3116
     19 H           3.3970   -3.5968   17.7513 H       1  UNL1        0.1487
     20 C           4.9367   -2.0725   17.7933 C.ar    1  UNL1        0.1825
     21 N           6.4230   -2.0287   17.5953 N.ar    1  UNL1       -0.1256
     22 N           6.7835   -0.6624   17.0921 N.ar    1  UNL1       -0.1374
     23 C           5.5201    0.1383   16.9791 C.ar    1  UNL1        0.1604
     24 S           4.3787   -0.7332   17.4125 S.2     1  UNL1       -0.0287
@<TRIPOS>BOND
     1     1     2    2
     2     2     9    1
     3     9    10    1
     4    10    11    1
     5    11    12   ar
     6    12    13   ar
     7    13    14   ar
     8    14    15   ar
     9    15    16   ar
    10     2     3   am
    11     3     4    1
    12     4     5    1
    13     5     6    1
    14     6    17    1
    15    17    18    1
    16    18    20    1
    17    20    21   ar
    18    21    22   ar
    19    22    23   ar
    20    23    24   ar
    21     6     7    1
    22     7     8    1
    23    16    11   ar
    24     8     3    1
    25    24    20   ar
    26    18    19    1
