@<TRIPOS>MOLECULE
*****
 22 25 0 0 0
SMALL
GASTEIGER

@<TRIPOS>ATOM
      1 C          -6.7946  -19.0611   22.0094 C.2     1  UNL1        0.3752
      2 N          -7.3357  -17.8405   22.6931 N.2     1  UNL1       -0.0311
      3 C          -8.8151  -18.0216   22.8626 C.2     1  UNL1        0.2294
      4 C          -9.8705  -17.1453   23.4693 C.2     1  UNL1        0.0400
      5 C         -11.2992  -17.6015   23.4971 C.2     1  UNL1       -0.0032
      6 C         -11.6724  -18.9340   22.9182 C.2     1  UNL1       -0.0175
      7 C         -10.6169  -19.8103   22.3115 C.3     1  UNL1        0.1037
      8 C          -9.1883  -19.3541   22.2837 C.2     1  UNL1        0.2175
      9 N          -7.9396  -19.9965   21.7564 N.2     1  UNL1       -0.0347
     10 C          -2.4920  -19.7888   20.9105 C.ar    1  UNL1        0.0000
     11 C          -3.5896  -20.3711   20.0700 C.ar    1  UNL1        0.0003
     12 C          -5.0237  -20.1285   20.4363 C.ar    1  UNL1        0.0077
     13 C          -5.3604  -19.3037   21.6431 C.ar    1  UNL1        0.0884
     14 C          -4.2628  -18.7214   22.4835 C.ar    1  UNL1        0.0077
     15 C          -2.8286  -18.9639   22.1172 C.ar    1  UNL1        0.0003
     16 C          -9.4973  -15.8128   24.0482 C.3     1  UNL1        0.1030
     17 N          -8.3522  -15.7077   25.0114 N.3     1  UNL1       -0.2689
     18 C          -8.5170  -16.1768   26.4265 C.3     1  UNL1        0.0724
     19 C          -7.3719  -16.0718   27.3897 C.3     1  UNL1        0.0174
     20 C          -6.0620  -15.4976   26.9377 C.3     1  UNL1        0.0029
     21 C          -5.8971  -15.0285   25.5225 C.3     1  UNL1        0.0174
     22 C          -7.0422  -15.1335   24.5593 C.3     1  UNL1        0.0724
@<TRIPOS>BOND
     1    10    11   ar
     2    11    12   ar
     3    12    13   ar
     4    13     1    1
     5     1     2    2
     6     2     3    1
     7     3     4    2
     8     4    16    1
     9    16    17    1
    10    17    18    1
    11    18    19    1
    12    19    20    1
    13    20    21    1
    14    21    22    1
    15     4     5    1
    16     5     6    2
    17     6     7    1
    18     7     8    1
    19     8     9    2
    20    13    14   ar
    21    14    15   ar
    22    15    10   ar
    23     9     1    1
    24     8     3    1
    25    22    17    1
@<TRIPOS>MOLECULE
*****
 22 25 0 0 0
SMALL
GASTEIGER

@<TRIPOS>ATOM
      1 C          -6.9668  -19.1667   21.3485 C.2     1  UNL1        0.3752
      2 N          -7.7640  -18.9988   22.6079 N.2     1  UNL1       -0.0311
      3 C          -9.1995  -18.7934   22.2240 C.2     1  UNL1        0.2294
      4 C         -10.4363  -18.5744   23.0439 C.2     1  UNL1        0.0400
      5 C         -11.7630  -18.3963   22.3671 C.2     1  UNL1       -0.0032
      6 C         -11.8529  -18.4372   20.8704 C.2     1  UNL1       -0.0175
      7 C         -10.6161  -18.6562   20.0505 C.3     1  UNL1        0.1037
      8 C          -9.2894  -18.8343   20.7272 C.2     1  UNL1        0.2175
      9 N          -7.9095  -19.0650   20.1862 N.2     1  UNL1       -0.0347
     10 C          -2.5266  -19.8546   21.1004 C.ar    1  UNL1        0.0000
     11 C          -3.0987  -19.0474   22.2279 C.ar    1  UNL1        0.0003
     12 C          -4.5787  -18.8181   22.3106 C.ar    1  UNL1        0.0077
     13 C          -5.4867  -19.3960   21.2658 C.ar    1  UNL1        0.0884
     14 C          -4.9146  -20.2032   20.1384 C.ar    1  UNL1        0.0077
     15 C          -3.4346  -20.4325   20.0557 C.ar    1  UNL1        0.0003
     16 C         -10.3464  -18.5335   24.5407 C.3     1  UNL1        0.1030
     17 N          -9.5474  -17.4579   25.2149 N.3     1  UNL1       -0.2689
     18 C          -9.1437  -17.6122   26.6513 C.3     1  UNL1        0.0724
     19 C          -8.3447  -16.5365   27.3255 C.3     1  UNL1        0.0174
     20 C          -7.9493  -15.3066   26.5633 C.3     1  UNL1        0.0029
     21 C          -8.3529  -15.1523   25.1268 C.3     1  UNL1        0.0174
     22 C          -9.1519  -16.2279   24.4526 C.3     1  UNL1        0.0724
@<TRIPOS>BOND
     1    10    11   ar
     2    11    12   ar
     3    12    13   ar
     4    13     1    1
     5     1     2    2
     6     2     3    1
     7     3     4    2
     8     4    16    1
     9    16    17    1
    10    17    18    1
    11    18    19    1
    12    19    20    1
    13    20    21    1
    14    21    22    1
    15     4     5    1
    16     5     6    2
    17     6     7    1
    18     7     8    1
    19     8     9    2
    20    13    14   ar
    21    14    15   ar
    22    15    10   ar
    23     9     1    1
    24     8     3    1
    25    22    17    1
@<TRIPOS>MOLECULE
*****
 22 25 0 0 0
SMALL
GASTEIGER

@<TRIPOS>ATOM
      1 C          -9.3030  -16.2755   23.4052 C.2     1  UNL1        0.3752
      2 N          -7.8595  -16.0751   23.0498 N.2     1  UNL1       -0.0311
      3 C          -7.0948  -15.8580   24.3220 C.2     1  UNL1        0.2294
      4 C          -5.6399  -15.6086   24.5883 C.2     1  UNL1        0.0400
      5 C          -5.1558  -15.4255   25.9961 C.2     1  UNL1       -0.0032
      6 C          -6.1266  -15.4918   27.1376 C.2     1  UNL1       -0.0175
      7 C          -7.5815  -15.7412   26.8713 C.3     1  UNL1        0.1037
      8 C          -8.0656  -15.9244   25.4635 C.2     1  UNL1        0.2175
      9 N          -9.4303  -16.1824   24.8969 N.2     1  UNL1       -0.0347
     10 C         -12.6616  -17.0248   20.5055 C.ar    1  UNL1        0.0000
     11 C         -11.5113  -16.1469   20.1102 C.ar    1  UNL1        0.0003
     12 C         -10.3918  -15.8972   21.0768 C.ar    1  UNL1        0.0077
     13 C         -10.4225  -16.5252   22.4386 C.ar    1  UNL1        0.0884
     14 C         -11.5728  -17.4031   22.8338 C.ar    1  UNL1        0.0077
     15 C         -12.6924  -17.6528   21.8673 C.ar    1  UNL1        0.0003
     16 C          -4.6690  -15.5423   23.4467 C.3     1  UNL1        0.1030
     17 N          -4.0449  -16.8000   22.9190 N.3     1  UNL1       -0.2689
     18 C          -4.8023  -18.0935   22.9743 C.3     1  UNL1        0.0724
     19 C          -4.1782  -19.3513   22.4465 C.3     1  UNL1        0.0174
     20 C          -2.7966  -19.3155   21.8634 C.3     1  UNL1        0.0029
     21 C          -2.0392  -18.0220   21.8081 C.3     1  UNL1        0.0174
     22 C          -2.6633  -16.7642   22.3358 C.3     1  UNL1        0.0724
@<TRIPOS>BOND
     1    10    11   ar
     2    11    12   ar
     3    12    13   ar
     4    13     1    1
     5     1     2    2
     6     2     3    1
     7     3     4    2
     8     4    16    1
     9    16    17    1
    10    17    18    1
    11    18    19    1
    12    19    20    1
    13    20    21    1
    14    21    22    1
    15     4     5    1
    16     5     6    2
    17     6     7    1
    18     7     8    1
    19     8     9    2
    20    13    14   ar
    21    14    15   ar
    22    15    10   ar
    23     9     1    1
    24     8     3    1
    25    22    17    1
@<TRIPOS>MOLECULE
*****
 22 25 0 0 0
SMALL
GASTEIGER

@<TRIPOS>ATOM
      1 C          -4.6389  -16.7742   23.5692 C.2     1  UNL1        0.3752
      2 N          -6.0904  -16.6718   23.2051 N.2     1  UNL1       -0.0311
      3 C          -6.8384  -16.1906   24.4130 C.2     1  UNL1        0.2294
      4 C          -8.2925  -15.9047   24.6450 C.2     1  UNL1        0.0400
      5 C          -8.7574  -15.4239   25.9876 C.2     1  UNL1       -0.0032
      6 C          -7.7683  -15.2290   27.0982 C.2     1  UNL1       -0.0175
      7 C          -6.3141  -15.5149   26.8662 C.3     1  UNL1        0.1037
      8 C          -5.8492  -15.9956   25.5236 C.2     1  UNL1        0.2175
      9 N          -4.4898  -16.3564   25.0021 N.2     1  UNL1       -0.0347
     10 C          -1.3149  -18.1020   20.8418 C.ar    1  UNL1        0.0000
     11 C          -2.2425  -19.1162   21.4426 C.ar    1  UNL1        0.0003
     12 C          -3.3505  -18.6737   22.3517 C.ar    1  UNL1        0.0077
     13 C          -3.5309  -17.2168   22.6600 C.ar    1  UNL1        0.0884
     14 C          -2.6033  -16.2026   22.0593 C.ar    1  UNL1        0.0077
     15 C          -1.4953  -16.6451   21.1502 C.ar    1  UNL1        0.0003
     16 C          -9.2817  -16.0997   23.5343 C.3     1  UNL1        0.1030
     17 N          -9.8026  -17.4722   23.2263 N.3     1  UNL1       -0.2689
     18 C          -9.6669  -18.5706   24.2387 C.3     1  UNL1        0.0724
     19 C         -10.1878  -19.9431   23.9306 C.3     1  UNL1        0.0174
     20 C         -10.8445  -20.2172   22.6102 C.3     1  UNL1        0.0029
     21 C         -10.9803  -19.1187   21.5977 C.3     1  UNL1        0.0174
     22 C         -10.4593  -17.7462   21.9057 C.3     1  UNL1        0.0724
@<TRIPOS>BOND
     1    10    11   ar
     2    11    12   ar
     3    12    13   ar
     4    13     1    1
     5     1     2    2
     6     2     3    1
     7     3     4    2
     8     4    16    1
     9    16    17    1
    10    17    18    1
    11    18    19    1
    12    19    20    1
    13    20    21    1
    14    21    22    1
    15     4     5    1
    16     5     6    2
    17     6     7    1
    18     7     8    1
    19     8     9    2
    20    13    14   ar
    21    14    15   ar
    22    15    10   ar
    23     9     1    1
    24     8     3    1
    25    22    17    1
@<TRIPOS>MOLECULE
*****
 22 25 0 0 0
SMALL
GASTEIGER

@<TRIPOS>ATOM
      1 C          -7.1498  -18.9936   21.9255 C.2     1  UNL1        0.3752
      2 N          -6.6660  -17.7282   22.5694 N.2     1  UNL1       -0.0311
      3 C          -5.1689  -17.7882   22.6421 C.2     1  UNL1        0.2294
      4 C          -4.1505  -16.8251   23.1763 C.2     1  UNL1        0.0400
      5 C          -2.6909  -17.1644   23.1116 C.2     1  UNL1       -0.0032
      6 C          -2.2496  -18.4669   22.5127 C.2     1  UNL1       -0.0175
      7 C          -3.2679  -19.4300   21.9784 C.3     1  UNL1        0.1037
      8 C          -4.7275  -19.0907   22.0431 C.2     1  UNL1        0.2175
      9 N          -5.9518  -19.8356   21.6003 N.2     1  UNL1       -0.0347
     10 C         -11.4417  -20.0741   21.1121 C.ar    1  UNL1        0.0000
     11 C         -10.9084  -20.1237   22.5132 C.ar    1  UNL1        0.0003
     12 C          -9.4778  -19.7635   22.7843 C.ar    1  UNL1        0.0077
     13 C          -8.5805  -19.3538   21.6544 C.ar    1  UNL1        0.0884
     14 C          -9.1138  -19.3042   20.2532 C.ar    1  UNL1        0.0077
     15 C         -10.5444  -19.6643   19.9821 C.ar    1  UNL1        0.0003
     16 C          -4.5920  -15.5226   23.7753 C.3     1  UNL1        0.1030
     17 N          -5.7201  -15.4956   24.7635 N.3     1  UNL1       -0.2689
     18 C          -5.4513  -15.7571   26.2158 C.3     1  UNL1        0.0724
     19 C          -6.5795  -15.7302   27.2041 C.3     1  UNL1        0.0174
     20 C          -7.9763  -15.4417   26.7400 C.3     1  UNL1        0.0029
     21 C          -8.2452  -15.1801   25.2876 C.3     1  UNL1        0.0174
     22 C          -7.1170  -15.2071   24.2993 C.3     1  UNL1        0.0724
@<TRIPOS>BOND
     1    10    11   ar
     2    11    12   ar
     3    12    13   ar
     4    13     1    1
     5     1     2    2
     6     2     3    1
     7     3     4    2
     8     4    16    1
     9    16    17    1
    10    17    18    1
    11    18    19    1
    12    19    20    1
    13    20    21    1
    14    21    22    1
    15     4     5    1
    16     5     6    2
    17     6     7    1
    18     7     8    1
    19     8     9    2
    20    13    14   ar
    21    14    15   ar
    22    15    10   ar
    23     9     1    1
    24     8     3    1
    25    22    17    1
@<TRIPOS>MOLECULE
*****
 22 25 0 0 0
SMALL
GASTEIGER

@<TRIPOS>ATOM
      1 C          -7.9441  -17.0547   23.4703 C.2     1  UNL1        0.3752
      2 N          -7.1332  -18.1012   22.7652 N.2     1  UNL1       -0.0311
      3 C          -7.9038  -18.5501   21.5591 C.2     1  UNL1        0.2294
      4 C          -7.5997  -19.5598   20.4923 C.2     1  UNL1        0.0400
      5 C          -8.5827  -19.8005   19.3853 C.2     1  UNL1       -0.0032
      6 C          -9.8699  -19.0314   19.3449 C.2     1  UNL1       -0.0175
      7 C         -10.1740  -18.0216   20.4117 C.3     1  UNL1        0.1037
      8 C          -9.1910  -17.7810   21.5187 C.2     1  UNL1        0.2175
      9 N          -9.2159  -16.8568   22.6999 N.2     1  UNL1       -0.0347
     10 C          -6.7683  -14.8890   27.2355 C.ar    1  UNL1        0.0000
     11 C          -5.7754  -15.0526   26.1232 C.ar    1  UNL1        0.0003
     12 C          -6.1673  -15.7745   24.8682 C.ar    1  UNL1        0.0077
     13 C          -7.5522  -16.3328   24.7254 C.ar    1  UNL1        0.0884
     14 C          -8.5451  -16.1691   25.8377 C.ar    1  UNL1        0.0077
     15 C          -8.1532  -15.4473   27.0928 C.ar    1  UNL1        0.0003
     16 C          -6.3124  -20.3289   20.5327 C.3     1  UNL1        0.1030
     17 N          -5.0059  -19.5995   20.6364 N.3     1  UNL1       -0.2689
     18 C          -4.2831  -19.5385   21.9493 C.3     1  UNL1        0.0724
     19 C          -2.9765  -18.8090   22.0530 C.3     1  UNL1        0.0174
     20 C          -2.3928  -18.1405   20.8438 C.3     1  UNL1        0.0029
     21 C          -3.1156  -18.2015   19.5308 C.3     1  UNL1        0.0174
     22 C          -4.4221  -18.9309   19.4271 C.3     1  UNL1        0.0724
@<TRIPOS>BOND
     1    10    11   ar
     2    11    12   ar
     3    12    13   ar
     4    13     1    1
     5     1     2    2
     6     2     3    1
     7     3     4    2
     8     4    16    1
     9    16    17    1
    10    17    18    1
    11    18    19    1
    12    19    20    1
    13    20    21    1
    14    21    22    1
    15     4     5    1
    16     5     6    2
    17     6     7    1
    18     7     8    1
    19     8     9    2
    20    13    14   ar
    21    14    15   ar
    22    15    10   ar
    23     9     1    1
    24     8     3    1
    25    22    17    1
@<TRIPOS>MOLECULE
*****
 22 25 0 0 0
SMALL
GASTEIGER

@<TRIPOS>ATOM
      1 C          -4.3880  -17.1061   22.5498 C.2     1  UNL1        0.3752
      2 N          -5.7366  -17.7564   22.4570 N.2     1  UNL1       -0.0311
      3 C          -6.6562  -17.0546   23.4120 C.2     1  UNL1        0.2294
      4 C          -8.1033  -17.2626   23.7478 C.2     1  UNL1        0.0400
      5 C          -8.7701  -16.3867   24.7666 C.2     1  UNL1       -0.0032
      6 C          -7.9900  -15.3027   25.4495 C.2     1  UNL1       -0.0175
      7 C          -6.5430  -15.0947   25.1136 C.3     1  UNL1        0.1037
      8 C          -5.8761  -15.9707   24.0948 C.2     1  UNL1        0.2175
      9 N          -4.4743  -16.0025   23.5620 N.2     1  UNL1       -0.0347
     10 C          -0.7266  -18.2631   20.2035 C.ar    1  UNL1        0.0000
     11 C          -0.9186  -16.8413   20.6412 C.ar    1  UNL1        0.0003
     12 C          -2.1391  -16.4557   21.4233 C.ar    1  UNL1        0.0077
     13 C          -3.1675  -17.4918   21.7677 C.ar    1  UNL1        0.0884
     14 C          -2.9755  -18.9136   21.3300 C.ar    1  UNL1        0.0077
     15 C          -1.7550  -19.2993   20.5479 C.ar    1  UNL1        0.0003
     16 C          -8.8834  -18.3466   23.0649 C.3     1  UNL1        0.1030
     17 N         -10.2799  -18.0786   22.5875 N.3     1  UNL1       -0.2689
     18 C         -10.5187  -17.6498   21.1701 C.3     1  UNL1        0.0724
     19 C         -11.9152  -17.3818   20.6928 C.3     1  UNL1        0.0174
     20 C         -13.0730  -17.5426   21.6327 C.3     1  UNL1        0.0029
     21 C         -12.8343  -17.9715   23.0502 C.3     1  UNL1        0.0174
     22 C         -11.4377  -18.2395   23.5276 C.3     1  UNL1        0.0724
@<TRIPOS>BOND
     1    10    11   ar
     2    11    12   ar
     3    12    13   ar
     4    13     1    1
     5     1     2    2
     6     2     3    1
     7     3     4    2
     8     4    16    1
     9    16    17    1
    10    17    18    1
    11    18    19    1
    12    19    20    1
    13    20    21    1
    14    21    22    1
    15     4     5    1
    16     5     6    2
    17     6     7    1
    18     7     8    1
    19     8     9    2
    20    13    14   ar
    21    14    15   ar
    22    15    10   ar
    23     9     1    1
    24     8     3    1
    25    22    17    1
@<TRIPOS>MOLECULE
*****
 22 25 0 0 0
SMALL
GASTEIGER

@<TRIPOS>ATOM
      1 C          -8.4905  -18.1478   22.0872 C.2     1  UNL1        0.3752
      2 N          -7.6409  -17.1927   22.8719 N.2     1  UNL1       -0.0311
      3 C          -6.2200  -17.6679   22.7979 C.2     1  UNL1        0.2294
      4 C          -4.9485  -17.1247   23.3793 C.2     1  UNL1        0.0400
      5 C          -3.6485  -17.8303   23.1304 C.2     1  UNL1       -0.0032
      6 C          -3.6200  -19.0791   22.3000 C.2     1  UNL1       -0.0175
      7 C          -4.8915  -19.6223   21.7185 C.3     1  UNL1        0.1037
      8 C          -6.1916  -18.9167   21.9674 C.2     1  UNL1        0.2175
      9 N          -7.5948  -19.2133   21.5282 N.2     1  UNL1       -0.0347
     10 C         -12.9446  -17.8665   21.5111 C.ar    1  UNL1        0.0000
     11 C         -12.3835  -18.2291   22.8541 C.ar    1  UNL1        0.0003
     12 C         -10.8988  -18.3229   23.0461 C.ar    1  UNL1        0.0077
     13 C          -9.9753  -18.0541   21.8952 C.ar    1  UNL1        0.0884
     14 C         -10.5364  -17.6914   20.5522 C.ar    1  UNL1        0.0077
     15 C         -12.0210  -17.5976   20.3602 C.ar    1  UNL1        0.0003
     16 C          -4.9770  -15.8758   24.2098 C.3     1  UNL1        0.1030
     17 N          -6.0615  -15.6759   25.2265 N.3     1  UNL1       -0.2689
     18 C          -7.4342  -15.2605   24.7871 C.3     1  UNL1        0.0724
     19 C          -8.5187  -15.0605   25.8039 C.3     1  UNL1        0.0174
     20 C          -8.2306  -15.2760   27.2601 C.3     1  UNL1        0.0029
     21 C          -6.8579  -15.6914   27.6996 C.3     1  UNL1        0.0174
     22 C          -5.7733  -15.8914   26.6828 C.3     1  UNL1        0.0724
@<TRIPOS>BOND
     1    10    11   ar
     2    11    12   ar
     3    12    13   ar
     4    13     1    1
     5     1     2    2
     6     2     3    1
     7     3     4    2
     8     4    16    1
     9    16    17    1
    10    17    18    1
    11    18    19    1
    12    19    20    1
    13    20    21    1
    14    21    22    1
    15     4     5    1
    16     5     6    2
    17     6     7    1
    18     7     8    1
    19     8     9    2
    20    13    14   ar
    21    14    15   ar
    22    15    10   ar
    23     9     1    1
    24     8     3    1
    25    22    17    1
@<TRIPOS>MOLECULE
*****
 22 25 0 0 0
SMALL
GASTEIGER

@<TRIPOS>ATOM
      1 C          -7.2978  -17.4610   22.8192 C.2     1  UNL1        0.3752
      2 N          -8.5817  -17.4672   22.0437 N.2     1  UNL1       -0.0311
      3 C          -8.4570  -18.4852   20.9490 C.2     1  UNL1        0.2294
      4 C          -9.4070  -18.9254   19.8748 C.2     1  UNL1        0.0400
      5 C          -8.9960  -19.9885   18.8997 C.2     1  UNL1       -0.0032
      6 C          -7.6351  -20.6114   18.9988 C.2     1  UNL1       -0.0175
      7 C          -6.6852  -20.1713   20.0730 C.3     1  UNL1        0.1037
      8 C          -7.0961  -19.1081   21.0481 C.2     1  UNL1        0.2175
      9 N          -6.3797  -18.4752   22.2039 N.2     1  UNL1       -0.0347
     10 C          -6.3643  -14.8572   26.3687 C.ar    1  UNL1        0.0000
     11 C          -5.2867  -15.1930   25.3807 C.ar    1  UNL1        0.0003
     12 C          -5.5979  -16.0609   24.1976 C.ar    1  UNL1        0.0077
     13 C          -6.9866  -16.5930   24.0024 C.ar    1  UNL1        0.0884
     14 C          -8.0642  -16.2573   24.9904 C.ar    1  UNL1        0.0077
     15 C          -7.7531  -15.3894   26.1735 C.ar    1  UNL1        0.0003
     16 C         -10.7680  -18.3025   19.7758 C.3     1  UNL1        0.1030
     17 N         -11.4827  -17.8606   21.0183 N.3     1  UNL1       -0.2689
     18 C         -11.8804  -16.4239   21.1841 C.3     1  UNL1        0.0724
     19 C         -12.5952  -15.9820   22.4266 C.3     1  UNL1        0.0174
     20 C         -12.9123  -16.9770   23.5034 C.3     1  UNL1        0.0029
     21 C         -12.5147  -18.4139   23.3376 C.3     1  UNL1        0.0174
     22 C         -11.7999  -18.8557   22.0951 C.3     1  UNL1        0.0724
@<TRIPOS>BOND
     1    10    11   ar
     2    11    12   ar
     3    12    13   ar
     4    13     1    1
     5     1     2    2
     6     2     3    1
     7     3     4    2
     8     4    16    1
     9    16    17    1
    10    17    18    1
    11    18    19    1
    12    19    20    1
    13    20    21    1
    14    21    22    1
    15     4     5    1
    16     5     6    2
    17     6     7    1
    18     7     8    1
    19     8     9    2
    20    13    14   ar
    21    14    15   ar
    22    15    10   ar
    23     9     1    1
    24     8     3    1
    25    22    17    1
