@<TRIPOS>MOLECULE
*****
 44 48 0 0 0
SMALL
GASTEIGER

@<TRIPOS>ATOM
      1 C           8.3162   -8.2125   27.9800 C.2     1  UNL1        0.2458
      2 O           8.5554   -7.5750   29.3165 O.2     1  UNL1       -0.2730
      3 N           8.1494   -7.3562   26.7597 N.am    1  UNL1       -0.2767
      4 C           7.9058   -7.8484   25.3638 C.3     1  UNL1        0.0949
      5 C           7.8028   -6.6539   24.4625 C.3     1  UNL1        0.0390
      6 C           7.9827   -5.4234   25.3014 C.3     1  UNL1        0.0758
      7 C           8.1969   -5.8575   26.7211 C.3     1  UNL1        0.1091
      8 N           7.9535   -4.0074   24.8072 N.3     1  UNL1       -0.2982
      9 H           8.0857   -4.0455   23.7965 H       1  UNL1        0.1232
     10 C           6.7465   -3.1516   25.0541 C.3     1  UNL1        0.0542
     11 C           5.7372   -2.9460   23.9637 C.3     1  UNL1        0.0185
     12 C           4.5303   -2.0902   24.2106 C.3     1  UNL1        0.0340
     13 C           4.3326   -1.4401   25.5479 C.3     1  UNL1        0.1231
     14 O           3.1069   -0.9495   24.8360 O.3     1  UNL1       -0.3812
     15 C           5.3419   -1.6458   26.6383 C.3     1  UNL1        0.0340
     16 C           6.5489   -2.5015   26.3914 C.3     1  UNL1        0.0185
     17 H           3.0968   -1.2990   23.9312 H       1  UNL1        0.2107
     18 C           3.7093   -0.6196   26.6379 C.ar    1  UNL1        0.0830
     19 C           3.7239    0.8778   26.5513 C.ar    1  UNL1        0.0172
     20 C           3.1004    1.6982   27.6414 C.ar    1  UNL1        0.0059
     21 C           2.4624    1.0212   28.8180 C.ar    1  UNL1        0.0549
     22 C           2.4478   -0.4762   28.9047 C.ar    1  UNL1        0.1015
     23 N           3.0712   -1.2966   27.8146 N.ar    1  UNL1       -0.2458
     24 C           1.8390    1.8417   29.9081 C.ar    1  UNL1        0.1638
     25 N           1.3380    3.2244   29.6129 N.ar    1  UNL1       -0.2250
     26 C           0.7146    4.0448   30.7030 C.ar    1  UNL1        0.1022
     27 C           0.5923    3.4826   32.0882 C.ar    1  UNL1        0.0414
     28 C           1.0933    2.0999   32.3835 C.ar    1  UNL1        0.1022
     29 N           1.7167    1.2795   31.2933 N.ar    1  UNL1       -0.2250
     30 C           8.2438   -9.7062   27.8637 C.3     1  UNL1        0.1761
     31 O           7.9259  -12.6057   28.5652 O.2     1  UNL1       -0.2701
     32 C           6.7577  -11.8306   28.0317 C.2     1  UNL1        0.2462
     33 N           6.9167  -10.3809   27.6810 N.am    1  UNL1       -0.2931
     34 H           6.1499   -9.8723   27.3308 H       1  UNL1        0.1502
     35 C           5.4305  -12.5053   27.8489 C.ar    1  UNL1        0.0533
     36 C           5.1269  -13.2293   26.5708 C.ar    1  UNL1        0.0045
     37 C           3.7997  -13.9040   26.3880 C.ar    1  UNL1        0.0001
     38 C           2.7761  -13.8546   27.4833 C.ar    1  UNL1        0.0039
     39 C           3.0797  -13.1305   28.7614 C.ar    1  UNL1        0.0716
     40 C           4.4069  -12.4559   28.9442 C.ar    1  UNL1        0.0084
     41 C           2.0561  -13.0811   29.8567 C.3     1  UNL1        0.4186
     42 F           1.0324  -13.0317   30.9521 F       1  UNL1       -0.1659
     43 F           1.3168  -14.2188   29.2172 F       1  UNL1       -0.1659
     44 F           2.7953  -11.9434   30.4963 F       1  UNL1       -0.1659
@<TRIPOS>BOND
     1    31    32    2
     2    32    33   am
     3    33    30    1
     4    30     1    1
     5     1     2    2
     6     1     3   am
     7     3     4    1
     8     4     5    1
     9     5     6    1
    10     6     8    1
    11    10     8    1
    12    10    11    1
    13    11    12    1
    14    12    13    1
    15    13    14    1
    16    13    18    1
    17    18    19   ar
    18    19    20   ar
    19    20    21   ar
    20    21    24    1
    21    24    25   ar
    22    25    26   ar
    23    26    27   ar
    24    27    28   ar
    25    28    29   ar
    26    21    22   ar
    27    22    23   ar
    28    13    15    1
    29    15    16    1
    30     6     7    1
    31    32    35    1
    32    35    36   ar
    33    36    37   ar
    34    37    38   ar
    35    38    39   ar
    36    39    41    1
    37    41    42    1
    38    41    43    1
    39    41    44    1
    40    39    40   ar
    41     7     3    1
    42    40    35   ar
    43    16    10    1
    44    23    18   ar
    45    29    24   ar
    46    33    34    1
    47     8     9    1
    48    14    17    1
@<TRIPOS>MOLECULE
*****
 44 48 0 0 0
SMALL
GASTEIGER

@<TRIPOS>ATOM
      1 C           6.8838   -4.2052   23.6381 C.2     1  UNL1        0.2458
      2 O           6.1197   -3.0430   24.1997 O.2     1  UNL1       -0.2730
      3 N           7.3048   -5.3304   24.5362 N.am    1  UNL1       -0.2767
      4 C           8.0694   -6.5520   24.1199 C.3     1  UNL1        0.0949
      5 C           8.2722   -7.4082   25.3347 C.3     1  UNL1        0.0390
      6 C           7.6330   -6.7158   26.5018 C.3     1  UNL1        0.0758
      7 C           7.0351   -5.4317   26.0083 C.3     1  UNL1        0.1091
      8 N           7.5978   -7.2192   27.9143 N.3     1  UNL1       -0.2982
      9 H           8.3388   -7.9152   27.9974 H       1  UNL1        0.1232
     10 C           7.7725   -6.2622   29.0562 C.3     1  UNL1        0.0542
     11 C           9.0916   -6.1727   29.7646 C.3     1  UNL1        0.0185
     12 C           9.2663   -5.2157   30.9063 C.3     1  UNL1        0.0340
     13 C           8.1219   -4.3483   31.3397 C.3     1  UNL1        0.1231
     14 O           9.1700   -3.9039   32.3164 O.3     1  UNL1       -0.3812
     15 C           6.8028   -4.4378   30.6313 C.3     1  UNL1        0.0340
     16 C           6.6281   -5.3947   29.4895 C.3     1  UNL1        0.0185
     17 H           9.9917   -4.3929   32.1537 H       1  UNL1        0.2107
     18 C           7.3415   -3.3265   32.1123 C.ar    1  UNL1        0.0830
     19 C           8.0103   -2.0676   32.5792 C.ar    1  UNL1        0.0172
     20 C           7.2298   -1.0459   33.3519 C.ar    1  UNL1        0.0059
     21 C           5.7806   -1.2830   33.6575 C.ar    1  UNL1        0.0549
     22 C           5.1118   -2.5418   33.1905 C.ar    1  UNL1        0.1015
     23 N           5.8922   -3.5635   32.4179 N.ar    1  UNL1       -0.2458
     24 C           5.0001   -0.2611   34.4301 C.ar    1  UNL1        0.1638
     25 N           4.2215    0.7949   33.7031 N.ar    1  UNL1       -0.2250
     26 C           3.4412    1.8167   34.4758 C.ar    1  UNL1        0.1022
     27 C           3.4394    1.7823   35.9754 C.ar    1  UNL1        0.0414
     28 C           4.2180    0.7263   36.7024 C.ar    1  UNL1        0.1022
     29 N           4.9984   -0.2955   35.9297 N.ar    1  UNL1       -0.2250
     30 C           7.2269   -4.2421   22.1783 C.3     1  UNL1        0.1761
     31 O           4.4151   -4.6432   21.2124 O.2     1  UNL1       -0.2701
     32 C           5.2028   -3.4517   20.7542 C.2     1  UNL1        0.2462
     33 N           6.6086   -3.2512   21.2371 N.am    1  UNL1       -0.2931
     34 H           7.1256   -2.4692   20.9364 H       1  UNL1        0.1502
     35 C           4.5846   -2.4608   19.8130 C.ar    1  UNL1        0.0533
     36 C           5.2765   -2.1144   18.5279 C.ar    1  UNL1        0.0045
     37 C           4.6583   -1.1234   17.5868 C.ar    1  UNL1        0.0001
     38 C           3.3482   -0.4788   17.9306 C.ar    1  UNL1        0.0039
     39 C           2.6564   -0.8252   19.2157 C.ar    1  UNL1        0.0716
     40 C           3.2746   -1.8161   20.1569 C.ar    1  UNL1        0.0084
     41 C           1.3464   -0.1805   19.5595 C.3     1  UNL1        0.4186
     42 F           0.0363    0.4641   19.9034 F       1  UNL1       -0.1659
     43 F           1.3756    0.5711   18.2618 F       1  UNL1       -0.1659
     44 F           1.3172   -0.9322   20.8573 F       1  UNL1       -0.1659
@<TRIPOS>BOND
     1    31    32    2
     2    32    33   am
     3    33    30    1
     4    30     1    1
     5     1     2    2
     6     1     3   am
     7     3     4    1
     8     4     5    1
     9     5     6    1
    10     6     8    1
    11    10     8    1
    12    10    11    1
    13    11    12    1
    14    12    13    1
    15    13    14    1
    16    13    18    1
    17    18    19   ar
    18    19    20   ar
    19    20    21   ar
    20    21    24    1
    21    24    25   ar
    22    25    26   ar
    23    26    27   ar
    24    27    28   ar
    25    28    29   ar
    26    21    22   ar
    27    22    23   ar
    28    13    15    1
    29    15    16    1
    30     6     7    1
    31    32    35    1
    32    35    36   ar
    33    36    37   ar
    34    37    38   ar
    35    38    39   ar
    36    39    41    1
    37    41    42    1
    38    41    43    1
    39    41    44    1
    40    39    40   ar
    41     7     3    1
    42    40    35   ar
    43    16    10    1
    44    23    18   ar
    45    29    24   ar
    46    33    34    1
    47     8     9    1
    48    14    17    1
@<TRIPOS>MOLECULE
*****
 44 48 0 0 0
SMALL
GASTEIGER

@<TRIPOS>ATOM
      1 C           8.1996   -8.0791   27.7339 C.2     1  UNL1        0.2458
      2 O           8.0467   -7.2927   29.0020 O.2     1  UNL1       -0.2730
      3 N           8.4267   -7.3678   26.4330 N.am    1  UNL1       -0.2767
      4 C           8.5969   -8.0166   25.0913 C.3     1  UNL1        0.0949
      5 C           8.7990   -6.9325   24.0745 C.3     1  UNL1        0.0390
      6 C           8.7536   -5.6137   24.7877 C.3     1  UNL1        0.0758
      7 C           8.5236   -5.8827   26.2453 C.3     1  UNL1        0.1091
      8 N           8.9107   -4.2630   24.1545 N.3     1  UNL1       -0.2982
      9 H           9.8509   -4.2301   23.7604 H       1  UNL1        0.1232
     10 C           7.9707   -3.8297   23.0688 C.3     1  UNL1        0.0542
     11 C           8.0114   -4.5026   21.7288 C.3     1  UNL1        0.0185
     12 C           7.0715   -4.0693   20.6432 C.3     1  UNL1        0.0340
     13 C           6.0908   -2.9631   20.8975 C.3     1  UNL1        0.1231
     14 O           5.7498   -3.2915   19.4742 O.3     1  UNL1       -0.3812
     15 C           6.0501   -2.2902   22.2374 C.3     1  UNL1        0.0340
     16 C           6.9901   -2.7235   23.3231 C.3     1  UNL1        0.0185
     17 H           6.3201   -4.0118   19.1629 H       1  UNL1        0.2107
     18 C           4.9917   -1.9710   20.6574 C.ar    1  UNL1        0.0830
     19 C           3.6508   -2.4391   20.1750 C.ar    1  UNL1        0.0172
     20 C           2.5518   -1.4469   19.9349 C.ar    1  UNL1        0.0059
     21 C           2.7937    0.0135   20.1773 C.ar    1  UNL1        0.0549
     22 C           4.1346    0.4816   20.6597 C.ar    1  UNL1        0.1015
     23 N           5.2336   -0.5105   20.8998 N.ar    1  UNL1       -0.2458
     24 C           1.6946    1.0057   19.9372 C.ar    1  UNL1        0.1638
     25 N           1.6311    1.7552   18.6394 N.ar    1  UNL1       -0.2250
     26 C           0.5319    2.7474   18.3994 C.ar    1  UNL1        0.1022
     27 C          -0.5036    2.9900   19.4571 C.ar    1  UNL1        0.0414
     28 C          -0.4401    2.2405   20.7549 C.ar    1  UNL1        0.1022
     29 N           0.6591    1.2483   20.9949 N.ar    1  UNL1       -0.2250
     30 C           8.1253   -9.5769   27.7667 C.3     1  UNL1        0.1761
     31 O           7.8543  -12.4782   28.4803 O.2     1  UNL1       -0.2701
     32 C           6.6658  -11.7163   27.9735 C.2     1  UNL1        0.2462
     33 N           6.8012  -10.2658   27.6167 N.am    1  UNL1       -0.2931
     34 H           6.0211   -9.7657   27.2841 H       1  UNL1        0.1502
     35 C           5.3417  -12.4051   27.8235 C.ar    1  UNL1        0.0533
     36 C           5.0163  -13.1368   26.5552 C.ar    1  UNL1        0.0045
     37 C           3.6922  -13.8255   26.4052 C.ar    1  UNL1        0.0001
     38 C           2.6935  -13.7825   27.5235 C.ar    1  UNL1        0.0039
     39 C           3.0189  -13.0508   28.7918 C.ar    1  UNL1        0.0716
     40 C           4.3430  -12.3621   28.9418 C.ar    1  UNL1        0.0084
     41 C           2.0202  -13.0078   29.9102 C.3     1  UNL1        0.4186
     42 F           1.0214  -12.9648   31.0286 F       1  UNL1       -0.1659
     43 F           1.2046  -14.0622   29.2224 F       1  UNL1       -0.1659
     44 F           2.8358  -11.9534   30.5980 F       1  UNL1       -0.1659
@<TRIPOS>BOND
     1    31    32    2
     2    32    33   am
     3    33    30    1
     4    30     1    1
     5     1     2    2
     6     1     3   am
     7     3     4    1
     8     4     5    1
     9     5     6    1
    10     6     8    1
    11    10     8    1
    12    10    11    1
    13    11    12    1
    14    12    13    1
    15    13    14    1
    16    13    18    1
    17    18    19   ar
    18    19    20   ar
    19    20    21   ar
    20    21    24    1
    21    24    25   ar
    22    25    26   ar
    23    26    27   ar
    24    27    28   ar
    25    28    29   ar
    26    21    22   ar
    27    22    23   ar
    28    13    15    1
    29    15    16    1
    30     6     7    1
    31    32    35    1
    32    35    36   ar
    33    36    37   ar
    34    37    38   ar
    35    38    39   ar
    36    39    41    1
    37    41    42    1
    38    41    43    1
    39    41    44    1
    40    39    40   ar
    41     7     3    1
    42    40    35   ar
    43    16    10    1
    44    23    18   ar
    45    29    24   ar
    46    33    34    1
    47     8     9    1
    48    14    17    1
@<TRIPOS>MOLECULE
*****
 44 48 0 0 0
SMALL
GASTEIGER

@<TRIPOS>ATOM
      1 C           0.5033    2.4880   21.1566 C.2     1  UNL1        0.2458
      2 O          -0.7911    1.9257   20.6485 O.2     1  UNL1       -0.2730
      3 N           0.6454    2.8535   22.6045 N.am    1  UNL1       -0.2767
      4 C           1.8718    3.4229   23.2538 C.3     1  UNL1        0.0949
      5 C           1.5703    3.6351   24.7078 C.3     1  UNL1        0.0390
      6 C           0.1576    3.1968   24.9571 C.3     1  UNL1        0.0758
      7 C          -0.4140    2.7137   23.6571 C.3     1  UNL1        0.1091
      8 N          -0.5579    3.2348   26.2749 N.3     1  UNL1       -0.2982
      9 H          -1.5017    2.8859   26.1077 H       1  UNL1        0.1232
     10 C          -0.0146    2.4703   27.4456 C.3     1  UNL1        0.0542
     11 C           0.0355    0.9718   27.4047 C.3     1  UNL1        0.0185
     12 C           0.5787    0.2073   28.5754 C.3     1  UNL1        0.0340
     13 C           1.0717    0.9415   29.7870 C.3     1  UNL1        0.1231
     14 O           1.3235   -0.4727   30.2189 O.3     1  UNL1       -0.3812
     15 C           1.0216    2.4401   29.8279 C.3     1  UNL1        0.0340
     16 C           0.4784    3.2045   28.6572 C.3     1  UNL1        0.0185
     17 H           1.0455   -1.0800   29.5155 H       1  UNL1        0.2107
     18 C           1.6522    1.1844   31.1486 C.ar    1  UNL1        0.0830
     19 C           1.1239    2.2997   32.0012 C.ar    1  UNL1        0.0172
     20 C           1.7044    2.5426   33.3628 C.ar    1  UNL1        0.0059
     21 C           2.8133    1.6701   33.8718 C.ar    1  UNL1        0.0549
     22 C           3.3417    0.5548   33.0192 C.ar    1  UNL1        0.1015
     23 N           2.7612    0.3119   31.6577 N.ar    1  UNL1       -0.2458
     24 C           3.3938    1.9130   35.2335 C.ar    1  UNL1        0.1638
     25 N           4.8790    1.8572   35.4365 N.ar    1  UNL1       -0.2250
     26 C           5.4594    2.1002   36.7982 C.ar    1  UNL1        0.1022
     27 C           4.5547    2.3988   37.9567 C.ar    1  UNL1        0.0414
     28 C           3.0696    2.4546   37.7537 C.ar    1  UNL1        0.1022
     29 N           2.4891    2.2117   36.3920 N.ar    1  UNL1       -0.2250
     30 C           1.6557    2.6848   20.2168 C.3     1  UNL1        0.1761
     31 O           1.0361    0.5178   18.2369 O.2     1  UNL1       -0.2701
     32 C           2.3271    0.4897   19.0000 C.2     1  UNL1        0.2462
     33 N           2.6369    1.5732   19.9900 N.am    1  UNL1       -0.2931
     34 H           3.4843    1.5547   20.4908 H       1  UNL1        0.1502
     35 C           3.3084   -0.6219   18.7733 C.ar    1  UNL1        0.0533
     36 C           4.5919   -0.3525   18.0451 C.ar    1  UNL1        0.0045
     37 C           5.5732   -1.4641   17.8183 C.ar    1  UNL1        0.0001
     38 C           5.2710   -2.8451   18.3197 C.ar    1  UNL1        0.0039
     39 C           3.9876   -3.1146   19.0478 C.ar    1  UNL1        0.0716
     40 C           3.0063   -2.0029   19.2746 C.ar    1  UNL1        0.0084
     41 C           3.6855   -4.4956   19.5492 C.3     1  UNL1        0.4186
     42 F           3.3833   -5.8767   20.0505 F       1  UNL1       -0.1659
     43 F           4.9654   -4.4917   20.3312 F       1  UNL1       -0.1659
     44 F           2.4055   -4.4995   18.7671 F       1  UNL1       -0.1659
@<TRIPOS>BOND
     1    31    32    2
     2    32    33   am
     3    33    30    1
     4    30     1    1
     5     1     2    2
     6     1     3   am
     7     3     4    1
     8     4     5    1
     9     5     6    1
    10     6     8    1
    11    10     8    1
    12    10    11    1
    13    11    12    1
    14    12    13    1
    15    13    14    1
    16    13    18    1
    17    18    19   ar
    18    19    20   ar
    19    20    21   ar
    20    21    24    1
    21    24    25   ar
    22    25    26   ar
    23    26    27   ar
    24    27    28   ar
    25    28    29   ar
    26    21    22   ar
    27    22    23   ar
    28    13    15    1
    29    15    16    1
    30     6     7    1
    31    32    35    1
    32    35    36   ar
    33    36    37   ar
    34    37    38   ar
    35    38    39   ar
    36    39    41    1
    37    41    42    1
    38    41    43    1
    39    41    44    1
    40    39    40   ar
    41     7     3    1
    42    40    35   ar
    43    16    10    1
    44    23    18   ar
    45    29    24   ar
    46    33    34    1
    47     8     9    1
    48    14    17    1
@<TRIPOS>MOLECULE
*****
 44 48 0 0 0
SMALL
GASTEIGER

@<TRIPOS>ATOM
      1 C           0.6106    0.6788   20.0674 C.2     1  UNL1        0.2458
      2 O          -0.0718   -0.4230   20.8227 O.2     1  UNL1       -0.2730
      3 N           1.8089    0.3753   19.2178 N.am    1  UNL1       -0.2767
      4 C           2.5910    1.3680   18.4096 C.3     1  UNL1        0.0949
      5 C           3.7009    0.6320   17.7195 C.3     1  UNL1        0.0390
      6 C           3.6049   -0.8155   18.1010 C.3     1  UNL1        0.0758
      7 C           2.4355   -0.9741   19.0270 C.3     1  UNL1        0.1091
      8 N           4.5178   -1.9118   17.6379 N.3     1  UNL1       -0.2982
      9 H           4.9799   -1.5733   16.7939 H       1  UNL1        0.1232
     10 C           5.5961   -2.4238   18.5463 C.3     1  UNL1        0.0542
     11 C           7.0366   -2.1534   18.2273 C.3     1  UNL1        0.0185
     12 C           8.1148   -2.6654   19.1358 C.3     1  UNL1        0.0340
     13 C           7.7525   -3.4479   20.3632 C.3     1  UNL1        0.1231
     14 O           9.2475   -3.4494   20.4852 O.3     1  UNL1       -0.3812
     15 C           6.3120   -3.7183   20.6821 C.3     1  UNL1        0.0340
     16 C           5.2338   -3.2063   19.7737 C.3     1  UNL1        0.0185
     17 H           9.6333   -2.9651   19.7385 H       1  UNL1        0.2107
     18 C           7.9094   -4.2308   21.6329 C.ar    1  UNL1        0.0830
     19 C           8.7853   -5.4483   21.6601 C.ar    1  UNL1        0.0172
     20 C           8.9422   -6.2312   22.9299 C.ar    1  UNL1        0.0059
     21 C           8.2233   -5.7966   24.1726 C.ar    1  UNL1        0.0549
     22 C           7.3474   -4.5792   24.1455 C.ar    1  UNL1        0.1015
     23 N           7.1905   -3.7963   22.8757 N.ar    1  UNL1       -0.2458
     24 C           8.3803   -6.5796   25.4424 C.ar    1  UNL1        0.1638
     25 N           9.2791   -6.0716   26.5305 N.ar    1  UNL1       -0.2250
     26 C           9.4360   -6.8546   27.8003 C.ar    1  UNL1        0.1022
     27 C           8.6941   -8.1455   27.9819 C.ar    1  UNL1        0.0414
     28 C           7.7952   -8.6535   26.8938 C.ar    1  UNL1        0.1022
     29 N           7.6383   -7.8705   25.6241 N.ar    1  UNL1       -0.2250
     30 C           0.0946    2.0841   20.1619 C.3     1  UNL1        0.1761
     31 O          -1.9566    3.8408   18.8555 O.2     1  UNL1       -0.2701
     32 C          -2.2324    3.2386   20.2014 C.2     1  UNL1        0.2462
     33 N          -1.2069    2.3603   20.8545 N.am    1  UNL1       -0.2931
     34 H          -1.3880    1.9652   21.7379 H       1  UNL1        0.1502
     35 C          -3.5339    3.5148   20.8941 C.ar    1  UNL1        0.0533
     36 C          -4.7677    3.7953   20.0884 C.ar    1  UNL1        0.0045
     37 C          -6.0692    4.0715   20.7811 C.ar    1  UNL1        0.0001
     38 C          -6.1369    4.0672   22.2795 C.ar    1  UNL1        0.0039
     39 C          -4.9032    3.7868   23.0853 C.ar    1  UNL1        0.0716
     40 C          -3.6017    3.5106   22.3925 C.ar    1  UNL1        0.0084
     41 C          -4.9709    3.7826   24.5837 C.3     1  UNL1        0.4186
     42 F          -5.0386    3.7784   26.0822 F       1  UNL1       -0.1659
     43 F          -6.3418    4.3885   24.5234 F       1  UNL1       -0.1659
     44 F          -3.6001    3.1768   24.6440 F       1  UNL1       -0.1659
@<TRIPOS>BOND
     1    31    32    2
     2    32    33   am
     3    33    30    1
     4    30     1    1
     5     1     2    2
     6     1     3   am
     7     3     4    1
     8     4     5    1
     9     5     6    1
    10     6     8    1
    11    10     8    1
    12    10    11    1
    13    11    12    1
    14    12    13    1
    15    13    14    1
    16    13    18    1
    17    18    19   ar
    18    19    20   ar
    19    20    21   ar
    20    21    24    1
    21    24    25   ar
    22    25    26   ar
    23    26    27   ar
    24    27    28   ar
    25    28    29   ar
    26    21    22   ar
    27    22    23   ar
    28    13    15    1
    29    15    16    1
    30     6     7    1
    31    32    35    1
    32    35    36   ar
    33    36    37   ar
    34    37    38   ar
    35    38    39   ar
    36    39    41    1
    37    41    42    1
    38    41    43    1
    39    41    44    1
    40    39    40   ar
    41     7     3    1
    42    40    35   ar
    43    16    10    1
    44    23    18   ar
    45    29    24   ar
    46    33    34    1
    47     8     9    1
    48    14    17    1
@<TRIPOS>MOLECULE
*****
 44 48 0 0 0
SMALL
GASTEIGER

@<TRIPOS>ATOM
      1 C           8.4345   -8.3147   27.9644 C.2     1  UNL1        0.2458
      2 O           8.5589   -7.6504   29.3035 O.2     1  UNL1       -0.2730
      3 N           8.4586   -7.4889   26.7124 N.am    1  UNL1       -0.2767
      4 C           8.3453   -8.0099   25.3103 C.3     1  UNL1        0.0949
      5 C           8.4169   -6.8401   24.3740 C.3     1  UNL1        0.0390
      6 C           8.5745   -5.5963   25.1974 C.3     1  UNL1        0.0758
      7 C           8.6002   -5.9972   26.6426 C.3     1  UNL1        0.1091
      8 N           8.6866   -4.1971   24.6686 N.3     1  UNL1       -0.2982
      9 H           9.0595   -4.2692   23.7219 H       1  UNL1        0.1232
     10 C           7.4683   -3.3256   24.5888 C.3     1  UNL1        0.0542
     11 C           6.6259   -3.1007   25.8093 C.3     1  UNL1        0.0185
     12 C           5.4076   -2.2292   25.7295 C.3     1  UNL1        0.0340
     13 C           5.0319   -1.5826   24.4293 C.3     1  UNL1        0.1231
     14 O           3.9255   -1.0715   25.3037 O.3     1  UNL1       -0.3812
     15 C           5.8743   -1.8075   23.2088 C.3     1  UNL1        0.0340
     16 C           7.0925   -2.6790   23.2885 C.3     1  UNL1        0.0185
     17 H           4.0386   -1.4165   26.2031 H       1  UNL1        0.2107
     18 C           4.2718   -0.7585   23.4327 C.ar    1  UNL1        0.0830
     19 C           3.4917   -1.4312   22.3424 C.ar    1  UNL1        0.0172
     20 C           2.7316   -0.6069   21.3459 C.ar    1  UNL1        0.0059
     21 C           2.7517    0.8900   21.4397 C.ar    1  UNL1        0.0549
     22 C           3.5319    1.5627   22.5301 C.ar    1  UNL1        0.1015
     23 N           4.2919    0.7385   23.5265 N.ar    1  UNL1       -0.2458
     24 C           1.9916    1.7142   20.4432 C.ar    1  UNL1        0.1638
     25 N           1.9457    3.2068   20.5838 N.ar    1  UNL1       -0.2250
     26 C           1.1856    4.0309   19.5872 C.ar    1  UNL1        0.1022
     27 C           0.4715    3.3623   18.4501 C.ar    1  UNL1        0.0414
     28 C           0.5174    1.8697   18.3095 C.ar    1  UNL1        0.1022
     29 N           1.2776    1.0456   19.3061 N.ar    1  UNL1       -0.2250
     30 C           8.2860   -9.8048   27.8773 C.3     1  UNL1        0.1761
     31 O           7.8823  -12.7291   28.4114 O.2     1  UNL1       -0.2701
     32 C           6.7230  -11.8771   27.9869 C.2     1  UNL1        0.2462
     33 N           6.9249  -10.4150   27.7199 N.am    1  UNL1       -0.2931
     34 H           6.1640   -9.8559   27.4413 H       1  UNL1        0.1502
     35 C           5.3618  -12.4873   27.8295 C.ar    1  UNL1        0.0533
     36 C           4.9778  -13.1403   26.5348 C.ar    1  UNL1        0.0045
     37 C           3.6165  -13.7505   26.3773 C.ar    1  UNL1        0.0001
     38 C           2.6393  -13.7077   27.5145 C.ar    1  UNL1        0.0039
     39 C           3.0233  -13.0547   28.8092 C.ar    1  UNL1        0.0716
     40 C           4.3846  -12.4445   28.9666 C.ar    1  UNL1        0.0084
     41 C           2.0461  -13.0119   29.9463 C.3     1  UNL1        0.4186
     42 F           1.0688  -12.9691   31.0836 F       1  UNL1       -0.1659
     43 F           2.8304  -11.9004   30.5784 F       1  UNL1       -0.1659
     44 F           1.2618  -14.1233   29.3142 F       1  UNL1       -0.1659
@<TRIPOS>BOND
     1    31    32    2
     2    32    33   am
     3    33    30    1
     4    30     1    1
     5     1     2    2
     6     1     3   am
     7     3     4    1
     8     4     5    1
     9     5     6    1
    10     6     8    1
    11    10     8    1
    12    10    11    1
    13    11    12    1
    14    12    13    1
    15    13    14    1
    16    13    18    1
    17    18    19   ar
    18    19    20   ar
    19    20    21   ar
    20    21    24    1
    21    24    25   ar
    22    25    26   ar
    23    26    27   ar
    24    27    28   ar
    25    28    29   ar
    26    21    22   ar
    27    22    23   ar
    28    13    15    1
    29    15    16    1
    30     6     7    1
    31    32    35    1
    32    35    36   ar
    33    36    37   ar
    34    37    38   ar
    35    38    39   ar
    36    39    41    1
    37    41    42    1
    38    41    43    1
    39    41    44    1
    40    39    40   ar
    41     7     3    1
    42    40    35   ar
    43    16    10    1
    44    23    18   ar
    45    29    24   ar
    46    33    34    1
    47     8     9    1
    48    14    17    1
@<TRIPOS>MOLECULE
*****
 44 48 0 0 0
SMALL
GASTEIGER

@<TRIPOS>ATOM
      1 C           6.7489   -3.8724   21.4958 C.2     1  UNL1        0.2458
      2 O           5.4373   -4.2545   22.1151 O.2     1  UNL1       -0.2730
      3 N           6.7752   -3.0328   20.2530 N.am    1  UNL1       -0.2767
      4 C           8.0037   -2.5745   19.5244 C.3     1  UNL1        0.0949
      5 C           7.5654   -1.7625   18.3418 C.3     1  UNL1        0.0390
      6 C           6.0660   -1.7190   18.3395 C.3     1  UNL1        0.0758
      7 C           5.5777   -2.5041   19.5207 C.3     1  UNL1        0.1091
      8 N           5.2059   -1.0142   17.3328 N.3     1  UNL1       -0.2982
      9 H           4.5918   -1.7192   16.9252 H       1  UNL1        0.1232
     10 C           4.3312    0.1266   17.7613 C.3     1  UNL1        0.0542
     11 C           4.9119    1.5013   17.9124 C.3     1  UNL1        0.0185
     12 C           4.0372    2.6420   18.3408 C.3     1  UNL1        0.0340
     13 C           2.5818    2.4080   18.6181 C.3     1  UNL1        0.1231
     14 O           2.6674    3.8789   18.8995 O.3     1  UNL1       -0.3812
     15 C           2.0010    1.0333   18.4670 C.3     1  UNL1        0.0340
     16 C           2.8757   -0.1074   18.0386 C.3     1  UNL1        0.0185
     17 H           3.5777    4.1827   18.7582 H       1  UNL1        0.2107
     18 C           1.1561    2.6849   18.9932 C.ar    1  UNL1        0.0830
     19 C           0.2947    3.5257   18.0981 C.ar    1  UNL1        0.0172
     20 C          -1.1310    3.8026   18.4732 C.ar    1  UNL1        0.0059
     21 C          -1.6954    3.2387   19.7434 C.ar    1  UNL1        0.0549
     22 C          -0.8340    2.3979   20.6385 C.ar    1  UNL1        0.1015
     23 N           0.5916    2.1210   20.2634 N.ar    1  UNL1       -0.2458
     24 C          -3.1211    3.5156   20.1185 C.ar    1  UNL1        0.1638
     25 N          -3.6125    3.1826   21.4960 N.ar    1  UNL1       -0.2250
     26 C          -5.0382    3.4596   21.8710 C.ar    1  UNL1        0.1022
     27 C          -5.9725    4.0694   20.8684 C.ar    1  UNL1        0.0414
     28 C          -5.4812    4.4023   19.4909 C.ar    1  UNL1        0.1022
     29 N          -4.0554    4.1254   19.1159 N.ar    1  UNL1       -0.2250
     30 C           8.0342   -4.3299   22.1191 C.3     1  UNL1        0.1761
     31 O           8.5451   -7.2287   22.6989 O.2     1  UNL1       -0.2701
     32 C           8.3030   -6.2696   23.8265 C.2     1  UNL1        0.2462
     33 N           8.0476   -4.8203   23.5367 N.am    1  UNL1       -0.2931
     34 H           7.8887   -4.1909   24.2768 H       1  UNL1        0.1502
     35 C           8.3164   -6.7599   25.2441 C.ar    1  UNL1        0.0533
     36 C           9.0048   -8.0481   25.5857 C.ar    1  UNL1        0.0045
     37 C           9.0181   -8.5384   27.0033 C.ar    1  UNL1        0.0001
     38 C           8.3430   -7.7405   28.0792 C.ar    1  UNL1        0.0039
     39 C           7.6546   -6.4524   27.7376 C.ar    1  UNL1        0.0716
     40 C           7.6413   -5.9621   26.3200 C.ar    1  UNL1        0.0084
     41 C           6.9795   -5.6545   28.8135 C.3     1  UNL1        0.4186
     42 F           6.3044   -4.8566   29.8895 F       1  UNL1       -0.1659
     43 F           6.0637   -5.0502   27.7907 F       1  UNL1       -0.1659
     44 F           7.8953   -6.2588   29.8363 F       1  UNL1       -0.1659
@<TRIPOS>BOND
     1    31    32    2
     2    32    33   am
     3    33    30    1
     4    30     1    1
     5     1     2    2
     6     1     3   am
     7     3     4    1
     8     4     5    1
     9     5     6    1
    10     6     8    1
    11    10     8    1
    12    10    11    1
    13    11    12    1
    14    12    13    1
    15    13    14    1
    16    13    18    1
    17    18    19   ar
    18    19    20   ar
    19    20    21   ar
    20    21    24    1
    21    24    25   ar
    22    25    26   ar
    23    26    27   ar
    24    27    28   ar
    25    28    29   ar
    26    21    22   ar
    27    22    23   ar
    28    13    15    1
    29    15    16    1
    30     6     7    1
    31    32    35    1
    32    35    36   ar
    33    36    37   ar
    34    37    38   ar
    35    38    39   ar
    36    39    41    1
    37    41    42    1
    38    41    43    1
    39    41    44    1
    40    39    40   ar
    41     7     3    1
    42    40    35   ar
    43    16    10    1
    44    23    18   ar
    45    29    24   ar
    46    33    34    1
    47     8     9    1
    48    14    17    1
@<TRIPOS>MOLECULE
*****
 44 48 0 0 0
SMALL
GASTEIGER

@<TRIPOS>ATOM
      1 C           5.6956   -2.5401   18.4268 C.2     1  UNL1        0.2458
      2 O           6.8449   -2.3433   17.4833 O.2     1  UNL1       -0.2730
      3 N           5.9418   -3.0693   19.8086 N.am    1  UNL1       -0.2767
      4 C           4.8978   -3.3170   20.8569 C.3     1  UNL1        0.0949
      5 C           5.5860   -3.8445   22.0809 C.3     1  UNL1        0.0390
      6 C           7.0553   -3.9228   21.7891 C.3     1  UNL1        0.0758
      7 C           7.2752   -3.4437   20.3848 C.3     1  UNL1        0.1091
      8 N           8.1181   -4.3970   22.7354 N.3     1  UNL1       -0.2982
      9 H           8.8519   -3.6885   22.7330 H       1  UNL1        0.1232
     10 C           7.7785   -4.6637   24.1720 C.3     1  UNL1        0.0542
     11 C           7.6608   -6.0753   24.6652 C.3     1  UNL1        0.0185
     12 C           7.3212   -6.3420   26.1017 C.3     1  UNL1        0.0340
     13 C           7.0994   -5.1970   27.0449 C.3     1  UNL1        0.1231
     14 O           6.8779   -6.3501   27.9783 O.3     1  UNL1       -0.3812
     15 C           7.2171   -3.7853   26.5517 C.3     1  UNL1        0.0340
     16 C           7.5566   -3.5187   25.1152 C.3     1  UNL1        0.0185
     17 H           6.9913   -7.1836   27.4952 H       1  UNL1        0.2107
     18 C           6.8006   -4.4525   28.3124 C.ar    1  UNL1        0.0830
     19 C           7.0166   -5.1156   29.6405 C.ar    1  UNL1        0.0172
     20 C           6.7178   -4.3710   30.9079 C.ar    1  UNL1        0.0059
     21 C           6.2029   -2.9634   30.8472 C.ar    1  UNL1        0.0549
     22 C           5.9869   -2.3004   29.5192 C.ar    1  UNL1        0.1015
     23 N           6.2857   -3.0449   28.2518 N.ar    1  UNL1       -0.2458
     24 C           5.9041   -2.2189   32.1148 C.ar    1  UNL1        0.1638
     25 N           6.9243   -1.2842   32.6938 N.ar    1  UNL1       -0.2250
     26 C           6.6254   -0.5397   33.9613 C.ar    1  UNL1        0.1022
     27 C           5.3064   -0.7300   34.6496 C.ar    1  UNL1        0.0414
     28 C           4.2861   -1.6648   34.0706 C.ar    1  UNL1        0.1022
     29 N           4.5850   -2.4092   32.8031 N.ar    1  UNL1       -0.2250
     30 C           4.3001   -2.2077   17.9886 C.3     1  UNL1        0.1761
     31 O           2.2586   -1.0066   19.8297 O.2     1  UNL1       -0.2701
     32 C           2.8674   -0.1748   18.7400 C.2     1  UNL1        0.2462
     33 N           3.8881   -0.7753   17.8195 N.am    1  UNL1       -0.2931
     34 H           4.2877   -0.2293   17.1043 H       1  UNL1        0.1502
     35 C           2.4555    1.2576   18.5709 C.ar    1  UNL1        0.0533
     36 C           3.4976    2.3339   18.4968 C.ar    1  UNL1        0.0045
     37 C           3.0857    3.7663   18.3277 C.ar    1  UNL1        0.0001
     38 C           1.6316    4.1224   18.2325 C.ar    1  UNL1        0.0039
     39 C           0.5896    3.0460   18.3066 C.ar    1  UNL1        0.0716
     40 C           1.0015    1.6136   18.4757 C.ar    1  UNL1        0.0084
     41 C          -0.8644    3.4020   18.2115 C.3     1  UNL1        0.4186
     42 F          -2.3185    3.7581   18.1164 F       1  UNL1       -0.1659
     43 F          -0.7159    3.6140   16.7340 F       1  UNL1       -0.1659
     44 F          -1.0130    3.1901   19.6889 F       1  UNL1       -0.1659
@<TRIPOS>BOND
     1    31    32    2
     2    32    33   am
     3    33    30    1
     4    30     1    1
     5     1     2    2
     6     1     3   am
     7     3     4    1
     8     4     5    1
     9     5     6    1
    10     6     8    1
    11    10     8    1
    12    10    11    1
    13    11    12    1
    14    12    13    1
    15    13    14    1
    16    13    18    1
    17    18    19   ar
    18    19    20   ar
    19    20    21   ar
    20    21    24    1
    21    24    25   ar
    22    25    26   ar
    23    26    27   ar
    24    27    28   ar
    25    28    29   ar
    26    21    22   ar
    27    22    23   ar
    28    13    15    1
    29    15    16    1
    30     6     7    1
    31    32    35    1
    32    35    36   ar
    33    36    37   ar
    34    37    38   ar
    35    38    39   ar
    36    39    41    1
    37    41    42    1
    38    41    43    1
    39    41    44    1
    40    39    40   ar
    41     7     3    1
    42    40    35   ar
    43    16    10    1
    44    23    18   ar
    45    29    24   ar
    46    33    34    1
    47     8     9    1
    48    14    17    1
@<TRIPOS>MOLECULE
*****
 44 48 0 0 0
SMALL
GASTEIGER

@<TRIPOS>ATOM
      1 C           0.7755    0.8223   19.9045 C.2     1  UNL1        0.2458
      2 O          -0.2262    0.2433   20.8590 O.2     1  UNL1       -0.2730
      3 N           1.9563    0.0056   19.4697 N.am    1  UNL1       -0.2767
      4 C           3.0347    0.4480   18.5255 C.3     1  UNL1        0.0949
      5 C           4.0108   -0.6810   18.3751 C.3     1  UNL1        0.0390
      6 C           3.5357   -1.8210   19.2264 C.3     1  UNL1        0.0758
      7 C           2.2660   -1.3967   19.9029 C.3     1  UNL1        0.1091
      8 N           4.2117   -3.1518   19.3750 N.3     1  UNL1       -0.2982
      9 H           4.7655   -3.2966   18.5308 H       1  UNL1        0.1232
     10 C           5.1230   -3.4042   20.5395 C.3     1  UNL1        0.0542
     11 C           6.5819   -3.6644   20.3075 C.3     1  UNL1        0.0185
     12 C           7.4931   -3.9168   21.4719 C.3     1  UNL1        0.0340
     13 C           6.9455   -3.9090   22.8683 C.3     1  UNL1        0.1231
     14 O           8.3882   -4.2018   23.1559 O.3     1  UNL1       -0.3812
     15 C           5.4866   -3.6488   23.1003 C.3     1  UNL1        0.0340
     16 C           4.5753   -3.3964   21.9359 C.3     1  UNL1        0.0185
     17 H           8.8831   -4.2382   22.3225 H       1  UNL1        0.2107
     18 C           6.8989   -4.0029   24.3646 C.ar    1  UNL1        0.0830
     19 C           7.2239   -5.2995   25.0452 C.ar    1  UNL1        0.0172
     20 C           7.1773   -5.3933   26.5416 C.ar    1  UNL1        0.0059
     21 C           6.8058   -4.1906   27.3573 C.ar    1  UNL1        0.0549
     22 C           6.4809   -2.8940   26.6766 C.ar    1  UNL1        0.1015
     23 N           6.5274   -2.8002   25.1804 N.ar    1  UNL1       -0.2458
     24 C           6.7593   -4.2845   28.8537 C.ar    1  UNL1        0.1638
     25 N           7.0067   -5.6000   29.5306 N.ar    1  UNL1       -0.2250
     26 C           6.9601   -5.6938   31.0270 C.ar    1  UNL1        0.1022
     27 C           6.6662   -4.4722   31.8463 C.ar    1  UNL1        0.0414
     28 C           6.4188   -3.1567   31.1693 C.ar    1  UNL1        0.1022
     29 N           6.4654   -3.0629   29.6730 N.ar    1  UNL1       -0.2250
     30 C           0.5966    2.2179   19.3846 C.3     1  UNL1        0.1761
     31 O          -1.0285    3.3155   21.6550 O.2     1  UNL1       -0.2701
     32 C          -1.5941    3.3015   20.2658 C.2     1  UNL1        0.2462
     33 N          -0.7816    2.7527   19.1307 N.am    1  UNL1       -0.2931
     34 H          -1.1529    2.7436   18.2189 H       1  UNL1        0.1502
     35 C          -2.9723    3.8364   20.0117 C.ar    1  UNL1        0.0533
     36 C          -3.2876    4.5082   18.7081 C.ar    1  UNL1        0.0045
     37 C          -4.6658    5.0430   18.4541 C.ar    1  UNL1        0.0001
     38 C          -5.7287    4.9061   19.5035 C.ar    1  UNL1        0.0039
     39 C          -5.4134    4.2343   20.8071 C.ar    1  UNL1        0.0716
     40 C          -4.0352    3.6995   21.0612 C.ar    1  UNL1        0.0084
     41 C          -6.4764    4.0974   21.8566 C.3     1  UNL1        0.4186
     42 F          -7.5394    3.9605   22.9061 F       1  UNL1       -0.1659
     43 F          -5.5994    3.1508   22.6213 F       1  UNL1       -0.1659
     44 F          -7.3533    5.0440   21.0919 F       1  UNL1       -0.1659
@<TRIPOS>BOND
     1    31    32    2
     2    32    33   am
     3    33    30    1
     4    30     1    1
     5     1     2    2
     6     1     3   am
     7     3     4    1
     8     4     5    1
     9     5     6    1
    10     6     8    1
    11    10     8    1
    12    10    11    1
    13    11    12    1
    14    12    13    1
    15    13    14    1
    16    13    18    1
    17    18    19   ar
    18    19    20   ar
    19    20    21   ar
    20    21    24    1
    21    24    25   ar
    22    25    26   ar
    23    26    27   ar
    24    27    28   ar
    25    28    29   ar
    26    21    22   ar
    27    22    23   ar
    28    13    15    1
    29    15    16    1
    30     6     7    1
    31    32    35    1
    32    35    36   ar
    33    36    37   ar
    34    37    38   ar
    35    38    39   ar
    36    39    41    1
    37    41    42    1
    38    41    43    1
    39    41    44    1
    40    39    40   ar
    41     7     3    1
    42    40    35   ar
    43    16    10    1
    44    23    18   ar
    45    29    24   ar
    46    33    34    1
    47     8     9    1
    48    14    17    1
