@<TRIPOS>MOLECULE
*****
 27 30 0 0 0
SMALL
GASTEIGER

@<TRIPOS>ATOM
      1 C          -6.5029  -18.6565   20.4764 C.ar    1  UNL1        0.1535
      2 C          -7.6874  -19.3700   19.8952 C.ar    1  UNL1        0.1332
      3 N          -9.0249  -19.2736   20.5673 N.ar    1  UNL1       -0.2392
      4 C          -9.1779  -18.4637   21.8205 C.ar    1  UNL1        0.1035
      5 C          -7.9934  -17.7502   22.4017 C.ar    1  UNL1        0.1019
      6 N          -6.6559  -17.8466   21.7296 N.ar    1  UNL1       -0.2274
      7 C         -10.5156  -18.3673   22.4926 C.ar    1  UNL1        0.0771
      8 C         -10.9130  -19.3840   23.5213 C.ar    1  UNL1        0.1628
      9 F          -9.9730  -20.4971   23.8780 F       1  UNL1       -0.2024
     10 C         -12.2507  -19.2876   24.1933 C.ar    1  UNL1        0.1286
     11 N         -13.1907  -18.1744   23.8366 N.ar    1  UNL1       -0.2376
     12 C         -12.7931  -17.1577   22.8078 C.ar    1  UNL1        0.1286
     13 C         -11.4556  -17.2541   22.1358 C.ar    1  UNL1        0.1628
     14 F         -11.4197  -16.6401   21.6288 F       1  UNL1       -0.2024
     15 C          -8.1464  -16.9403   23.6549 C.ar    1  UNL1        0.0384
     16 C          -8.7219  -17.5695   24.8890 C.ar    1  UNL1        0.0047
     17 C          -8.8749  -16.7596   26.1422 C.ar    1  UNL1        0.0207
     18 C          -8.4524  -15.3205   26.1615 C.ar    1  UNL1        0.0989
     19 N          -7.8770  -14.6913   24.9274 N.ar    1  UNL1       -0.2423
     20 C          -7.7240  -15.5012   23.6742 C.ar    1  UNL1        0.1004
     21 O          -4.0261  -17.7967   21.9345 O.2     1  UNL1       -0.2747
     22 C          -3.9269  -18.3230   20.5334 C.2     1  UNL1        0.2267
     23 N          -5.1653  -18.7530   19.8043 N.am    1  UNL1       -0.2681
     24 H          -5.1002  -19.0984   18.8847 H       1  UNL1        0.1563
     25 C          -2.5893  -18.4195   19.8613 C.3     1  UNL1        0.0769
     26 C          -1.7323  -18.2453   18.6427 C.3     1  UNL1        0.0096
     27 C          -1.1297  -18.7606   19.9159 C.3     1  UNL1        0.0096
@<TRIPOS>BOND
     1    21    22    2
     2    22    23   am
     3    23     1    1
     4     1     2   ar
     5     2     3   ar
     6     3     4   ar
     7     4     7    1
     8     7     8   ar
     9     8     9    1
    10     8    10   ar
    11    10    11   ar
    12    11    12   ar
    13    12    13   ar
    14    13    14    1
    15     4     5   ar
    16     5    15    1
    17    15    16   ar
    18    16    17   ar
    19    17    18   ar
    20    18    19   ar
    21    19    20   ar
    22     5     6   ar
    23    22    25    1
    24    25    26    1
    25    26    27    1
    26     6     1   ar
    27    27    25    1
    28    13     7   ar
    29    20    15   ar
    30    23    24    1
@<TRIPOS>MOLECULE
*****
 27 30 0 0 0
SMALL
GASTEIGER

@<TRIPOS>ATOM
      1 C          -4.5426  -18.9819   21.3620 C.ar    1  UNL1        0.1535
      2 C          -5.3480  -19.9866   20.5926 C.ar    1  UNL1        0.1332
      3 N          -6.8395  -20.0279   20.7458 N.ar    1  UNL1       -0.2392
      4 C          -7.5257  -19.0646   21.6683 C.ar    1  UNL1        0.1035
      5 C          -6.7204  -18.0599   22.4376 C.ar    1  UNL1        0.1019
      6 N          -5.2289  -18.0185   22.2845 N.ar    1  UNL1       -0.2274
      7 C          -9.0174  -19.1060   21.8214 C.ar    1  UNL1        0.0771
      8 C          -9.6410  -19.9995   22.8522 C.ar    1  UNL1        0.1628
      9 F          -8.7730  -20.8518   23.7299 F       1  UNL1       -0.2024
     10 C         -11.1326  -20.0409   23.0053 C.ar    1  UNL1        0.1286
     11 N         -12.0006  -19.1887   22.1276 N.ar    1  UNL1       -0.2376
     12 C         -11.3769  -18.2951   21.0968 C.ar    1  UNL1        0.1286
     13 C          -9.8853  -18.2537   20.9437 C.ar    1  UNL1        0.1628
     14 F          -9.7390  -17.7327   20.3584 F       1  UNL1       -0.2024
     15 C          -7.4066  -17.0965   23.3602 C.ar    1  UNL1        0.0384
     16 C          -7.0939  -15.6316   23.2825 C.ar    1  UNL1        0.0047
     17 C          -7.7802  -14.6682   24.2050 C.ar    1  UNL1        0.0207
     18 C          -8.7791  -15.1698   25.2052 C.ar    1  UNL1        0.0989
     19 N          -9.0918  -16.6348   25.2829 N.ar    1  UNL1       -0.2423
     20 C          -8.4056  -17.5981   24.3604 C.ar    1  UNL1        0.1004
     21 O          -3.2930  -17.1595   19.3328 O.2     1  UNL1       -0.2747
     22 C          -2.4262  -18.0293   20.1943 C.2     1  UNL1        0.2267
     23 N          -3.0510  -18.9405   21.2088 N.am    1  UNL1       -0.2681
     24 H          -2.4821  -19.5114   21.7742 H       1  UNL1        0.1563
     25 C          -0.9346  -17.9879   20.0412 C.3     1  UNL1        0.0769
     26 C           0.3780  -18.7018   19.9090 C.3     1  UNL1        0.0096
     27 C           0.3364  -17.2024   19.9081 C.3     1  UNL1        0.0096
@<TRIPOS>BOND
     1    21    22    2
     2    22    23   am
     3    23     1    1
     4     1     2   ar
     5     2     3   ar
     6     3     4   ar
     7     4     7    1
     8     7     8   ar
     9     8     9    1
    10     8    10   ar
    11    10    11   ar
    12    11    12   ar
    13    12    13   ar
    14    13    14    1
    15     4     5   ar
    16     5    15    1
    17    15    16   ar
    18    16    17   ar
    19    17    18   ar
    20    18    19   ar
    21    19    20   ar
    22     5     6   ar
    23    22    25    1
    24    25    26    1
    25    26    27    1
    26     6     1   ar
    27    27    25    1
    28    13     7   ar
    29    20    15   ar
    30    23    24    1
@<TRIPOS>MOLECULE
*****
 27 30 0 0 0
SMALL
GASTEIGER

@<TRIPOS>ATOM
      1 C          -5.1431  -18.5983   21.0364 C.ar    1  UNL1        0.1535
      2 C          -6.0648  -19.1362   19.9824 C.ar    1  UNL1        0.1332
      3 N          -7.5473  -18.9521   20.1175 N.ar    1  UNL1       -0.2392
      4 C          -8.1081  -18.2300   21.3066 C.ar    1  UNL1        0.1035
      5 C          -7.1864  -17.6921   22.3607 C.ar    1  UNL1        0.1019
      6 N          -5.7039  -17.8762   22.2256 N.ar    1  UNL1       -0.2274
      7 C          -9.5907  -18.0459   21.4417 C.ar    1  UNL1        0.0771
      8 C         -10.1890  -16.6747   21.3337 C.ar    1  UNL1        0.1628
      9 F          -9.3049  -15.4876   21.0907 F       1  UNL1       -0.2024
     10 C         -11.6716  -16.4906   21.4688 C.ar    1  UNL1        0.1286
     11 N         -12.5557  -17.6777   21.7118 N.ar    1  UNL1       -0.2376
     12 C         -11.9572  -19.0490   21.8198 C.ar    1  UNL1        0.1286
     13 C         -10.4748  -19.2330   21.6847 C.ar    1  UNL1        0.1628
     14 F         -10.3419  -20.0146   21.7685 F       1  UNL1       -0.2024
     15 C          -7.7472  -16.9700   23.5499 C.ar    1  UNL1        0.0384
     16 C          -8.6690  -17.6831   24.4942 C.ar    1  UNL1        0.0047
     17 C          -9.2298  -16.9610   25.6833 C.ar    1  UNL1        0.0207
     18 C          -8.8688  -15.5259   25.9282 C.ar    1  UNL1        0.0989
     19 N          -7.9470  -14.8128   24.9839 N.ar    1  UNL1       -0.2423
     20 C          -7.3862  -15.5349   23.7947 C.ar    1  UNL1        0.1004
     21 O          -3.6286  -17.0834   18.9361 O.2     1  UNL1       -0.2747
     22 C          -2.9033  -18.0249   19.8512 C.2     1  UNL1        0.2267
     23 N          -3.6606  -18.7824   20.9013 N.am    1  UNL1       -0.2681
     24 H          -3.1845  -19.4004   21.5019 H       1  UNL1        0.1563
     25 C          -1.4208  -18.2091   19.7161 C.3     1  UNL1        0.0769
     26 C          -0.1468  -17.9785   18.9586 C.3     1  UNL1        0.0096
     27 C          -0.1269  -18.7585   20.2397 C.3     1  UNL1        0.0096
@<TRIPOS>BOND
     1    21    22    2
     2    22    23   am
     3    23     1    1
     4     1     2   ar
     5     2     3   ar
     6     3     4   ar
     7     4     7    1
     8     7     8   ar
     9     8     9    1
    10     8    10   ar
    11    10    11   ar
    12    11    12   ar
    13    12    13   ar
    14    13    14    1
    15     4     5   ar
    16     5    15    1
    17    15    16   ar
    18    16    17   ar
    19    17    18   ar
    20    18    19   ar
    21    19    20   ar
    22     5     6   ar
    23    22    25    1
    24    25    26    1
    25    26    27    1
    26     6     1   ar
    27    27    25    1
    28    13     7   ar
    29    20    15   ar
    30    23    24    1
@<TRIPOS>MOLECULE
*****
 27 30 0 0 0
SMALL
GASTEIGER

@<TRIPOS>ATOM
      1 C           2.9528    0.6224   23.2685 C.ar    1  UNL1        0.1535
      2 C           3.5595    1.8504   22.6571 C.ar    1  UNL1        0.1332
      3 N           4.3606    1.7416   21.3937 N.ar    1  UNL1       -0.2392
      4 C           4.5549    0.4048   20.7416 C.ar    1  UNL1        0.1035
      5 C           3.9481   -0.8232   21.3530 C.ar    1  UNL1        0.1019
      6 N           3.1470   -0.7144   22.6164 N.ar    1  UNL1       -0.2274
      7 C           5.3560    0.2960   19.4780 C.ar    1  UNL1        0.0771
      8 C           4.6708    0.3776   18.1462 C.ar    1  UNL1        0.1628
      9 F           3.1845    0.5679   18.0778 F       1  UNL1       -0.2024
     10 C           5.4719    0.2688   16.8827 C.ar    1  UNL1        0.1286
     11 N           6.9582    0.0784   16.9510 N.ar    1  UNL1       -0.2376
     12 C           7.6434   -0.0032   18.2830 C.ar    1  UNL1        0.1286
     13 C           6.8423    0.1056   19.5464 C.ar    1  UNL1        0.1628
     14 F           7.3655    0.0413   20.1445 F       1  UNL1       -0.2024
     15 C           4.1424   -2.1600   20.7009 C.ar    1  UNL1        0.0384
     16 C           3.1473   -2.6548   19.6935 C.ar    1  UNL1        0.0047
     17 C           3.3415   -3.9916   19.0414 C.ar    1  UNL1        0.0207
     18 C           4.5309   -4.8336   19.3967 C.ar    1  UNL1        0.0989
     19 N           5.5260   -4.3388   20.4041 N.ar    1  UNL1       -0.2423
     20 C           5.3318   -3.0020   21.0562 C.ar    1  UNL1        0.1004
     21 O           0.2393    1.9011   23.2189 O.2     1  UNL1       -0.2747
     22 C           0.7950    1.3705   24.5072 C.2     1  UNL1        0.2267
     23 N           2.1516    0.7312   24.5320 N.am    1  UNL1       -0.2681
     24 H           2.5163    0.3830   25.3776 H       1  UNL1        0.1563
     25 C          -0.0062    1.4793   25.7708 C.3     1  UNL1        0.0769
     26 C          -0.3218    0.9941   27.1545 C.3     1  UNL1        0.0096
     27 C          -1.0780    2.1529   26.5754 C.3     1  UNL1        0.0096
@<TRIPOS>BOND
     1    21    22    2
     2    22    23   am
     3    23     1    1
     4     1     2   ar
     5     2     3   ar
     6     3     4   ar
     7     4     7    1
     8     7     8   ar
     9     8     9    1
    10     8    10   ar
    11    10    11   ar
    12    11    12   ar
    13    12    13   ar
    14    13    14    1
    15     4     5   ar
    16     5    15    1
    17    15    16   ar
    18    16    17   ar
    19    17    18   ar
    20    18    19   ar
    21    19    20   ar
    22     5     6   ar
    23    22    25    1
    24    25    26    1
    25    26    27    1
    26     6     1   ar
    27    27    25    1
    28    13     7   ar
    29    20    15   ar
    30    23    24    1
@<TRIPOS>MOLECULE
*****
 27 30 0 0 0
SMALL
GASTEIGER

@<TRIPOS>ATOM
      1 C           1.0154    1.5986   18.8826 C.ar    1  UNL1        0.1535
      2 C           0.3126    0.5873   19.7389 C.ar    1  UNL1        0.1332
      3 N           1.0672   -0.5899   20.2816 N.ar    1  UNL1       -0.2392
      4 C           2.5246   -0.7560   19.9680 C.ar    1  UNL1        0.1035
      5 C           3.2274    0.2553   19.1117 C.ar    1  UNL1        0.1019
      6 N           2.4728    1.4326   18.5690 N.ar    1  UNL1       -0.2274
      7 C           3.2792   -1.9333   20.5107 C.ar    1  UNL1        0.0771
      8 C           3.8013   -1.9061   21.9166 C.ar    1  UNL1        0.1628
      9 F           3.5689   -0.7016   22.7799 F       1  UNL1       -0.2024
     10 C           4.5559   -3.0835   22.4594 C.ar    1  UNL1        0.1286
     11 N           4.7883   -4.2880   21.5962 N.ar    1  UNL1       -0.2376
     12 C           4.2662   -4.3151   20.1902 C.ar    1  UNL1        0.1286
     13 C           3.5116   -3.1378   19.6475 C.ar    1  UNL1        0.1628
     14 F           3.3157   -3.3287   18.8987 F       1  UNL1       -0.2024
     15 C           4.6848    0.0893   18.7980 C.ar    1  UNL1        0.0384
     16 C           5.7209    0.5928   19.7588 C.ar    1  UNL1        0.0047
     17 C           7.1783    0.4268   19.4451 C.ar    1  UNL1        0.0207
     18 C           7.5997   -0.2428   18.1707 C.ar    1  UNL1        0.0989
     19 N           6.5637   -0.7463   17.2100 N.ar    1  UNL1       -0.2423
     20 C           5.1062   -0.5803   17.5236 C.ar    1  UNL1        0.1004
     21 O           0.5948    4.0281   20.5917 O.2     1  UNL1       -0.2747
     22 C           0.0505    3.9906   19.1944 C.2     1  UNL1        0.2267
     23 N           0.2608    2.7759   18.3399 N.am    1  UNL1       -0.2681
     24 H          -0.0964    2.7514   17.4228 H       1  UNL1        0.1563
     25 C          -0.7041    5.1680   18.6516 C.3     1  UNL1        0.0769
     26 C          -1.9796    5.7705   18.1420 C.3     1  UNL1        0.0096
     27 C          -0.7355    6.6046   18.2213 C.3     1  UNL1        0.0096
@<TRIPOS>BOND
     1    21    22    2
     2    22    23   am
     3    23     1    1
     4     1     2   ar
     5     2     3   ar
     6     3     4   ar
     7     4     7    1
     8     7     8   ar
     9     8     9    1
    10     8    10   ar
    11    10    11   ar
    12    11    12   ar
    13    12    13   ar
    14    13    14    1
    15     4     5   ar
    16     5    15    1
    17    15    16   ar
    18    16    17   ar
    19    17    18   ar
    20    18    19   ar
    21    19    20   ar
    22     5     6   ar
    23    22    25    1
    24    25    26    1
    25    26    27    1
    26     6     1   ar
    27    27    25    1
    28    13     7   ar
    29    20    15   ar
    30    23    24    1
@<TRIPOS>MOLECULE
*****
 27 30 0 0 0
SMALL
GASTEIGER

@<TRIPOS>ATOM
      1 C           0.5630    1.0220   20.2984 C.ar    1  UNL1        0.1535
      2 C           0.8088    0.9688   18.8197 C.ar    1  UNL1        0.1332
      3 N           2.0712    0.3553   18.2909 N.ar    1  UNL1       -0.2392
      4 C           3.0879   -0.2050   19.2408 C.ar    1  UNL1        0.1035
      5 C           2.8421   -0.1518   20.7195 C.ar    1  UNL1        0.1019
      6 N           1.5797    0.4617   21.2483 N.ar    1  UNL1       -0.2274
      7 C           4.3505   -0.8186   18.7119 C.ar    1  UNL1        0.0771
      8 C           4.4641   -2.3088   18.5848 C.ar    1  UNL1        0.1628
      9 F           3.3153   -3.1856   18.9866 F       1  UNL1       -0.2024
     10 C           5.7267   -2.9223   18.0559 C.ar    1  UNL1        0.1286
     11 N           6.8755   -2.0455   17.6542 N.ar    1  UNL1       -0.2376
     12 C           6.7618   -0.5552   17.7813 C.ar    1  UNL1        0.1286
     13 C           5.4993    0.0582   18.3102 C.ar    1  UNL1        0.1628
     14 F           5.6197    0.8463   18.3066 F       1  UNL1       -0.2024
     15 C           3.8588   -0.7122   21.6695 C.ar    1  UNL1        0.0384
     16 C           3.7131   -2.1140   22.1829 C.ar    1  UNL1        0.0047
     17 C           4.7298   -2.6743   23.1328 C.ar    1  UNL1        0.0207
     18 C           5.8922   -1.8328   23.5693 C.ar    1  UNL1        0.0989
     19 N           6.0380   -0.4310   23.0559 N.ar    1  UNL1       -0.2423
     20 C           5.0213    0.1293   22.1059 C.ar    1  UNL1        0.1004
     21 O           0.6536    3.6806   21.6853 O.2     1  UNL1       -0.2747
     22 C          -0.6542    2.9648   21.5207 C.2     1  UNL1        0.2267
     23 N          -0.6996    1.6355   20.8273 N.am    1  UNL1       -0.2681
     24 H          -1.5580    1.1657   20.7193 H       1  UNL1        0.1563
     25 C          -1.9168    3.5783   22.0496 C.3     1  UNL1        0.0769
     26 C          -3.2763    4.1644   21.8086 C.3     1  UNL1        0.0096
     27 C          -2.7440    4.0549   23.2066 C.3     1  UNL1        0.0096
@<TRIPOS>BOND
     1    21    22    2
     2    22    23   am
     3    23     1    1
     4     1     2   ar
     5     2     3   ar
     6     3     4   ar
     7     4     7    1
     8     7     8   ar
     9     8     9    1
    10     8    10   ar
    11    10    11   ar
    12    11    12   ar
    13    12    13   ar
    14    13    14    1
    15     4     5   ar
    16     5    15    1
    17    15    16   ar
    18    16    17   ar
    19    17    18   ar
    20    18    19   ar
    21    19    20   ar
    22     5     6   ar
    23    22    25    1
    24    25    26    1
    25    26    27    1
    26     6     1   ar
    27    27    25    1
    28    13     7   ar
    29    20    15   ar
    30    23    24    1
@<TRIPOS>MOLECULE
*****
 27 30 0 0 0
SMALL
GASTEIGER

@<TRIPOS>ATOM
      1 C           6.8317   -5.1646   28.9600 C.ar    1  UNL1        0.1535
      2 C           6.9811   -5.6644   30.3663 C.ar    1  UNL1        0.1332
      3 N           6.7520   -4.7348   31.5209 N.ar    1  UNL1       -0.2392
      4 C           6.3736   -3.3054   31.2693 C.ar    1  UNL1        0.1035
      5 C           6.2242   -2.8055   29.8630 C.ar    1  UNL1        0.1019
      6 N           6.4533   -3.7351   28.7083 N.ar    1  UNL1       -0.2274
      7 C           6.1445   -2.3757   32.4241 C.ar    1  UNL1        0.0771
      8 C           7.2567   -1.4937   32.9089 C.ar    1  UNL1        0.1628
      9 F           8.5979   -1.5412   32.2390 F       1  UNL1       -0.2024
     10 C           7.0276   -0.5641   34.0637 C.ar    1  UNL1        0.1286
     11 N           5.6863   -0.5166   34.7336 N.ar    1  UNL1       -0.2376
     12 C           4.5741   -1.3987   34.2487 C.ar    1  UNL1        0.1286
     13 C           4.8032   -2.3282   33.0940 C.ar    1  UNL1        0.1628
     14 F           4.1132   -2.7105   32.9795 F       1  UNL1       -0.2024
     15 C           5.8457   -1.3760   29.6114 C.ar    1  UNL1        0.0384
     16 C           6.9134   -0.3409   29.4151 C.ar    1  UNL1        0.0047
     17 C           6.5350    1.0886   29.1635 C.ar    1  UNL1        0.0207
     18 C           5.0889    1.4830   29.1081 C.ar    1  UNL1        0.0989
     19 N           4.0212    0.4479   29.3044 N.ar    1  UNL1       -0.2423
     20 C           4.3996   -0.9816   29.5560 C.ar    1  UNL1        0.1004
     21 O           9.2968   -4.8828   27.2735 O.2     1  UNL1       -0.2747
     22 C           8.2933   -5.9533   26.9620 C.2     1  UNL1        0.2267
     23 N           7.0608   -6.0942   27.8052 N.am    1  UNL1       -0.2681
     24 H           6.4021   -6.7968   27.6007 H       1  UNL1        0.1563
     25 C           8.5223   -6.8829   25.8072 C.3     1  UNL1        0.0769
     26 C           9.3315   -7.9597   25.1472 C.3     1  UNL1        0.0096
     27 C           8.1099   -7.4162   24.4672 C.3     1  UNL1        0.0096
@<TRIPOS>BOND
     1    21    22    2
     2    22    23   am
     3    23     1    1
     4     1     2   ar
     5     2     3   ar
     6     3     4   ar
     7     4     7    1
     8     7     8   ar
     9     8     9    1
    10     8    10   ar
    11    10    11   ar
    12    11    12   ar
    13    12    13   ar
    14    13    14    1
    15     4     5   ar
    16     5    15    1
    17    15    16   ar
    18    16    17   ar
    19    17    18   ar
    20    18    19   ar
    21    19    20   ar
    22     5     6   ar
    23    22    25    1
    24    25    26    1
    25    26    27    1
    26     6     1   ar
    27    27    25    1
    28    13     7   ar
    29    20    15   ar
    30    23    24    1
@<TRIPOS>MOLECULE
*****
 27 30 0 0 0
SMALL
GASTEIGER

@<TRIPOS>ATOM
      1 C           4.1453   -1.7385   24.7186 C.ar    1  UNL1        0.1535
      2 C           5.3757   -2.5126   24.3487 C.ar    1  UNL1        0.1332
      3 N           5.8534   -2.5273   22.9269 N.ar    1  UNL1       -0.2392
      4 C           5.1007   -1.7677   21.8750 C.ar    1  UNL1        0.1035
      5 C           3.8704   -0.9936   22.2448 C.ar    1  UNL1        0.1019
      6 N           3.3927   -0.9790   23.6666 N.ar    1  UNL1       -0.2274
      7 C           5.5785   -1.7824   20.4531 C.ar    1  UNL1        0.0771
      8 C           4.9998   -2.7639   19.4776 C.ar    1  UNL1        0.1628
      9 F           3.9434   -3.7308   19.9238 F       1  UNL1       -0.2024
     10 C           5.4776   -2.7785   18.0557 C.ar    1  UNL1        0.1286
     11 N           6.5340   -1.8116   17.6095 N.ar    1  UNL1       -0.2376
     12 C           7.1126   -0.8301   18.5851 C.ar    1  UNL1        0.1286
     13 C           6.6349   -0.8155   20.0069 C.ar    1  UNL1        0.1628
     14 F           7.0472   -0.2386   20.3713 F       1  UNL1       -0.2024
     15 C           3.1177   -0.2341   21.1929 C.ar    1  UNL1        0.0384
     16 C           1.9409   -0.8652   20.5097 C.ar    1  UNL1        0.0047
     17 C           1.1882   -0.1057   19.4578 C.ar    1  UNL1        0.0207
     18 C           1.6123    1.2850   19.0890 C.ar    1  UNL1        0.0989
     19 N           2.7891    1.9161   19.7721 N.ar    1  UNL1       -0.2423
     20 C           3.5418    1.1566   20.8241 C.ar    1  UNL1        0.1004
     21 O           4.3223    0.7829   26.3346 O.2     1  UNL1       -0.2747
     22 C           3.7561   -0.4632   26.9484 C.2     1  UNL1        0.2267
     23 N           3.6676   -1.7238   26.1404 N.am    1  UNL1       -0.2681
     24 H           3.2960   -2.5417   26.5433 H       1  UNL1        0.1563
     25 C           3.2783   -0.4485   28.3703 C.3     1  UNL1        0.0769
     26 C           3.5724   -0.5031   29.8401 C.3     1  UNL1        0.0096
     27 C           2.1567   -0.3686   29.3631 C.3     1  UNL1        0.0096
@<TRIPOS>BOND
     1    21    22    2
     2    22    23   am
     3    23     1    1
     4     1     2   ar
     5     2     3   ar
     6     3     4   ar
     7     4     7    1
     8     7     8   ar
     9     8     9    1
    10     8    10   ar
    11    10    11   ar
    12    11    12   ar
    13    12    13   ar
    14    13    14    1
    15     4     5   ar
    16     5    15    1
    17    15    16   ar
    18    16    17   ar
    19    17    18   ar
    20    18    19   ar
    21    19    20   ar
    22     5     6   ar
    23    22    25    1
    24    25    26    1
    25    26    27    1
    26     6     1   ar
    27    27    25    1
    28    13     7   ar
    29    20    15   ar
    30    23    24    1
@<TRIPOS>MOLECULE
*****
 27 30 0 0 0
SMALL
GASTEIGER

@<TRIPOS>ATOM
      1 C           6.9415   -3.9797   25.1783 C.ar    1  UNL1        0.1535
      2 C           7.4952   -4.9409   24.1687 C.ar    1  UNL1        0.1332
      3 N           7.2309   -4.7287   22.7075 N.ar    1  UNL1       -0.2392
      4 C           6.4128   -3.5554   22.2559 C.ar    1  UNL1        0.1035
      5 C           5.8590   -2.5941   23.2656 C.ar    1  UNL1        0.1019
      6 N           6.1234   -2.8063   24.7267 N.ar    1  UNL1       -0.2274
      7 C           6.1484   -3.3433   20.7947 C.ar    1  UNL1        0.0771
      8 C           4.9213   -3.9293   20.1617 C.ar    1  UNL1        0.1628
      9 F           3.9585   -4.7275   20.9899 F       1  UNL1       -0.2024
     10 C           4.6569   -3.7172   18.7004 C.ar    1  UNL1        0.1286
     11 N           5.6197   -2.9190   17.8722 N.ar    1  UNL1       -0.2376
     12 C           6.8469   -2.3330   18.5053 C.ar    1  UNL1        0.1286
     13 C           7.1112   -2.5451   19.9665 C.ar    1  UNL1        0.1628
     14 F           7.7958   -2.1679   20.1229 F       1  UNL1       -0.2024
     15 C           5.0409   -1.4208   22.8140 C.ar    1  UNL1        0.0384
     16 C           3.5528   -1.5516   22.6787 C.ar    1  UNL1        0.0047
     17 C           2.7347   -0.3782   22.2272 C.ar    1  UNL1        0.0207
     18 C           3.4047    0.9260   21.9109 C.ar    1  UNL1        0.0989
     19 N           4.8928    1.0568   22.0461 N.ar    1  UNL1       -0.2423
     20 C           5.7109   -0.1166   22.4977 C.ar    1  UNL1        0.1004
     21 O           6.5916   -6.7034   26.3861 O.2     1  UNL1       -0.2747
     22 C           7.0309   -5.5536   27.2434 C.2     1  UNL1        0.2267
     23 N           7.2059   -4.1918   26.6395 N.am    1  UNL1       -0.2681
     24 H           7.4942   -3.4371   27.2022 H       1  UNL1        0.1563
     25 C           7.2953   -5.7657   28.7047 C.3     1  UNL1        0.0769
     26 C           8.1476   -6.3310   29.8019 C.3     1  UNL1        0.0096
     27 C           6.9009   -5.5678   30.1383 C.3     1  UNL1        0.0096
@<TRIPOS>BOND
     1    21    22    2
     2    22    23   am
     3    23     1    1
     4     1     2   ar
     5     2     3   ar
     6     3     4   ar
     7     4     7    1
     8     7     8   ar
     9     8     9    1
    10     8    10   ar
    11    10    11   ar
    12    11    12   ar
    13    12    13   ar
    14    13    14    1
    15     4     5   ar
    16     5    15    1
    17    15    16   ar
    18    16    17   ar
    19    17    18   ar
    20    18    19   ar
    21    19    20   ar
    22     5     6   ar
    23    22    25    1
    24    25    26    1
    25    26    27    1
    26     6     1   ar
    27    27    25    1
    28    13     7   ar
    29    20    15   ar
    30    23    24    1
