@<TRIPOS>MOLECULE
*****
 32 37 0 0 0
SMALL
GASTEIGER

@<TRIPOS>ATOM
      1 C          -8.0203  -18.9933   20.1436 C.3     1  UNL1        0.0749
      2 C          -8.3104  -18.0951   21.3094 C.3     1  UNL1        0.0444
      3 C          -9.7285  -17.8501   21.7326 C.ar    1  UNL1       -0.0101
      4 C         -10.8563  -18.5032   20.9900 C.ar    1  UNL1       -0.0091
      5 C         -12.2744  -18.2581   21.4133 C.ar    1  UNL1       -0.0032
      6 C         -12.5646  -17.3600   22.5791 C.ar    1  UNL1        0.0010
      7 C         -11.4367  -16.7069   23.3216 C.ar    1  UNL1        0.0142
      8 C         -10.0187  -16.9519   22.8984 C.ar    1  UNL1        0.0436
      9 C         -10.5661  -19.4014   19.8243 C.3     1  UNL1        0.0954
     10 N          -9.1481  -19.6464   19.4011 N.3     1  UNL1       -0.2934
     11 H          -9.0745  -19.3449   18.4294 H       1  UNL1        0.1236
     12 N          -8.8909  -16.2988   23.6410 N.pl3   1  UNL1       -0.3066
     13 C          -7.7820  -15.4942   23.0302 C.3     1  UNL1        0.1064
     14 C          -6.8797  -15.0337   24.1365 C.3     1  UNL1        0.0757
     15 C          -8.1226  -15.8156   23.8302 C.3     1  UNL1        0.0386
     16 C          -8.6739  -16.3355   25.1248 C.3     1  UNL1        0.0899
     17 C          -7.7716  -15.8750   26.2310 C.3     1  UNL1        0.0886
     18 N          -6.6628  -15.0705   25.6202 N.3     1  UNL1       -0.2957
     19 H          -5.7641  -15.5060   25.8279 H       1  UNL1        0.1233
     20 C          -6.6022  -19.2384   19.7204 C.3     1  UNL1        0.0886
     21 C          -5.6059  -21.3237   20.9074 C.3     1  UNL1        0.0899
     22 N          -5.6247  -19.8402   20.6859 N.3     1  UNL1       -0.2667
     23 C          -4.6659  -18.9587   21.4299 C.3     1  UNL1        0.0978
     24 C          -4.9517  -18.5705   22.8503 C.3     1  UNL1        0.0224
     25 C          -3.9930  -17.6889   23.5944 C.3     1  UNL1        0.0065
     26 C          -2.7484  -17.1956   22.9180 C.3     1  UNL1        0.0277
     27 C          -2.4625  -17.5837   21.4975 C.ar    1  UNL1       -0.0073
     28 C          -1.2179  -17.0903   20.8212 C.ar    1  UNL1       -0.0015
     29 C          -0.9321  -17.4785   19.4008 C.ar    1  UNL1        0.0203
     30 C          -1.8908  -18.3600   18.6567 C.ar    1  UNL1        0.0985
     31 N          -3.1354  -18.8534   19.3331 N.ar    1  UNL1       -0.2471
     32 C          -3.4213  -18.4653   20.7535 C.ar    1  UNL1        0.0695
@<TRIPOS>BOND
     1    21    22    1
     2    22    20    1
     3     1    20    1
     4     1     2    1
     5     2     3    1
     6     3     4   ar
     7     4     5   ar
     8     5     6   ar
     9     6     7   ar
    10     7     8   ar
    11     8    12    1
    12    12    13    1
    13    14    13    1
    14    14    15    1
    15    15    16    1
    16    16    17    1
    17    17    18    1
    18     4     9    1
    19     9    10    1
    20    23    22    1
    21    23    24    1
    22    24    25    1
    23    25    26    1
    24    26    27    1
    25    27    28   ar
    26    28    29   ar
    27    29    30   ar
    28    30    31   ar
    29    31    32   ar
    30    10     1    1
    31    32    23    1
    32     8     3   ar
    33    16    12    1
    34    32    27   ar
    35    18    14    1
    36    18    19    1
    37    10    11    1
@<TRIPOS>MOLECULE
*****
 32 37 0 0 0
SMALL
GASTEIGER

@<TRIPOS>ATOM
      1 C          -6.9714  -19.7386   21.4287 C.3     1  UNL1        0.0749
      2 C          -6.2437  -18.7248   22.2608 C.3     1  UNL1        0.0444
      3 C          -4.7506  -18.6133   22.1713 C.ar    1  UNL1       -0.0101
      4 C          -3.9851  -19.5158   21.2496 C.ar    1  UNL1       -0.0091
      5 C          -2.4919  -19.4044   21.1601 C.ar    1  UNL1       -0.0032
      6 C          -1.7642  -18.3905   21.9922 C.ar    1  UNL1        0.0010
      7 C          -2.5297  -17.4880   22.9140 C.ar    1  UNL1        0.0142
      8 C          -4.0229  -17.5994   23.0035 C.ar    1  UNL1        0.0436
      9 C          -4.7127  -20.5297   20.4174 C.3     1  UNL1        0.0954
     10 N          -6.2059  -20.6411   20.5070 N.3     1  UNL1       -0.2934
     11 H          -6.4131  -21.5981   20.7927 H       1  UNL1        0.1236
     12 N          -4.7884  -16.6970   23.9252 N.pl3   1  UNL1       -0.3066
     13 C          -4.4962  -16.4680   25.3785 C.3     1  UNL1        0.1064
     14 C          -5.5077  -15.4945   25.9070 C.3     1  UNL1        0.0757
     15 C          -5.0631  -16.2377   24.6822 C.3     1  UNL1        0.0386
     16 C          -5.9805  -15.8650   23.5554 C.3     1  UNL1        0.0899
     17 C          -6.9920  -14.8915   24.0838 C.3     1  UNL1        0.0886
     18 N          -6.6998  -14.6626   25.5371 N.3     1  UNL1       -0.2957
     19 H          -7.5039  -14.9405   26.0998 H       1  UNL1        0.1233
     20 C          -8.4646  -19.8501   21.5182 C.3     1  UNL1        0.0886
     21 C          -9.0725  -19.8694   18.9923 C.3     1  UNL1        0.0899
     22 N          -9.3218  -19.3702   20.3847 N.3     1  UNL1       -0.2667
     23 C         -10.4283  -18.3911   20.6435 C.3     1  UNL1        0.0978
     24 C         -10.7780  -17.3636   19.6082 C.3     1  UNL1        0.0224
     25 C         -11.8845  -16.3845   19.8670 C.3     1  UNL1        0.0065
     26 C         -12.6414  -16.4330   21.1611 C.3     1  UNL1        0.0277
     27 C         -12.2918  -17.4605   22.1964 C.ar    1  UNL1       -0.0073
     28 C         -13.0487  -17.5090   23.4905 C.ar    1  UNL1       -0.0015
     29 C         -12.6990  -18.5365   24.5258 C.ar    1  UNL1        0.0203
     30 C         -11.5925  -19.5156   24.2670 C.ar    1  UNL1        0.0985
     31 N         -10.8356  -19.4672   22.9729 N.ar    1  UNL1       -0.2471
     32 C         -11.1852  -18.4396   21.9376 C.ar    1  UNL1        0.0695
@<TRIPOS>BOND
     1    21    22    1
     2    22    20    1
     3     1    20    1
     4     1     2    1
     5     2     3    1
     6     3     4   ar
     7     4     5   ar
     8     5     6   ar
     9     6     7   ar
    10     7     8   ar
    11     8    12    1
    12    12    13    1
    13    14    13    1
    14    14    15    1
    15    15    16    1
    16    16    17    1
    17    17    18    1
    18     4     9    1
    19     9    10    1
    20    23    22    1
    21    23    24    1
    22    24    25    1
    23    25    26    1
    24    26    27    1
    25    27    28   ar
    26    28    29   ar
    27    29    30   ar
    28    30    31   ar
    29    31    32   ar
    30    10     1    1
    31    32    23    1
    32     8     3   ar
    33    16    12    1
    34    32    27   ar
    35    18    14    1
    36    18    19    1
    37    10    11    1
@<TRIPOS>MOLECULE
*****
 32 37 0 0 0
SMALL
GASTEIGER

@<TRIPOS>ATOM
      1 C          -5.9447  -19.9129   21.4681 C.3     1  UNL1        0.0749
      2 C          -5.5334  -18.6908   22.2345 C.3     1  UNL1        0.0444
      3 C          -4.2040  -18.0498   21.9668 C.ar    1  UNL1       -0.0101
      4 C          -3.2858  -18.6309   20.9327 C.ar    1  UNL1       -0.0091
      5 C          -1.9563  -17.9899   20.6650 C.ar    1  UNL1       -0.0032
      6 C          -1.5451  -16.7678   21.4314 C.ar    1  UNL1        0.0010
      7 C          -2.4633  -16.1867   22.4654 C.ar    1  UNL1        0.0142
      8 C          -3.7927  -16.8277   22.7331 C.ar    1  UNL1        0.0436
      9 C          -3.6971  -19.8530   20.1664 C.3     1  UNL1        0.0954
     10 N          -5.0265  -20.4940   20.4341 N.3     1  UNL1       -0.2934
     11 H          -4.8382  -21.4563   20.7150 H       1  UNL1        0.1236
     12 N          -4.7109  -16.2466   23.7672 N.pl3   1  UNL1       -0.3066
     13 C          -4.4960  -16.2723   25.2515 C.3     1  UNL1        0.1064
     14 C          -5.6574  -15.5794   25.9002 C.3     1  UNL1        0.0757
     15 C          -5.0724  -15.9917   24.5819 C.3     1  UNL1        0.0386
     16 C          -6.0052  -15.5376   23.4985 C.3     1  UNL1        0.0899
     17 C          -7.1667  -14.8447   24.1472 C.3     1  UNL1        0.0886
     18 N          -6.9517  -14.8705   25.6315 N.3     1  UNL1       -0.2957
     19 H          -7.7190  -15.3676   26.0837 H       1  UNL1        0.1233
     20 C          -7.2742  -20.5539   21.7358 C.3     1  UNL1        0.0886
     21 C          -8.7603  -19.6361   19.8125 C.3     1  UNL1        0.0899
     22 N          -8.5354  -19.8859   21.2744 N.3     1  UNL1       -0.2667
     23 C          -9.5719  -19.4676   22.2748 C.3     1  UNL1        0.0978
     24 C          -9.6658  -20.1711   23.5962 C.3     1  UNL1        0.0224
     25 C         -10.7022  -19.7529   24.5966 C.3     1  UNL1        0.0065
     26 C         -11.6448  -18.6310   24.2756 C.3     1  UNL1        0.0277
     27 C         -11.5509  -17.9274   22.9541 C.ar    1  UNL1       -0.0073
     28 C         -12.4934  -16.8056   22.6331 C.ar    1  UNL1       -0.0015
     29 C         -12.3995  -16.1021   21.3117 C.ar    1  UNL1        0.0203
     30 C         -11.3631  -16.5204   20.3113 C.ar    1  UNL1        0.0985
     31 N         -10.4205  -17.6422   20.6323 N.ar    1  UNL1       -0.2471
     32 C         -10.5144  -18.3457   21.9537 C.ar    1  UNL1        0.0695
@<TRIPOS>BOND
     1    21    22    1
     2    22    20    1
     3     1    20    1
     4     1     2    1
     5     2     3    1
     6     3     4   ar
     7     4     5   ar
     8     5     6   ar
     9     6     7   ar
    10     7     8   ar
    11     8    12    1
    12    12    13    1
    13    14    13    1
    14    14    15    1
    15    15    16    1
    16    16    17    1
    17    17    18    1
    18     4     9    1
    19     9    10    1
    20    23    22    1
    21    23    24    1
    22    24    25    1
    23    25    26    1
    24    26    27    1
    25    27    28   ar
    26    28    29   ar
    27    29    30   ar
    28    30    31   ar
    29    31    32   ar
    30    10     1    1
    31    32    23    1
    32     8     3   ar
    33    16    12    1
    34    32    27   ar
    35    18    14    1
    36    18    19    1
    37    10    11    1
@<TRIPOS>MOLECULE
*****
 32 37 0 0 0
SMALL
GASTEIGER

@<TRIPOS>ATOM
      1 C          -8.7447  -19.2467   20.3717 C.3     1  UNL1        0.0749
      2 C          -8.8782  -18.1936   21.4313 C.3     1  UNL1        0.0444
      3 C         -10.2340  -17.6687   21.8004 C.ar    1  UNL1       -0.0101
      4 C         -11.4563  -18.1971   21.1099 C.ar    1  UNL1       -0.0091
      5 C         -12.8122  -17.6722   21.4790 C.ar    1  UNL1       -0.0032
      6 C         -12.9457  -16.6190   22.5387 C.ar    1  UNL1        0.0010
      7 C         -11.7234  -16.0906   23.2292 C.ar    1  UNL1        0.0142
      8 C         -10.3676  -16.6155   22.8601 C.ar    1  UNL1        0.0436
      9 C         -11.3228  -19.2503   20.0502 C.3     1  UNL1        0.0954
     10 N          -9.9670  -19.7751   19.6811 N.3     1  UNL1       -0.2934
     11 H          -9.8430  -19.5956   18.6847 H       1  UNL1        0.1236
     12 N          -9.1453  -16.0871   23.5507 N.pl3   1  UNL1       -0.3066
     13 C          -8.0061  -15.3636   22.8959 C.3     1  UNL1        0.1064
     14 C          -7.0044  -15.0188   23.9578 C.3     1  UNL1        0.0757
     15 C          -8.3275  -15.6790   23.7062 C.3     1  UNL1        0.0386
     16 C          -8.8476  -16.1895   25.0172 C.3     1  UNL1        0.0899
     17 C          -7.8458  -15.8448   26.0791 C.3     1  UNL1        0.0886
     18 N          -6.7067  -15.1213   25.4243 N.3     1  UNL1       -0.2957
     19 H          -5.8399  -15.6399   25.5662 H       1  UNL1        0.1233
     20 C          -7.3888  -19.7716   20.0025 C.3     1  UNL1        0.0886
     21 C          -6.8693  -20.7521   22.3517 C.3     1  UNL1        0.0899
     22 N          -6.4002  -20.1166   21.0765 N.3     1  UNL1       -0.2667
     23 C          -4.9424  -19.8261   20.8754 C.3     1  UNL1        0.0978
     24 C          -4.1542  -20.6074   19.8664 C.3     1  UNL1        0.0224
     25 C          -2.6964  -20.3169   19.6653 C.3     1  UNL1        0.0065
     26 C          -2.0269  -19.2450   20.4732 C.3     1  UNL1        0.0277
     27 C          -2.8151  -18.4635   21.4822 C.ar    1  UNL1       -0.0073
     28 C          -2.1456  -17.3916   22.2901 C.ar    1  UNL1       -0.0015
     29 C          -2.9338  -16.6102   23.2990 C.ar    1  UNL1        0.0203
     30 C          -4.3916  -16.9008   23.5001 C.ar    1  UNL1        0.0985
     31 N          -5.0612  -17.9727   22.6923 N.ar    1  UNL1       -0.2471
     32 C          -4.2729  -18.7541   21.6833 C.ar    1  UNL1        0.0695
@<TRIPOS>BOND
     1    21    22    1
     2    22    20    1
     3     1    20    1
     4     1     2    1
     5     2     3    1
     6     3     4   ar
     7     4     5   ar
     8     5     6   ar
     9     6     7   ar
    10     7     8   ar
    11     8    12    1
    12    12    13    1
    13    14    13    1
    14    14    15    1
    15    15    16    1
    16    16    17    1
    17    17    18    1
    18     4     9    1
    19     9    10    1
    20    23    22    1
    21    23    24    1
    22    24    25    1
    23    25    26    1
    24    26    27    1
    25    27    28   ar
    26    28    29   ar
    27    29    30   ar
    28    30    31   ar
    29    31    32   ar
    30    10     1    1
    31    32    23    1
    32     8     3   ar
    33    16    12    1
    34    32    27   ar
    35    18    14    1
    36    18    19    1
    37    10    11    1
@<TRIPOS>MOLECULE
*****
 32 37 0 0 0
SMALL
GASTEIGER

@<TRIPOS>ATOM
      1 C          -6.4779  -16.5874   23.4055 C.3     1  UNL1        0.0749
      2 C          -6.7934  -17.6067   22.3513 C.3     1  UNL1        0.0444
      3 C          -5.7214  -18.5334   21.8594 C.ar    1  UNL1       -0.0101
      4 C          -4.3338  -18.4406   22.4216 C.ar    1  UNL1       -0.0091
      5 C          -3.2617  -19.3673   21.9296 C.ar    1  UNL1       -0.0032
      6 C          -3.5772  -20.3866   20.8755 C.ar    1  UNL1        0.0010
      7 C          -4.9648  -20.4794   20.3133 C.ar    1  UNL1        0.0142
      8 C          -6.0369  -19.5528   20.8052 C.ar    1  UNL1        0.0436
      9 C          -4.0183  -17.4212   23.4757 C.3     1  UNL1        0.0954
     10 N          -5.0904  -16.4946   23.9677 N.3     1  UNL1       -0.2934
     11 H          -4.7634  -15.5450   23.7895 H       1  UNL1        0.1236
     12 N          -7.4244  -19.6456   20.2430 N.pl3   1  UNL1       -0.3066
     13 C          -8.6550  -19.0144   20.8236 C.3     1  UNL1        0.1064
     14 C          -9.8162  -19.3646   19.9410 C.3     1  UNL1        0.0757
     15 C          -8.3380  -19.5383   20.1276 C.3     1  UNL1        0.0386
     16 C          -7.8250  -20.3859   19.0014 C.3     1  UNL1        0.0899
     17 C          -8.9861  -20.7361   18.1187 C.3     1  UNL1        0.0886
     18 N         -10.2167  -20.1049   18.6994 N.3     1  UNL1       -0.2957
     19 H         -10.8991  -20.8265   18.9317 H       1  UNL1        0.1233
     20 C          -7.5500  -15.6607   23.8974 C.3     1  UNL1        0.0886
     21 C          -8.5400  -15.4456   26.2899 C.3     1  UNL1        0.0899
     22 N          -8.5138  -16.1208   24.9507 N.3     1  UNL1       -0.2667
     23 C          -9.4515  -17.2562   24.6647 C.3     1  UNL1        0.0978
     24 C          -9.4221  -18.4871   25.5214 C.3     1  UNL1        0.0224
     25 C         -10.3598  -19.6224   25.2355 C.3     1  UNL1        0.0065
     26 C         -11.3268  -19.5269   24.0928 C.3     1  UNL1        0.0277
     27 C         -11.3562  -18.2960   23.2361 C.ar    1  UNL1       -0.0073
     28 C         -12.3233  -18.2004   22.0934 C.ar    1  UNL1       -0.0015
     29 C         -12.3526  -16.9695   21.2367 C.ar    1  UNL1        0.0203
     30 C         -11.4150  -15.8342   21.5227 C.ar    1  UNL1        0.0985
     31 N         -10.4480  -15.9297   22.6653 N.ar    1  UNL1       -0.2471
     32 C         -10.4186  -17.1606   23.5220 C.ar    1  UNL1        0.0695
@<TRIPOS>BOND
     1    21    22    1
     2    22    20    1
     3     1    20    1
     4     1     2    1
     5     2     3    1
     6     3     4   ar
     7     4     5   ar
     8     5     6   ar
     9     6     7   ar
    10     7     8   ar
    11     8    12    1
    12    12    13    1
    13    14    13    1
    14    14    15    1
    15    15    16    1
    16    16    17    1
    17    17    18    1
    18     4     9    1
    19     9    10    1
    20    23    22    1
    21    23    24    1
    22    24    25    1
    23    25    26    1
    24    26    27    1
    25    27    28   ar
    26    28    29   ar
    27    29    30   ar
    28    30    31   ar
    29    31    32   ar
    30    10     1    1
    31    32    23    1
    32     8     3   ar
    33    16    12    1
    34    32    27   ar
    35    18    14    1
    36    18    19    1
    37    10    11    1
@<TRIPOS>MOLECULE
*****
 32 37 0 0 0
SMALL
GASTEIGER

@<TRIPOS>ATOM
      1 C          -8.3646  -16.4557   22.2801 C.3     1  UNL1        0.0749
      2 C          -6.9200  -16.6175   22.6503 C.3     1  UNL1        0.0444
      3 C          -6.4140  -16.0719   23.9526 C.ar    1  UNL1       -0.0101
      4 C          -7.3525  -15.3646   24.8848 C.ar    1  UNL1       -0.0091
      5 C          -6.8463  -14.8190   26.1872 C.ar    1  UNL1       -0.0032
      6 C          -5.4018  -14.9807   26.5574 C.ar    1  UNL1        0.0010
      7 C          -4.4633  -15.6880   25.6253 C.ar    1  UNL1        0.0142
      8 C          -4.9694  -16.2336   24.3229 C.ar    1  UNL1        0.0436
      9 C          -8.7970  -15.2029   24.5146 C.3     1  UNL1        0.0954
     10 N          -9.3031  -15.7484   23.2123 N.3     1  UNL1       -0.2934
     11 H          -9.6939  -14.9609   22.6951 H       1  UNL1        0.1236
     12 N          -4.0309  -16.9409   23.3907 N.pl3   1  UNL1       -0.3066
     13 C          -3.9163  -18.4260   23.2141 C.3     1  UNL1        0.1064
     14 C          -2.8568  -18.6903   22.1857 C.3     1  UNL1        0.0757
     15 C          -3.5824  -17.6091   22.9304 C.3     1  UNL1        0.0386
     16 C          -3.0421  -16.2872   22.4714 C.3     1  UNL1        0.0899
     17 C          -1.9826  -16.5514   21.4430 C.3     1  UNL1        0.0886
     18 N          -1.8681  -18.0365   21.2665 N.3     1  UNL1       -0.2957
     19 H          -0.9234  -18.3412   21.5012 H       1  UNL1        0.1233
     20 C          -8.8707  -17.0013   20.9776 C.3     1  UNL1        0.0886
     21 C          -9.8441  -18.9909   19.6197 C.3     1  UNL1        0.0899
     22 N          -9.5500  -18.3381   20.9378 N.3     1  UNL1       -0.2667
     23 C          -9.9352  -19.0220   22.2160 C.3     1  UNL1        0.0978
     24 C          -9.0458  -20.0804   22.7979 C.3     1  UNL1        0.0224
     25 C          -9.4310  -20.7644   24.0761 C.3     1  UNL1        0.0065
     26 C         -10.7057  -20.3899   24.7724 C.3     1  UNL1        0.0277
     27 C         -11.5952  -19.3314   24.1905 C.ar    1  UNL1       -0.0073
     28 C         -12.8699  -18.9570   24.8869 C.ar    1  UNL1       -0.0015
     29 C         -13.7593  -17.8986   24.3050 C.ar    1  UNL1        0.0203
     30 C         -13.3741  -17.2146   23.0268 C.ar    1  UNL1        0.0985
     31 N         -12.0994  -17.5891   22.3305 N.ar    1  UNL1       -0.2471
     32 C         -11.2100  -18.6475   22.9123 C.ar    1  UNL1        0.0695
@<TRIPOS>BOND
     1    21    22    1
     2    22    20    1
     3     1    20    1
     4     1     2    1
     5     2     3    1
     6     3     4   ar
     7     4     5   ar
     8     5     6   ar
     9     6     7   ar
    10     7     8   ar
    11     8    12    1
    12    12    13    1
    13    14    13    1
    14    14    15    1
    15    15    16    1
    16    16    17    1
    17    17    18    1
    18     4     9    1
    19     9    10    1
    20    23    22    1
    21    23    24    1
    22    24    25    1
    23    25    26    1
    24    26    27    1
    25    27    28   ar
    26    28    29   ar
    27    29    30   ar
    28    30    31   ar
    29    31    32   ar
    30    10     1    1
    31    32    23    1
    32     8     3   ar
    33    16    12    1
    34    32    27   ar
    35    18    14    1
    36    18    19    1
    37    10    11    1
@<TRIPOS>MOLECULE
*****
 32 37 0 0 0
SMALL
GASTEIGER

@<TRIPOS>ATOM
      1 C          -8.6133  -15.8062   22.6576 C.3     1  UNL1        0.0749
      2 C          -7.1929  -16.1995   22.9361 C.3     1  UNL1        0.0444
      3 C          -6.6449  -16.0948   24.3284 C.ar    1  UNL1       -0.0101
      4 C          -7.5174  -15.5967   25.4423 C.ar    1  UNL1       -0.0091
      5 C          -6.9693  -15.4919   26.8347 C.ar    1  UNL1       -0.0032
      6 C          -5.5489  -15.8853   27.1132 C.ar    1  UNL1        0.0010
      7 C          -4.6764  -16.3834   25.9993 C.ar    1  UNL1        0.0142
      8 C          -5.2244  -16.4881   24.6070 C.ar    1  UNL1        0.0436
      9 C          -8.9378  -15.2033   25.1638 C.3     1  UNL1        0.0954
     10 N          -9.4858  -15.3081   23.7715 N.3     1  UNL1       -0.2934
     11 H          -9.7969  -14.3736   23.5064 H       1  UNL1        0.1236
     12 N          -4.3520  -16.9862   23.4931 N.pl3   1  UNL1       -0.3066
     13 C          -4.3671  -18.3691   22.9123 C.3     1  UNL1        0.1064
     14 C          -3.3356  -18.4265   21.8247 C.3     1  UNL1        0.0757
     15 C          -3.9638  -17.5364   22.8558 C.3     1  UNL1        0.0386
     16 C          -3.3112  -16.1889   22.7644 C.3     1  UNL1        0.0899
     17 C          -2.2797  -16.2462   21.6768 C.3     1  UNL1        0.0886
     18 N          -2.2949  -17.6291   21.0961 N.3     1  UNL1       -0.2957
     19 H          -1.3800  -18.0642   21.2143 H       1  UNL1        0.1233
     20 C          -9.1614  -15.9110   21.2652 C.3     1  UNL1        0.0886
     21 C         -11.1543  -16.4380   19.6839 C.3     1  UNL1        0.0899
     22 N         -10.5064  -16.5332   21.0334 N.3     1  UNL1       -0.2667
     23 C         -11.2034  -17.2508   22.1511 C.3     1  UNL1        0.0978
     24 C         -12.5496  -16.7826   22.6185 C.3     1  UNL1        0.0224
     25 C         -13.2467  -17.5002   23.7362 C.3     1  UNL1        0.0065
     26 C         -12.5976  -18.6858   24.3864 C.3     1  UNL1        0.0277
     27 C         -11.2514  -19.1540   23.9190 C.ar    1  UNL1       -0.0073
     28 C         -10.6023  -20.3397   24.5692 C.ar    1  UNL1       -0.0015
     29 C          -9.2561  -20.8078   24.1017 C.ar    1  UNL1        0.0203
     30 C          -8.5590  -20.0903   22.9840 C.ar    1  UNL1        0.0985
     31 N          -9.2081  -18.9046   22.3338 N.ar    1  UNL1       -0.2471
     32 C         -10.5543  -18.4365   22.8013 C.ar    1  UNL1        0.0695
@<TRIPOS>BOND
     1    21    22    1
     2    22    20    1
     3     1    20    1
     4     1     2    1
     5     2     3    1
     6     3     4   ar
     7     4     5   ar
     8     5     6   ar
     9     6     7   ar
    10     7     8   ar
    11     8    12    1
    12    12    13    1
    13    14    13    1
    14    14    15    1
    15    15    16    1
    16    16    17    1
    17    17    18    1
    18     4     9    1
    19     9    10    1
    20    23    22    1
    21    23    24    1
    22    24    25    1
    23    25    26    1
    24    26    27    1
    25    27    28   ar
    26    28    29   ar
    27    29    30   ar
    28    30    31   ar
    29    31    32   ar
    30    10     1    1
    31    32    23    1
    32     8     3   ar
    33    16    12    1
    34    32    27   ar
    35    18    14    1
    36    18    19    1
    37    10    11    1
@<TRIPOS>MOLECULE
*****
 32 37 0 0 0
SMALL
GASTEIGER

@<TRIPOS>ATOM
      1 C           4.1414   -1.7422   24.3008 C.3     1  UNL1        0.0749
      2 C           3.5103   -1.2666   23.0258 C.3     1  UNL1        0.0444
      3 C           3.8042   -1.9717   21.7350 C.ar    1  UNL1       -0.0101
      4 C           4.7292   -3.1524   21.7190 C.ar    1  UNL1       -0.0091
      5 C           5.0231   -3.8575   20.4280 C.ar    1  UNL1       -0.0032
      6 C           4.3920   -3.3818   19.1531 C.ar    1  UNL1        0.0010
      7 C           3.4670   -2.2011   19.1691 C.ar    1  UNL1        0.0142
      8 C           3.1731   -1.4960   20.4600 C.ar    1  UNL1        0.0436
      9 C           5.3603   -3.6280   22.9939 C.3     1  UNL1        0.0954
     10 N           5.0664   -2.9229   24.2848 N.3     1  UNL1       -0.2934
     11 H           5.9608   -2.6013   24.6549 H       1  UNL1        0.1236
     12 N           2.2481   -0.3153   20.4759 N.pl3   1  UNL1       -0.3066
     13 C           0.7491   -0.3696   20.4843 C.3     1  UNL1        0.1064
     14 C           0.2342    1.0392   20.4999 C.3     1  UNL1        0.0757
     15 C           1.4788    0.2021   20.4851 C.3     1  UNL1        0.0386
     16 C           2.6596    1.1271   20.4864 C.3     1  UNL1        0.0899
     17 C           2.1448    2.5359   20.5019 C.3     1  UNL1        0.0886
     18 N           0.6458    2.4815   20.5103 N.3     1  UNL1       -0.2957
     19 H           0.2778    2.9524   19.6838 H       1  UNL1        0.1233
     20 C           3.8475   -1.0371   25.5917 C.3     1  UNL1        0.0886
     21 C           4.7309    1.4049   25.6708 C.3     1  UNL1        0.0899
     22 N           3.5850    0.4397   25.5968 N.3     1  UNL1       -0.2667
     23 C           2.1767    0.9514   25.5280 C.3     1  UNL1        0.0978
     24 C           1.6518    1.5332   24.2490 C.3     1  UNL1        0.0224
     25 C           0.2434    2.0449   24.1801 C.3     1  UNL1        0.0065
     26 C          -0.6400    1.9748   25.3903 C.3     1  UNL1        0.0277
     27 C          -0.1151    1.3930   26.6695 C.ar    1  UNL1       -0.0073
     28 C          -0.9985    1.3229   27.8796 C.ar    1  UNL1       -0.0015
     29 C          -0.4736    0.7411   29.1587 C.ar    1  UNL1        0.0203
     30 C           0.9348    0.2295   29.2275 C.ar    1  UNL1        0.0985
     31 N           1.8182    0.2995   28.0173 N.ar    1  UNL1       -0.2471
     32 C           1.2933    0.8813   26.7383 C.ar    1  UNL1        0.0695
@<TRIPOS>BOND
     1    21    22    1
     2    22    20    1
     3     1    20    1
     4     1     2    1
     5     2     3    1
     6     3     4   ar
     7     4     5   ar
     8     5     6   ar
     9     6     7   ar
    10     7     8   ar
    11     8    12    1
    12    12    13    1
    13    14    13    1
    14    14    15    1
    15    15    16    1
    16    16    17    1
    17    17    18    1
    18     4     9    1
    19     9    10    1
    20    23    22    1
    21    23    24    1
    22    24    25    1
    23    25    26    1
    24    26    27    1
    25    27    28   ar
    26    28    29   ar
    27    29    30   ar
    28    30    31   ar
    29    31    32   ar
    30    10     1    1
    31    32    23    1
    32     8     3   ar
    33    16    12    1
    34    32    27   ar
    35    18    14    1
    36    18    19    1
    37    10    11    1
@<TRIPOS>MOLECULE
*****
 32 37 0 0 0
SMALL
GASTEIGER

@<TRIPOS>ATOM
      1 C          -5.7397  -16.8253   23.4824 C.3     1  UNL1        0.0749
      2 C          -6.3171  -17.7893   22.4887 C.3     1  UNL1        0.0444
      3 C          -5.4196  -18.7512   21.7682 C.ar    1  UNL1       -0.0101
      4 C          -3.9447  -18.7491   22.0414 C.ar    1  UNL1       -0.0091
      5 C          -3.0472  -19.7111   21.3208 C.ar    1  UNL1       -0.0032
      6 C          -3.6246  -20.6750   20.3271 C.ar    1  UNL1        0.0010
      7 C          -5.0995  -20.6771   20.0540 C.ar    1  UNL1        0.0142
      8 C          -5.9970  -19.7151   20.7745 C.ar    1  UNL1        0.0436
      9 C          -3.3672  -17.7852   23.0350 C.3     1  UNL1        0.0954
     10 N          -4.2647  -16.8233   23.7555 N.3     1  UNL1       -0.2934
     11 H          -3.9264  -15.8859   23.5385 H       1  UNL1        0.1236
     12 N          -7.4719  -19.7172   20.5014 N.pl3   1  UNL1       -0.3066
     13 C          -8.1223  -19.4879   19.1693 C.3     1  UNL1        0.1064
     14 C          -9.6078  -19.5778   19.3570 C.3     1  UNL1        0.0757
     15 C          -8.2878  -19.6639   20.0642 C.3     1  UNL1        0.0386
     16 C          -8.5555  -19.9488   21.5124 C.3     1  UNL1        0.0899
     17 C         -10.0410  -20.0387   21.7001 C.3     1  UNL1        0.0886
     18 N         -10.6913  -19.8095   20.3680 N.3     1  UNL1       -0.2957
     19 H         -11.3002  -18.9926   20.4161 H       1  UNL1        0.1233
     20 C          -6.6372  -15.8634   24.2030 C.3     1  UNL1        0.0886
     21 C          -8.6672  -16.5923   25.6513 C.3     1  UNL1        0.0899
     22 N          -8.1024  -16.1572   24.3315 N.3     1  UNL1       -0.2667
     23 C          -9.0030  -16.0159   23.1403 C.3     1  UNL1        0.0978
     24 C          -8.5860  -15.1587   21.9822 C.3     1  UNL1        0.0224
     25 C          -9.4865  -15.0174   20.7910 C.3     1  UNL1        0.0065
     26 C         -10.8042  -15.7334   20.7578 C.3     1  UNL1        0.0277
     27 C         -11.2213  -16.5907   21.9159 C.ar    1  UNL1       -0.0073
     28 C         -12.5389  -17.3066   21.8827 C.ar    1  UNL1       -0.0015
     29 C         -12.9560  -18.1639   23.0408 C.ar    1  UNL1        0.0203
     30 C         -12.0554  -18.3052   24.2320 C.ar    1  UNL1        0.0985
     31 N         -10.7378  -17.5892   24.2652 N.ar    1  UNL1       -0.2471
     32 C         -10.3207  -16.7320   23.1071 C.ar    1  UNL1        0.0695
@<TRIPOS>BOND
     1    21    22    1
     2    22    20    1
     3     1    20    1
     4     1     2    1
     5     2     3    1
     6     3     4   ar
     7     4     5   ar
     8     5     6   ar
     9     6     7   ar
    10     7     8   ar
    11     8    12    1
    12    12    13    1
    13    14    13    1
    14    14    15    1
    15    15    16    1
    16    16    17    1
    17    17    18    1
    18     4     9    1
    19     9    10    1
    20    23    22    1
    21    23    24    1
    22    24    25    1
    23    25    26    1
    24    26    27    1
    25    27    28   ar
    26    28    29   ar
    27    29    30   ar
    28    30    31   ar
    29    31    32   ar
    30    10     1    1
    31    32    23    1
    32     8     3   ar
    33    16    12    1
    34    32    27   ar
    35    18    14    1
    36    18    19    1
    37    10    11    1
