@<TRIPOS>MOLECULE
*****
 29 31 0 0 0
SMALL
GASTEIGER

@<TRIPOS>ATOM
      1 N          -8.1609  -17.3029   22.6050 N.pl3   1  UNL1       -0.3035
      2 C          -9.5722  -17.5816   23.0297 C.ar    1  UNL1        0.0490
      3 C          -9.8591  -18.6921   23.9965 C.ar    1  UNL1        0.0153
      4 C         -11.2704  -18.9709   24.4212 C.ar    1  UNL1        0.0124
      5 C         -12.3950  -18.1392   23.8790 C.ar    1  UNL1        0.0791
      6 C         -12.1081  -17.0289   22.9122 C.ar    1  UNL1        0.0685
      7 CL        -13.2326  -16.1972   22.3700 Cl      1  UNL1       -0.0815
      8 C         -10.6967  -16.7501   22.4875 C.ar    1  UNL1        0.0266
      9 C         -13.8063  -18.4180   24.3037 C.1     1  UNL1        0.1013
     10 N         -15.2177  -18.6968   24.7284 N.1     1  UNL1       -0.1908
     11 C          -7.4154  -18.3057   21.7751 C.3     1  UNL1        0.0946
     12 C          -8.0300  -19.3432   20.8831 C.3     1  UNL1        0.0430
     13 C          -6.9189  -20.1258   20.2482 C.3     1  UNL1        0.0953
     14 N          -5.6175  -19.5719   20.7479 N.am    1  UNL1       -0.2758
     15 C          -4.2495  -20.0576   20.3702 C.2     1  UNL1        0.2526
     16 O          -4.0978  -21.1990   19.4089 O.2     1  UNL1       -0.2723
     17 C          -5.9244  -18.4469   21.6916 C.3     1  UNL1        0.1131
     18 C          -3.0333  -19.4019   20.9539 C.3     1  UNL1        0.1869
     19 C          -2.7140  -17.9761   20.6144 C.3     1  UNL1        0.0417
     20 O          -2.1362  -20.1719   21.8772 O.3     1  UNL1       -0.3758
     21 H          -1.4024  -19.6052   22.1622 H       1  UNL1        0.2110
     22 C          -7.4950  -16.0213   23.0102 C.3     1  UNL1        0.1174
     23 C          -4.6518  -15.8141   23.9445 C.3     1  UNL1        0.0308
     24 C          -5.7766  -15.6512   24.9234 C.ar    1  UNL1       -0.0242
     25 C          -5.4799  -15.3848   26.3693 C.ar    1  UNL1       -0.0045
     26 C          -6.6048  -15.2219   27.3482 C.ar    1  UNL1       -0.0003
     27 C          -8.0264  -15.3255   26.8810 C.ar    1  UNL1       -0.0003
     28 C          -8.3231  -15.5920   25.4350 C.ar    1  UNL1       -0.0029
     29 C          -7.1982  -15.7548   24.4562 C.ar    1  UNL1       -0.0064
@<TRIPOS>BOND
     1    23    24    1
     2    24    25   ar
     3    25    26   ar
     4    26    27   ar
     5    27    28   ar
     6    28    29   ar
     7    29    22    1
     8    22     1    1
     9     1     2    1
    10     2     3   ar
    11     3     4   ar
    12     4     5   ar
    13     5     9    1
    14     9    10    3
    15     5     6   ar
    16     6     7    1
    17     6     8   ar
    18    11     1    1
    19    11    12    1
    20    12    13    1
    21    13    14    1
    22    14    15   am
    23    15    16    2
    24    15    18    1
    25    18    19    1
    26    18    20    1
    27    14    17    1
    28    29    24   ar
    29     8     2   ar
    30    17    11    1
    31    20    21    1
@<TRIPOS>MOLECULE
*****
 29 31 0 0 0
SMALL
GASTEIGER

@<TRIPOS>ATOM
      1 N          -7.7521  -18.6927   21.5661 N.pl3   1  UNL1       -0.3035
      2 C          -7.9553  -17.8954   22.8203 C.ar    1  UNL1        0.0490
      3 C          -9.0408  -18.2757   23.7832 C.ar    1  UNL1        0.0153
      4 C          -9.2440  -17.4784   25.0374 C.ar    1  UNL1        0.0124
      5 C          -8.3617  -16.3008   25.3287 C.ar    1  UNL1        0.0791
      6 C          -7.2762  -15.9206   24.3659 C.ar    1  UNL1        0.0685
      7 CL         -6.3938  -14.7430   24.6572 Cl      1  UNL1       -0.0815
      8 C          -7.0730  -16.7179   23.1117 C.ar    1  UNL1        0.0266
      9 C          -8.5648  -15.5036   26.5830 C.1     1  UNL1        0.1013
     10 N          -8.7680  -14.7063   27.8372 N.1     1  UNL1       -0.1908
     11 C          -6.4007  -19.2615   21.2496 C.3     1  UNL1        0.0946
     12 C          -6.1329  -20.5565   20.5416 C.3     1  UNL1        0.0430
     13 C          -4.6465  -20.7305   20.4401 C.3     1  UNL1        0.0953
     14 N          -3.9956  -19.5430   21.0853 N.am    1  UNL1       -0.2758
     15 C          -2.5197  -19.3052   21.2086 C.2     1  UNL1        0.2526
     16 O          -1.5498  -20.3078   20.6571 O.2     1  UNL1       -0.2723
     17 C          -5.0798  -18.6351   21.5857 C.3     1  UNL1        0.1131
     18 C          -2.0137  -18.0648   21.8834 C.3     1  UNL1        0.1869
     19 C          -1.8249  -16.8045   21.0922 C.3     1  UNL1        0.0417
     20 O          -1.6965  -18.0846   23.3493 O.3     1  UNL1       -0.3758
     21 H          -1.3836  -17.2087   23.6243 H       1  UNL1        0.2110
     22 C          -8.9003  -18.9211   20.6283 C.3     1  UNL1        0.1174
     23 C         -11.2220  -20.3335   21.8992 C.3     1  UNL1        0.0308
     24 C         -11.3569  -18.9014   21.4738 C.ar    1  UNL1       -0.0242
     25 C         -12.6527  -18.1756   21.6838 C.ar    1  UNL1       -0.0045
     26 C         -12.7876  -16.7435   21.2584 C.ar    1  UNL1       -0.0003
     27 C         -11.6268  -16.0373   20.6230 C.ar    1  UNL1       -0.0003
     28 C         -10.3311  -16.7632   20.4130 C.ar    1  UNL1       -0.0029
     29 C         -10.1961  -18.1952   20.8384 C.ar    1  UNL1       -0.0064
@<TRIPOS>BOND
     1    23    24    1
     2    24    25   ar
     3    25    26   ar
     4    26    27   ar
     5    27    28   ar
     6    28    29   ar
     7    29    22    1
     8    22     1    1
     9     1     2    1
    10     2     3   ar
    11     3     4   ar
    12     4     5   ar
    13     5     9    1
    14     9    10    3
    15     5     6   ar
    16     6     7    1
    17     6     8   ar
    18    11     1    1
    19    11    12    1
    20    12    13    1
    21    13    14    1
    22    14    15   am
    23    15    16    2
    24    15    18    1
    25    18    19    1
    26    18    20    1
    27    14    17    1
    28    29    24   ar
    29     8     2   ar
    30    17    11    1
    31    20    21    1
@<TRIPOS>MOLECULE
*****
 29 31 0 0 0
SMALL
GASTEIGER

@<TRIPOS>ATOM
      1 N          -7.9738  -18.1877   22.0650 N.pl3   1  UNL1       -0.3035
      2 C          -8.0543  -17.3788   23.3256 C.ar    1  UNL1        0.0490
      3 C          -7.5098  -15.9814   23.3561 C.ar    1  UNL1        0.0153
      4 C          -7.5903  -15.1725   24.6168 C.ar    1  UNL1        0.0124
      5 C          -8.2152  -15.7610   25.8469 C.ar    1  UNL1        0.0791
      6 C          -8.7597  -17.1584   25.8163 C.ar    1  UNL1        0.0685
      7 CL         -9.3846  -17.7469   27.0465 Cl      1  UNL1       -0.0815
      8 C          -8.6792  -17.9672   24.5557 C.ar    1  UNL1        0.0266
      9 C          -8.2957  -14.9522   27.1076 C.1     1  UNL1        0.1013
     10 N          -8.3762  -14.1433   28.3682 N.1     1  UNL1       -0.1908
     11 C          -6.6795  -18.8352   21.6706 C.3     1  UNL1        0.0946
     12 C          -6.5317  -20.1291   20.9264 C.3     1  UNL1        0.0430
     13 C          -5.0665  -20.3960   20.7471 C.3     1  UNL1        0.0953
     14 N          -4.3088  -19.2670   21.3807 N.am    1  UNL1       -0.2758
     15 C          -2.8163  -19.1273   21.4341 C.2     1  UNL1        0.2526
     16 O          -1.9420  -20.1779   20.8162 O.2     1  UNL1       -0.2723
     17 C          -5.3057  -18.3023   21.9515 C.3     1  UNL1        0.1131
     18 C          -2.1981  -17.9368   22.1053 C.3     1  UNL1        0.1869
     19 C          -1.9950  -16.6644   21.3375 C.3     1  UNL1        0.0417
     20 O          -1.7829  -18.0188   23.5444 O.3     1  UNL1       -0.3758
     21 H          -1.4043  -17.1695   23.8206 H       1  UNL1        0.2110
     22 C          -9.1877  -18.3491   21.1986 C.3     1  UNL1        0.1174
     23 C         -10.1597  -15.5525   20.7145 C.3     1  UNL1        0.0308
     24 C         -11.0196  -16.5261   21.4647 C.ar    1  UNL1       -0.0242
     25 C         -12.3655  -16.1014   21.9727 C.ar    1  UNL1       -0.0045
     26 C         -13.2254  -17.0750   22.7229 C.ar    1  UNL1       -0.0003
     27 C         -12.7394  -18.4732   22.9650 C.ar    1  UNL1       -0.0003
     28 C         -11.3935  -18.8979   22.4569 C.ar    1  UNL1       -0.0029
     29 C         -10.5336  -17.9243   21.7067 C.ar    1  UNL1       -0.0064
@<TRIPOS>BOND
     1    23    24    1
     2    24    25   ar
     3    25    26   ar
     4    26    27   ar
     5    27    28   ar
     6    28    29   ar
     7    29    22    1
     8    22     1    1
     9     1     2    1
    10     2     3   ar
    11     3     4   ar
    12     4     5   ar
    13     5     9    1
    14     9    10    3
    15     5     6   ar
    16     6     7    1
    17     6     8   ar
    18    11     1    1
    19    11    12    1
    20    12    13    1
    21    13    14    1
    22    14    15   am
    23    15    16    2
    24    15    18    1
    25    18    19    1
    26    18    20    1
    27    14    17    1
    28    29    24   ar
    29     8     2   ar
    30    17    11    1
    31    20    21    1
@<TRIPOS>MOLECULE
*****
 29 31 0 0 0
SMALL
GASTEIGER

@<TRIPOS>ATOM
      1 N         -13.9557   -4.9894   17.5817 N.pl3   1  UNL1       -0.3035
      2 C         -14.9392   -6.1220   17.5955 C.ar    1  UNL1        0.0490
      3 C         -15.6916   -6.4772   16.3474 C.ar    1  UNL1        0.0153
      4 C         -16.6750   -7.6097   16.3612 C.ar    1  UNL1        0.0124
      5 C         -16.9061   -8.3870   17.6232 C.ar    1  UNL1        0.0791
      6 C         -16.1538   -8.0317   18.8712 C.ar    1  UNL1        0.0685
      7 CL        -16.3849   -8.8090   20.1332 Cl      1  UNL1       -0.0815
      8 C         -15.1703   -6.8992   18.8574 C.ar    1  UNL1        0.0266
      9 C         -17.8896   -9.5195   17.6370 C.1     1  UNL1        0.1013
     10 N         -18.8731  -10.6520   17.6508 N.1     1  UNL1       -0.1908
     11 C         -14.2930   -3.6949   18.2603 C.3     1  UNL1        0.0946
     12 C         -13.3196   -2.6188   18.6403 C.3     1  UNL1        0.0430
     13 C         -14.0880   -1.5080   19.2928 C.3     1  UNL1        0.0953
     14 N         -15.5364   -1.8976   19.3160 N.am    1  UNL1       -0.2758
     15 C         -16.6606   -1.0793   19.8786 C.2     1  UNL1        0.2526
     16 O         -16.3797    0.2618   20.4891 O.2     1  UNL1       -0.2723
     17 C         -15.6631   -3.2492   18.6778 C.3     1  UNL1        0.1131
     18 C         -18.0657   -1.6021   19.8308 C.3     1  UNL1        0.1869
     19 C         -18.9526   -1.2639   18.6693 C.3     1  UNL1        0.0417
     20 O         -18.5839   -2.4631   20.9444 O.3     1  UNL1       -0.3758
     21 H         -19.5024   -2.7137   20.7588 H       1  UNL1        0.2110
     22 C         -12.6350   -5.1514   16.8893 C.3     1  UNL1        0.1174
     23 C         -12.1111   -7.9644   15.9879 C.3     1  UNL1        0.0308
     24 C         -11.2821   -7.3611   17.0827 C.ar    1  UNL1       -0.0242
     25 C         -10.1912   -8.1641   17.7268 C.ar    1  UNL1       -0.0045
     26 C          -9.3622   -7.5607   18.8217 C.ar    1  UNL1       -0.0003
     27 C          -9.6241   -6.1543   19.2724 C.ar    1  UNL1       -0.0003
     28 C         -10.7150   -5.3512   18.6283 C.ar    1  UNL1       -0.0029
     29 C         -11.5440   -5.9546   17.5334 C.ar    1  UNL1       -0.0064
@<TRIPOS>BOND
     1    23    24    1
     2    24    25   ar
     3    25    26   ar
     4    26    27   ar
     5    27    28   ar
     6    28    29   ar
     7    29    22    1
     8    22     1    1
     9     1     2    1
    10     2     3   ar
    11     3     4   ar
    12     4     5   ar
    13     5     9    1
    14     9    10    3
    15     5     6   ar
    16     6     7    1
    17     6     8   ar
    18    11     1    1
    19    11    12    1
    20    12    13    1
    21    13    14    1
    22    14    15   am
    23    15    16    2
    24    15    18    1
    25    18    19    1
    26    18    20    1
    27    14    17    1
    28    29    24   ar
    29     8     2   ar
    30    17    11    1
    31    20    21    1
@<TRIPOS>MOLECULE
*****
 29 31 0 0 0
SMALL
GASTEIGER

@<TRIPOS>ATOM
      1 N         -13.4335   -4.2925   17.5602 N.pl3   1  UNL1       -0.3035
      2 C         -14.5554   -5.1953   17.9801 C.ar    1  UNL1        0.0490
      3 C         -14.4356   -6.0062   19.2363 C.ar    1  UNL1        0.0153
      4 C         -15.5575   -6.9090   19.6562 C.ar    1  UNL1        0.0124
      5 C         -16.7993   -7.0009   18.8197 C.ar    1  UNL1        0.0791
      6 C         -16.9191   -6.1900   17.5635 C.ar    1  UNL1        0.0685
      7 CL        -18.1609   -6.2820   16.7270 Cl      1  UNL1       -0.0815
      8 C         -15.7972   -5.2872   17.1437 C.ar    1  UNL1        0.0266
      9 C         -17.9212   -7.9037   19.2395 C.1     1  UNL1        0.1013
     10 N         -19.0431   -8.8065   19.6594 N.1     1  UNL1       -0.1908
     11 C         -13.4763   -2.8331   17.9045 C.3     1  UNL1        0.0946
     12 C         -12.3292   -1.8712   17.8111 C.3     1  UNL1        0.0430
     13 C         -12.8177   -0.5231   18.2515 C.3     1  UNL1        0.0953
     14 N         -14.2668   -0.6518   18.6171 N.am    1  UNL1       -0.2758
     15 C         -15.1531    0.4531   19.1105 C.2     1  UNL1        0.2526
     16 O         -14.6028    1.8387   19.2763 O.2     1  UNL1       -0.2723
     17 C         -14.6738   -2.0796   18.4026 C.3     1  UNL1        0.1131
     18 C         -16.5898    0.1725   19.4381 C.3     1  UNL1        0.1869
     19 C         -17.6469    0.3509   18.3890 C.3     1  UNL1        0.0417
     20 O         -16.9693   -0.2865   20.8148 O.3     1  UNL1       -0.3758
     21 H         -17.9289   -0.4214   20.8575 H       1  UNL1        0.2110
     22 C         -12.2689   -4.8490   16.7962 C.3     1  UNL1        0.1174
     23 C         -12.1111   -7.7373   16.0007 C.3     1  UNL1        0.0308
     24 C         -11.2138   -7.2063   17.0791 C.ar    1  UNL1       -0.0242
     25 C         -10.2377   -8.1194   17.7598 C.ar    1  UNL1       -0.0045
     26 C          -9.3404   -7.5884   18.8382 C.ar    1  UNL1       -0.0003
     27 C          -9.4193   -6.1443   19.2359 C.ar    1  UNL1       -0.0003
     28 C         -10.3954   -5.2312   18.5553 C.ar    1  UNL1       -0.0029
     29 C         -11.2927   -5.7622   17.4769 C.ar    1  UNL1       -0.0064
@<TRIPOS>BOND
     1    23    24    1
     2    24    25   ar
     3    25    26   ar
     4    26    27   ar
     5    27    28   ar
     6    28    29   ar
     7    29    22    1
     8    22     1    1
     9     1     2    1
    10     2     3   ar
    11     3     4   ar
    12     4     5   ar
    13     5     9    1
    14     9    10    3
    15     5     6   ar
    16     6     7    1
    17     6     8   ar
    18    11     1    1
    19    11    12    1
    20    12    13    1
    21    13    14    1
    22    14    15   am
    23    15    16    2
    24    15    18    1
    25    18    19    1
    26    18    20    1
    27    14    17    1
    28    29    24   ar
    29     8     2   ar
    30    17    11    1
    31    20    21    1
