@<TRIPOS>MOLECULE
*****
 33 36 0 0 0
SMALL
GASTEIGER

@<TRIPOS>ATOM
      1 C          -2.3758  -18.0985   18.9490 C.3     1  UNL1        0.0227
      2 C          -3.4084  -19.1764   19.0972 C.3     1  UNL1        0.0897
      3 O          -5.1943  -21.4055   20.0147 O.2     1  UNL1       -0.2701
      4 C          -5.6255  -19.9793   20.1879 C.2     1  UNL1        0.2458
      5 N          -4.7325  -18.8648   19.7292 N.am    1  UNL1       -0.3009
      6 H          -5.0155  -17.9287   19.8429 H       1  UNL1        0.1497
      7 C          -6.9497  -19.6676   20.8199 C.ar    1  UNL1        0.0534
      8 C          -8.0984  -19.2135   19.9690 C.ar    1  UNL1        0.0045
      9 C          -9.4227  -18.9018   20.6010 C.ar    1  UNL1        0.0002
     10 C          -9.5981  -19.0442   22.0839 C.ar    1  UNL1        0.0005
     11 C          -8.4492  -19.4984   22.9348 C.ar    1  UNL1        0.0002
     12 C          -7.1251  -19.8101   22.3028 C.ar    1  UNL1        0.0045
     13 C         -10.9222  -18.7326   22.7158 C.ar    1  UNL1        0.0070
     14 C         -11.3515  -19.1198   24.0999 C.ar    1  UNL1        0.0075
     15 C         -12.7442  -18.6055   24.3142 C.ar    1  UNL1        0.0355
     16 S         -13.1756  -17.9004   23.0625 S.2     1  UNL1       -0.0859
     17 C         -12.0495  -17.9789   22.0747 C.ar    1  UNL1        0.0354
     18 C          -1.0495  -18.2307   19.6371 C.3     1  UNL1        0.0191
     19 C          -0.8894  -17.7631   21.0533 C.3     1  UNL1        0.0723
     20 N          -2.0953  -17.3710   21.8546 N.3     1  UNL1       -0.2698
     21 C          -2.8734  -18.4154   22.5986 C.3     1  UNL1        0.0938
     22 C          -4.0793  -18.0233   23.3998 C.3     1  UNL1        0.1081
     23 N          -4.5071  -16.5867   23.4570 N.pl3   1  UNL1       -0.3046
     24 C          -3.7290  -15.5423   22.7130 C.3     1  UNL1        0.1081
     25 C          -2.5231  -15.9344   21.9118 C.3     1  UNL1        0.0938
     26 C          -5.7131  -16.1946   24.2583 C.ar    1  UNL1        0.0496
     27 C          -7.0771  -16.2508   23.6369 C.ar    1  UNL1        0.0260
     28 C          -8.2831  -15.8587   24.4382 C.ar    1  UNL1        0.0597
     29 CL         -9.6471  -15.9150   23.8168 Cl      1  UNL1       -0.0822
     30 C          -8.1249  -15.4104   25.8609 C.ar    1  UNL1        0.0229
     31 C          -6.7607  -15.3542   26.4823 C.ar    1  UNL1        0.0597
     32 CL         -6.6026  -14.9059   27.9049 Cl      1  UNL1       -0.0822
     33 C          -5.5549  -15.7463   25.6810 C.ar    1  UNL1        0.0260
@<TRIPOS>BOND
     1     3     4    2
     2     4     5   am
     3     5     2    1
     4     2     1    1
     5     1    18    1
     6    18    19    1
     7    19    20    1
     8    20    21    1
     9    21    22    1
    10    22    23    1
    11    23    26    1
    12    26    27   ar
    13    27    28   ar
    14    28    29    1
    15    28    30   ar
    16    30    31   ar
    17    31    32    1
    18    31    33   ar
    19    23    24    1
    20    24    25    1
    21     4     7    1
    22     7     8   ar
    23     8     9   ar
    24     9    10   ar
    25    10    13    1
    26    13    14   ar
    27    14    15   ar
    28    15    16   ar
    29    16    17   ar
    30    10    11   ar
    31    11    12   ar
    32    25    20    1
    33    12     7   ar
    34    33    26   ar
    35    17    13   ar
    36     5     6    1
@<TRIPOS>MOLECULE
*****
 33 36 0 0 0
SMALL
GASTEIGER

@<TRIPOS>ATOM
      1 C          -2.3765  -18.1539   18.9741 C.3     1  UNL1        0.0227
      2 C          -3.3884  -19.2399   19.1900 C.3     1  UNL1        0.0897
      3 O          -5.2243  -21.4472   20.0603 O.2     1  UNL1       -0.2701
      4 C          -5.6422  -20.0158   20.2236 C.2     1  UNL1        0.2458
      5 N          -4.7242  -18.9122   19.7885 N.am    1  UNL1       -0.3009
      6 H          -4.9984  -17.9727   19.8957 H       1  UNL1        0.1497
      7 C          -6.9780  -19.6881   20.8221 C.ar    1  UNL1        0.0534
      8 C          -7.1651  -19.7348   22.3096 C.ar    1  UNL1        0.0045
      9 C          -8.5010  -19.4070   22.9081 C.ar    1  UNL1        0.0002
     10 C          -9.6496  -19.0326   22.0191 C.ar    1  UNL1        0.0005
     11 C          -9.4624  -18.9860   20.5315 C.ar    1  UNL1        0.0002
     12 C          -8.1266  -19.3137   19.9330 C.ar    1  UNL1        0.0045
     13 C         -10.9854  -18.7049   22.6175 C.ar    1  UNL1        0.0070
     14 C         -12.1152  -18.0047   21.9222 C.ar    1  UNL1        0.0075
     15 C         -13.2540  -17.8869   22.8913 C.ar    1  UNL1        0.0355
     16 S         -12.8281  -18.5143   24.1856 S.2     1  UNL1       -0.0859
     17 C         -11.4260  -19.0198   24.0163 C.ar    1  UNL1        0.0354
     18 C          -1.0380  -18.2314   19.6467 C.3     1  UNL1        0.0191
     19 C          -0.8828  -17.7662   21.0642 C.3     1  UNL1        0.0723
     20 N          -2.0914  -17.3728   21.8611 N.3     1  UNL1       -0.2698
     21 C          -2.5234  -15.9372   21.9090 C.3     1  UNL1        0.0938
     22 C          -3.7319  -15.5440   22.7058 C.3     1  UNL1        0.1081
     23 N          -4.5083  -16.5863   23.4546 N.pl3   1  UNL1       -0.3046
     24 C          -4.0763  -18.0219   23.4066 C.3     1  UNL1        0.1081
     25 C          -2.8678  -18.4152   22.6098 C.3     1  UNL1        0.0938
     26 C          -5.7168  -16.1930   24.2514 C.ar    1  UNL1        0.0496
     27 C          -5.5655  -15.7626   25.6803 C.ar    1  UNL1        0.0260
     28 C          -6.7741  -15.3693   26.4772 C.ar    1  UNL1        0.0597
     29 CL         -6.6228  -14.9389   27.9061 Cl      1  UNL1       -0.0822
     30 C          -8.1338  -15.4063   25.8450 C.ar    1  UNL1        0.0229
     31 C          -8.2851  -15.8367   24.4160 C.ar    1  UNL1        0.0597
     32 CL         -9.6448  -15.8738   23.7838 Cl      1  UNL1       -0.0822
     33 C          -7.0766  -16.2300   23.6192 C.ar    1  UNL1        0.0260
@<TRIPOS>BOND
     1     3     4    2
     2     4     5   am
     3     5     2    1
     4     2     1    1
     5     1    18    1
     6    18    19    1
     7    19    20    1
     8    20    21    1
     9    21    22    1
    10    22    23    1
    11    23    26    1
    12    26    27   ar
    13    27    28   ar
    14    28    29    1
    15    28    30   ar
    16    30    31   ar
    17    31    32    1
    18    31    33   ar
    19    23    24    1
    20    24    25    1
    21     4     7    1
    22     7     8   ar
    23     8     9   ar
    24     9    10   ar
    25    10    13    1
    26    13    14   ar
    27    14    15   ar
    28    15    16   ar
    29    16    17   ar
    30    10    11   ar
    31    11    12   ar
    32    25    20    1
    33    12     7   ar
    34    33    26   ar
    35    17    13   ar
    36     5     6    1
@<TRIPOS>MOLECULE
*****
 33 36 0 0 0
SMALL
GASTEIGER

@<TRIPOS>ATOM
      1 C          -2.4843    4.3435   22.3401 C.3     1  UNL1        0.0227
      2 C          -2.4337    3.5961   21.0406 C.3     1  UNL1        0.0897
      3 O          -0.3036    3.8561   18.9441 O.2     1  UNL1       -0.2701
      4 C          -0.3685    2.6251   19.7988 C.2     1  UNL1        0.2458
      5 N          -1.4336    2.4951   20.8470 N.am    1  UNL1       -0.3009
      6 H          -1.4762    1.6872   21.4080 H       1  UNL1        0.1497
      7 C           0.6317    1.5242   19.6053 C.ar    1  UNL1        0.0534
      8 C           1.8223    1.7398   18.7188 C.ar    1  UNL1        0.0045
      9 C           2.8225    0.6388   18.5252 C.ar    1  UNL1        0.0002
     10 C           2.6321   -0.6778   19.2182 C.ar    1  UNL1        0.0005
     11 C           1.4414   -0.8934   20.1047 C.ar    1  UNL1        0.0002
     12 C           0.4413    0.2075   20.2983 C.ar    1  UNL1        0.0045
     13 C           3.6322   -1.7788   19.0247 C.ar    1  UNL1        0.0070
     14 C           3.4985   -3.1885   19.5195 C.ar    1  UNL1        0.0075
     15 C           4.7254   -3.9444   19.1030 C.ar    1  UNL1        0.0355
     16 S           5.6174   -3.0017   18.3507 S.2     1  UNL1       -0.0859
     17 C           4.9418   -1.6634   18.3023 C.ar    1  UNL1        0.0354
     18 C          -2.1809    3.6332   23.6261 C.3     1  UNL1        0.0191
     19 C          -0.8389    3.7982   24.2754 C.3     1  UNL1        0.0723
     20 N           0.3039    2.9149   23.8704 N.3     1  UNL1       -0.2698
     21 C           0.3725    1.5017   24.3684 C.3     1  UNL1        0.0938
     22 C           1.5153    0.6185   23.9635 C.3     1  UNL1        0.1081
     23 N           2.5894    1.1485   23.0605 N.pl3   1  UNL1       -0.3046
     24 C           2.5208    2.5617   22.5625 C.3     1  UNL1        0.1081
     25 C           1.3781    3.4449   22.9675 C.3     1  UNL1        0.0938
     26 C           3.7322    0.2652   22.6556 C.ar    1  UNL1        0.0496
     27 C           4.8537    0.8213   21.8294 C.ar    1  UNL1        0.0260
     28 C           5.9965   -0.0620   21.4244 C.ar    1  UNL1        0.0597
     29 CL          7.1181    0.4942   20.5982 Cl      1  UNL1       -0.0822
     30 C           6.0177   -1.5014   21.8458 C.ar    1  UNL1        0.0229
     31 C           4.8960   -2.0576   22.6721 C.ar    1  UNL1        0.0597
     32 CL          4.9172   -3.4970   23.0934 Cl      1  UNL1       -0.0822
     33 C           3.7533   -1.1743   23.0770 C.ar    1  UNL1        0.0260
@<TRIPOS>BOND
     1     3     4    2
     2     4     5   am
     3     5     2    1
     4     2     1    1
     5     1    18    1
     6    18    19    1
     7    19    20    1
     8    20    21    1
     9    21    22    1
    10    22    23    1
    11    23    26    1
    12    26    27   ar
    13    27    28   ar
    14    28    29    1
    15    28    30   ar
    16    30    31   ar
    17    31    32    1
    18    31    33   ar
    19    23    24    1
    20    24    25    1
    21     4     7    1
    22     7     8   ar
    23     8     9   ar
    24     9    10   ar
    25    10    13    1
    26    13    14   ar
    27    14    15   ar
    28    15    16   ar
    29    16    17   ar
    30    10    11   ar
    31    11    12   ar
    32    25    20    1
    33    12     7   ar
    34    33    26   ar
    35    17    13   ar
    36     5     6    1
@<TRIPOS>MOLECULE
*****
 33 36 0 0 0
SMALL
GASTEIGER

@<TRIPOS>ATOM
      1 C          -2.3110    4.3319   22.7446 C.3     1  UNL1        0.0227
      2 C          -2.3230    3.6481   21.4096 C.3     1  UNL1        0.0897
      3 O          -0.1183    4.0353   19.4122 O.2     1  UNL1       -0.2701
      4 C          -0.2578    2.7261   20.1309 C.2     1  UNL1        0.2458
      5 N          -1.3601    2.5326   21.1297 N.am    1  UNL1       -0.3009
      6 H          -1.4516    1.6733   21.6015 H       1  UNL1        0.1497
      7 C           0.7051    1.6106   19.8510 C.ar    1  UNL1        0.0534
      8 C           0.4565    0.2450   20.4195 C.ar    1  UNL1        0.0045
      9 C           1.4194   -0.8707   20.1396 C.ar    1  UNL1        0.0002
     10 C           2.6309   -0.6206   19.2913 C.ar    1  UNL1        0.0005
     11 C           2.8795    0.7451   18.7228 C.ar    1  UNL1        0.0002
     12 C           1.9166    1.8607   19.0027 C.ar    1  UNL1        0.0045
     13 C           3.5937   -1.7362   19.0114 C.ar    1  UNL1        0.0070
     14 C           4.8861   -1.6175   18.2592 C.ar    1  UNL1        0.0075
     15 C           5.5244   -2.9742   18.2175 C.ar    1  UNL1        0.0355
     16 S           4.6265   -3.9315   18.9438 S.2     1  UNL1       -0.0859
     17 C           3.4333   -3.1663   19.4345 C.ar    1  UNL1        0.0354
     18 C          -1.8324    3.5951   23.9604 C.3     1  UNL1        0.0191
     19 C          -0.4305    3.7949   24.4550 C.3     1  UNL1        0.0723
     20 N           0.6630    2.8733   24.0024 N.3     1  UNL1       -0.2698
     21 C           0.6175    1.4192   24.3677 C.3     1  UNL1        0.0938
     22 C           1.7111    0.4976   23.9151 C.3     1  UNL1        0.1081
     23 N           2.8501    1.0302   23.0972 N.pl3   1  UNL1       -0.3046
     24 C           2.8956    2.4843   22.7319 C.3     1  UNL1        0.1081
     25 C           1.8021    3.4059   23.1845 C.3     1  UNL1        0.0938
     26 C           3.9437    0.1086   22.6446 C.ar    1  UNL1        0.0496
     27 C           3.8743   -1.3541   22.9696 C.ar    1  UNL1        0.0260
     28 C           4.9679   -2.2757   22.5170 C.ar    1  UNL1        0.0597
     29 CL          4.8985   -3.7384   22.8420 Cl      1  UNL1       -0.0822
     30 C           6.1308   -1.7345   21.7393 C.ar    1  UNL1        0.0229
     31 C           6.2002   -0.2718   21.4143 C.ar    1  UNL1        0.0597
     32 CL          7.3631    0.2694   20.6366 Cl      1  UNL1       -0.0822
     33 C           5.1066    0.6498   21.8669 C.ar    1  UNL1        0.0260
@<TRIPOS>BOND
     1     3     4    2
     2     4     5   am
     3     5     2    1
     4     2     1    1
     5     1    18    1
     6    18    19    1
     7    19    20    1
     8    20    21    1
     9    21    22    1
    10    22    23    1
    11    23    26    1
    12    26    27   ar
    13    27    28   ar
    14    28    29    1
    15    28    30   ar
    16    30    31   ar
    17    31    32    1
    18    31    33   ar
    19    23    24    1
    20    24    25    1
    21     4     7    1
    22     7     8   ar
    23     8     9   ar
    24     9    10   ar
    25    10    13    1
    26    13    14   ar
    27    14    15   ar
    28    15    16   ar
    29    16    17   ar
    30    10    11   ar
    31    11    12   ar
    32    25    20    1
    33    12     7   ar
    34    33    26   ar
    35    17    13   ar
    36     5     6    1
@<TRIPOS>MOLECULE
*****
 33 36 0 0 0
SMALL
GASTEIGER

@<TRIPOS>ATOM
      1 C           6.9630   -5.4080   29.0573 C.3     1  UNL1        0.0227
      2 C           7.2148   -5.4264   30.5359 C.3     1  UNL1        0.0897
      3 O           8.6216   -2.9799   31.5536 O.2     1  UNL1       -0.2701
      4 C           7.1960   -3.2409   31.9406 C.2     1  UNL1        0.2458
      5 N           6.4927   -4.4642   31.4317 N.am    1  UNL1       -0.3009
      6 H           5.5571   -4.6355   31.6856 H       1  UNL1        0.1497
      7 C           6.4739   -2.2787   32.8364 C.ar    1  UNL1        0.0534
      8 C           7.1986   -1.0946   33.4045 C.ar    1  UNL1        0.0045
      9 C           6.4764   -0.1323   34.3004 C.ar    1  UNL1        0.0002
     10 C           5.0296   -0.3541   34.6280 C.ar    1  UNL1        0.0005
     11 C           4.3048   -1.5382   34.0598 C.ar    1  UNL1        0.0002
     12 C           5.0270   -2.5004   33.1640 C.ar    1  UNL1        0.0045
     13 C           4.3074    0.6082   35.5238 C.ar    1  UNL1        0.0070
     14 C           4.2763    0.5637   37.0229 C.ar    1  UNL1        0.0075
     15 C           3.4392    1.7119   37.5034 C.ar    1  UNL1        0.0355
     16 S           2.9529    2.4660   36.3013 S.2     1  UNL1       -0.0859
     17 C           3.4895    1.7838   35.0779 C.ar    1  UNL1        0.0354
     18 C           7.6598   -4.4015   28.1903 C.3     1  UNL1        0.0191
     19 C           6.9512   -3.1436   27.7834 C.3     1  UNL1        0.0723
     20 N           6.3284   -3.0403   26.4227 N.3     1  UNL1       -0.2698
     21 C           5.3364   -1.9533   26.1325 C.3     1  UNL1        0.0938
     22 C           4.7136   -1.8499   24.7718 C.3     1  UNL1        0.1081
     23 N           5.0829   -2.8336   23.7013 N.pl3   1  UNL1       -0.3046
     24 C           6.0749   -3.9207   23.9915 C.3     1  UNL1        0.1081
     25 C           6.6977   -4.0240   25.3522 C.3     1  UNL1        0.0938
     26 C           4.4601   -2.7303   22.3406 C.ar    1  UNL1        0.0496
     27 C           3.6064   -1.5465   21.9945 C.ar    1  UNL1        0.0260
     28 C           2.9836   -1.4431   20.6337 C.ar    1  UNL1        0.0597
     29 CL          2.1300   -0.2593   20.2876 Cl      1  UNL1       -0.0822
     30 C           3.2146   -2.5236   19.6192 C.ar    1  UNL1        0.0229
     31 C           4.0683   -3.7074   19.9654 C.ar    1  UNL1        0.0597
     32 CL          4.2992   -4.7879   18.9509 Cl      1  UNL1       -0.0822
     33 C           4.6910   -3.8107   21.3261 C.ar    1  UNL1        0.0260
@<TRIPOS>BOND
     1     3     4    2
     2     4     5   am
     3     5     2    1
     4     2     1    1
     5     1    18    1
     6    18    19    1
     7    19    20    1
     8    20    21    1
     9    21    22    1
    10    22    23    1
    11    23    26    1
    12    26    27   ar
    13    27    28   ar
    14    28    29    1
    15    28    30   ar
    16    30    31   ar
    17    31    32    1
    18    31    33   ar
    19    23    24    1
    20    24    25    1
    21     4     7    1
    22     7     8   ar
    23     8     9   ar
    24     9    10   ar
    25    10    13    1
    26    13    14   ar
    27    14    15   ar
    28    15    16   ar
    29    16    17   ar
    30    10    11   ar
    31    11    12   ar
    32    25    20    1
    33    12     7   ar
    34    33    26   ar
    35    17    13   ar
    36     5     6    1
@<TRIPOS>MOLECULE
*****
 33 36 0 0 0
SMALL
GASTEIGER

@<TRIPOS>ATOM
      1 C          -1.3059    3.2079   22.9646 C.3     1  UNL1        0.0227
      2 C          -0.2849    2.8622   24.0076 C.3     1  UNL1        0.0897
      3 O           2.3972    3.5927   22.8794 O.2     1  UNL1       -0.2701
      4 C           2.0725    2.1579   23.1727 C.2     1  UNL1        0.2458
      5 N           0.7314    1.7927   23.7368 N.am    1  UNL1       -0.3009
      6 H           0.5182    0.8510   23.9293 H       1  UNL1        0.1497
      7 C           3.0887    1.0884   22.9018 C.ar    1  UNL1        0.0534
      8 C           2.7868   -0.3387   23.2511 C.ar    1  UNL1        0.0045
      9 C           3.8030   -1.4083   22.9803 C.ar    1  UNL1        0.0002
     10 C           5.1212   -1.0507   22.3601 C.ar    1  UNL1        0.0005
     11 C           5.4231    0.3766   22.0108 C.ar    1  UNL1        0.0002
     12 C           4.4069    1.4461   22.2817 C.ar    1  UNL1        0.0045
     13 C           6.1374   -2.1202   22.0893 C.ar    1  UNL1        0.0070
     14 C           5.9506   -3.5914   22.3145 C.ar    1  UNL1        0.0075
     15 C           7.2166   -4.2867   21.9101 C.ar    1  UNL1        0.0355
     16 S           8.1860   -3.2452   21.4349 S.2     1  UNL1       -0.0859
     17 C           7.5190   -1.9063   21.5457 C.ar    1  UNL1        0.0354
     18 C          -0.8780    3.8604   21.6834 C.3     1  UNL1        0.0191
     19 C          -0.9246    3.0898   20.3974 C.3     1  UNL1        0.0723
     20 N           0.1283    2.0637   20.0992 N.3     1  UNL1       -0.2698
     21 C          -0.0992    0.6273   20.4663 C.3     1  UNL1        0.0938
     22 C           0.9535   -0.3987   20.1682 C.3     1  UNL1        0.1081
     23 N           2.2338    0.0117   19.5030 N.pl3   1  UNL1       -0.3046
     24 C           2.4613    1.4482   19.1359 C.3     1  UNL1        0.1081
     25 C           1.4085    2.4742   19.4341 C.3     1  UNL1        0.0938
     26 C           3.2866   -1.0144   19.2049 C.ar    1  UNL1        0.0496
     27 C           4.6245   -0.5855   18.6796 C.ar    1  UNL1        0.0260
     28 C           5.6773   -1.6116   18.3815 C.ar    1  UNL1        0.0597
     29 CL          7.0152   -1.1826   17.8562 Cl      1  UNL1       -0.0822
     30 C           5.3921   -3.0666   18.6086 C.ar    1  UNL1        0.0229
     31 C           4.0541   -3.4955   19.1339 C.ar    1  UNL1        0.0597
     32 CL          3.7689   -4.9505   19.3611 Cl      1  UNL1       -0.0822
     33 C           3.0014   -2.4694   19.4320 C.ar    1  UNL1        0.0260
@<TRIPOS>BOND
     1     3     4    2
     2     4     5   am
     3     5     2    1
     4     2     1    1
     5     1    18    1
     6    18    19    1
     7    19    20    1
     8    20    21    1
     9    21    22    1
    10    22    23    1
    11    23    26    1
    12    26    27   ar
    13    27    28   ar
    14    28    29    1
    15    28    30   ar
    16    30    31   ar
    17    31    32    1
    18    31    33   ar
    19    23    24    1
    20    24    25    1
    21     4     7    1
    22     7     8   ar
    23     8     9   ar
    24     9    10   ar
    25    10    13    1
    26    13    14   ar
    27    14    15   ar
    28    15    16   ar
    29    16    17   ar
    30    10    11   ar
    31    11    12   ar
    32    25    20    1
    33    12     7   ar
    34    33    26   ar
    35    17    13   ar
    36     5     6    1
@<TRIPOS>MOLECULE
*****
 33 36 0 0 0
SMALL
GASTEIGER

@<TRIPOS>ATOM
      1 C           6.5953   -5.8014   26.8145 C.3     1  UNL1        0.0227
      2 C           7.1124   -4.8712   25.7575 C.3     1  UNL1        0.0897
      3 O           7.0420   -5.0186   22.7619 O.2     1  UNL1       -0.2701
      4 C           6.1233   -4.0816   23.4885 C.2     1  UNL1        0.2458
      5 N           6.1585   -4.0079   24.9863 N.am    1  UNL1       -0.3009
      6 H           5.5555   -3.3929   25.4632 H       1  UNL1        0.1497
      7 C           5.1694   -3.2182   22.7173 C.ar    1  UNL1        0.0534
      8 C           4.4152   -2.1254   23.4150 C.ar    1  UNL1        0.0045
      9 C           3.4613   -1.2620   22.6438 C.ar    1  UNL1        0.0002
     10 C           3.2615   -1.4916   21.1750 C.ar    1  UNL1        0.0005
     11 C           4.0158   -2.5845   20.4774 C.ar    1  UNL1        0.0002
     12 C           4.9697   -3.4478   21.2485 C.ar    1  UNL1        0.0045
     13 C           2.3077   -0.6282   20.4039 C.ar    1  UNL1        0.0070
     14 C           0.9999   -0.0923   20.9065 C.ar    1  UNL1        0.0075
     15 C           0.3780    0.7179   19.8079 C.ar    1  UNL1        0.0355
     16 S           1.3015    0.6827   18.6263 S.2     1  UNL1       -0.0859
     17 C           2.4940   -0.1492   18.9947 C.ar    1  UNL1        0.0354
     18 C           7.5067   -6.2757   27.9074 C.3     1  UNL1        0.0191
     19 C           8.2462   -5.2807   28.7518 C.3     1  UNL1        0.0723
     20 N           7.4867   -4.3297   29.6287 N.3     1  UNL1       -0.2698
     21 C           7.2406   -4.6709   31.0685 C.3     1  UNL1        0.0938
     22 C           6.4811   -3.7200   31.9453 C.3     1  UNL1        0.1081
     23 N           5.9678   -2.4278   31.3824 N.pl3   1  UNL1       -0.3046
     24 C           6.2140   -2.0866   29.9426 C.3     1  UNL1        0.1081
     25 C           6.9735   -3.0375   29.0658 C.3     1  UNL1        0.0938
     26 C           5.2083   -1.4768   32.2593 C.ar    1  UNL1        0.0496
     27 C           5.5256   -1.3899   33.7228 C.ar    1  UNL1        0.0260
     28 C           4.7661   -0.4390   34.5997 C.ar    1  UNL1        0.0597
     29 CL          5.0833   -0.3521   36.0631 Cl      1  UNL1       -0.0822
     30 C           3.6894    0.4251   34.0131 C.ar    1  UNL1        0.0229
     31 C           3.3721    0.3381   32.5495 C.ar    1  UNL1        0.0597
     32 CL          2.2954    1.2021   31.9629 Cl      1  UNL1       -0.0822
     33 C           4.1316   -0.6128   31.6727 C.ar    1  UNL1        0.0260
@<TRIPOS>BOND
     1     3     4    2
     2     4     5   am
     3     5     2    1
     4     2     1    1
     5     1    18    1
     6    18    19    1
     7    19    20    1
     8    20    21    1
     9    21    22    1
    10    22    23    1
    11    23    26    1
    12    26    27   ar
    13    27    28   ar
    14    28    29    1
    15    28    30   ar
    16    30    31   ar
    17    31    32    1
    18    31    33   ar
    19    23    24    1
    20    24    25    1
    21     4     7    1
    22     7     8   ar
    23     8     9   ar
    24     9    10   ar
    25    10    13    1
    26    13    14   ar
    27    14    15   ar
    28    15    16   ar
    29    16    17   ar
    30    10    11   ar
    31    11    12   ar
    32    25    20    1
    33    12     7   ar
    34    33    26   ar
    35    17    13   ar
    36     5     6    1
@<TRIPOS>MOLECULE
*****
 33 36 0 0 0
SMALL
GASTEIGER

@<TRIPOS>ATOM
      1 C           6.8651   -5.4278   28.6068 C.3     1  UNL1        0.0227
      2 C           7.0128   -5.6750   30.0789 C.3     1  UNL1        0.0897
      3 O           8.4677   -3.1999   30.9491 O.2     1  UNL1       -0.2701
      4 C           7.1051   -3.5014   31.4991 C.2     1  UNL1        0.2458
      5 N           6.3777   -4.7389   31.0639 N.am    1  UNL1       -0.3009
      6 H           5.4833   -4.9368   31.4249 H       1  UNL1        0.1497
      7 C           6.4700   -2.5653   32.4841 C.ar    1  UNL1        0.0534
      8 C           7.2731   -1.4491   33.0832 C.ar    1  UNL1        0.0045
      9 C           6.6380   -0.5129   34.0683 C.ar    1  UNL1        0.0002
     10 C           5.1998   -0.6931   34.4543 C.ar    1  UNL1        0.0005
     11 C           4.3966   -1.8094   33.8552 C.ar    1  UNL1        0.0002
     12 C           5.0318   -2.7455   32.8701 C.ar    1  UNL1        0.0045
     13 C           4.5647    0.2429   35.4393 C.ar    1  UNL1        0.0070
     14 C           3.6410    1.3775   35.1083 C.ar    1  UNL1        0.0075
     15 C           3.2471    2.0446   36.3927 C.ar    1  UNL1        0.0355
     16 S           3.9275    1.3222   37.5177 S.2     1  UNL1       -0.0859
     17 C           4.7417    0.2088   36.9284 C.ar    1  UNL1        0.0354
     18 C           7.9136   -4.6501   27.8680 C.3     1  UNL1        0.0191
     19 C           7.5846   -3.3028   27.2966 C.3     1  UNL1        0.0723
     20 N           6.8562   -3.2000   25.9893 N.3     1  UNL1       -0.2698
     21 C           7.1374   -4.1861   24.8945 C.3     1  UNL1        0.0938
     22 C           6.4090   -4.0833   23.5874 C.3     1  UNL1        0.1081
     23 N           5.3994   -2.9944   23.3750 N.pl3   1  UNL1       -0.3046
     24 C           5.1182   -2.0084   24.4697 C.3     1  UNL1        0.1081
     25 C           5.8466   -2.1112   25.7769 C.3     1  UNL1        0.0938
     26 C           4.6709   -2.8917   22.0677 C.ar    1  UNL1        0.0496
     27 C           4.9018   -3.9173   20.9978 C.ar    1  UNL1        0.0260
     28 C           4.1734   -3.8146   19.6905 C.ar    1  UNL1        0.0597
     29 CL          4.4042   -4.8402   18.6207 Cl      1  UNL1       -0.0822
     30 C           3.2141   -2.6861   19.4532 C.ar    1  UNL1        0.0229
     31 C           2.9832   -1.6604   20.5232 C.ar    1  UNL1        0.0597
     32 CL          2.0239   -0.5319   20.2858 Cl      1  UNL1       -0.0822
     33 C           3.7116   -1.7632   21.8303 C.ar    1  UNL1        0.0260
@<TRIPOS>BOND
     1     3     4    2
     2     4     5   am
     3     5     2    1
     4     2     1    1
     5     1    18    1
     6    18    19    1
     7    19    20    1
     8    20    21    1
     9    21    22    1
    10    22    23    1
    11    23    26    1
    12    26    27   ar
    13    27    28   ar
    14    28    29    1
    15    28    30   ar
    16    30    31   ar
    17    31    32    1
    18    31    33   ar
    19    23    24    1
    20    24    25    1
    21     4     7    1
    22     7     8   ar
    23     8     9   ar
    24     9    10   ar
    25    10    13    1
    26    13    14   ar
    27    14    15   ar
    28    15    16   ar
    29    16    17   ar
    30    10    11   ar
    31    11    12   ar
    32    25    20    1
    33    12     7   ar
    34    33    26   ar
    35    17    13   ar
    36     5     6    1
@<TRIPOS>MOLECULE
*****
 33 36 0 0 0
SMALL
GASTEIGER

@<TRIPOS>ATOM
      1 C          -1.6446    4.3998   18.7030 C.3     1  UNL1        0.0227
      2 C          -2.6366    3.7684   19.6342 C.3     1  UNL1        0.0897
      3 O          -1.6483    5.3616   21.9763 O.2     1  UNL1       -0.2701
      4 C          -1.6677    3.8632   22.0431 C.2     1  UNL1        0.2458
      5 N          -2.1618    3.0666   20.8720 N.am    1  UNL1       -0.3009
      6 H          -2.1745    2.0831   20.9158 H       1  UNL1        0.1497
      7 C          -1.1929    3.1615   23.2808 C.ar    1  UNL1        0.0534
      8 C          -1.9223    3.3521   24.5775 C.ar    1  UNL1        0.0045
      9 C          -1.4476    2.6504   25.8154 C.ar    1  UNL1        0.0002
     10 C          -0.2434    1.7579   25.7564 C.ar    1  UNL1        0.0005
     11 C           0.4860    1.5672   24.4596 C.ar    1  UNL1        0.0002
     12 C           0.0113    2.2690   23.2219 C.ar    1  UNL1        0.0045
     13 C           0.2313    1.0561   26.9942 C.ar    1  UNL1        0.0070
     14 C          -0.6407    0.4458   28.0511 C.ar    1  UNL1        0.0075
     15 C           0.2505   -0.1461   29.1025 C.ar    1  UNL1        0.0355
     16 S           1.6733    0.0985   28.6954 S.2     1  UNL1       -0.0859
     17 C           1.6615    0.8415   27.3924 C.ar    1  UNL1        0.0354
     18 C          -0.6357    3.5476   17.9917 C.3     1  UNL1        0.0191
     19 C           0.7958    3.5483   18.4397 C.3     1  UNL1        0.0723
     20 N           1.4419    2.2711   18.8885 N.3     1  UNL1       -0.2698
     21 C           2.8700    1.9863   18.5289 C.3     1  UNL1        0.0938
     22 C           3.5160    0.7092   18.9777 C.3     1  UNL1        0.1081
     23 N           2.7339   -0.2832   19.7861 N.pl3   1  UNL1       -0.3046
     24 C           1.3058    0.0015   20.1456 C.3     1  UNL1        0.1081
     25 C           0.6598    1.2787   19.6968 C.3     1  UNL1        0.0938
     26 C           3.3800   -1.5605   20.2349 C.ar    1  UNL1        0.0496
     27 C           3.6239   -2.6643   19.2490 C.ar    1  UNL1        0.0260
     28 C           4.2700   -3.9416   19.6978 C.ar    1  UNL1        0.0597
     29 CL          4.5139   -5.0454   18.7120 Cl      1  UNL1       -0.0822
     30 C           4.6721   -4.1148   21.1325 C.ar    1  UNL1        0.0229
     31 C           4.4282   -3.0109   22.1183 C.ar    1  UNL1        0.0597
     32 CL          4.8303   -3.1842   23.5530 Cl      1  UNL1       -0.0822
     33 C           3.7821   -1.7337   21.6695 C.ar    1  UNL1        0.0260
@<TRIPOS>BOND
     1     3     4    2
     2     4     5   am
     3     5     2    1
     4     2     1    1
     5     1    18    1
     6    18    19    1
     7    19    20    1
     8    20    21    1
     9    21    22    1
    10    22    23    1
    11    23    26    1
    12    26    27   ar
    13    27    28   ar
    14    28    29    1
    15    28    30   ar
    16    30    31   ar
    17    31    32    1
    18    31    33   ar
    19    23    24    1
    20    24    25    1
    21     4     7    1
    22     7     8   ar
    23     8     9   ar
    24     9    10   ar
    25    10    13    1
    26    13    14   ar
    27    14    15   ar
    28    15    16   ar
    29    16    17   ar
    30    10    11   ar
    31    11    12   ar
    32    25    20    1
    33    12     7   ar
    34    33    26   ar
    35    17    13   ar
    36     5     6    1
