@<TRIPOS>MOLECULE
*****
 27 30 0 0 0
SMALL
GASTEIGER

@<TRIPOS>ATOM
      1 C         -10.6596  -18.7996   22.9783 C.2     1  UNL1        0.0919
      2 C         -10.2737  -20.1441   23.5199 C.2     1  UNL1        0.0183
      3 C          -8.8659  -20.6386   23.3665 C.2     1  UNL1        0.0511
      4 C          -7.8440  -19.7885   22.6715 C.2     1  UNL1        0.2322
      5 N          -6.3906  -20.0087   22.3731 N.2     1  UNL1       -0.0308
      6 C          -5.8782  -18.8003   21.6470 C.2     1  UNL1        0.3752
      7 N          -7.0149  -17.8332   21.4967 N.2     1  UNL1       -0.0347
      8 C          -8.2299  -18.4440   22.1299 C.2     1  UNL1        0.2191
      9 C          -9.6377  -17.9496   22.2833 C.3     1  UNL1        0.1226
     10 C          -4.4753  -18.5950   21.1572 C.ar    1  UNL1        0.0884
     11 C          -4.0484  -19.1734   19.8407 C.ar    1  UNL1        0.0077
     12 C          -2.6456  -18.9682   19.3509 C.ar    1  UNL1        0.0003
     13 C          -1.6697  -18.1845   20.1775 C.ar    1  UNL1        0.0000
     14 C          -2.0966  -17.6060   21.4940 C.ar    1  UNL1        0.0002
     15 C          -3.4994  -17.8113   21.9838 C.ar    1  UNL1        0.0074
     16 C          -3.9263  -17.2328   23.3003 C.ar    1  UNL1        0.0002
     17 C          -3.5404  -17.9144   24.5795 C.ar    1  UNL1        0.0000
     18 C          -3.9673  -17.3360   25.8960 C.ar    1  UNL1        0.0000
     19 C          -4.7802  -16.0759   25.9333 C.ar    1  UNL1        0.0000
     20 C          -5.1661  -15.3943   24.6541 C.ar    1  UNL1        0.0000
     21 C          -4.7392  -15.9728   23.3376 C.ar    1  UNL1        0.0000
     22 S         -12.0675  -18.3052   23.1317 S.O2    1  UNL1        0.0054
     23 O         -12.1307  -18.0284   21.6588 O.2     1  UNL1       -0.1689
     24 O         -12.0042  -18.5819   24.6046 O.2     1  UNL1       -0.1689
     25 C         -13.4753  -17.8107   23.2851 C.3     1  UNL1        0.1556
     26 C         -15.6758  -18.6343   24.3938 C.3     1  UNL1        0.0019
     27 C         -14.2604  -18.1530   24.5164 C.3     1  UNL1        0.0257
@<TRIPOS>BOND
     1    26    27    1
     2    27    25    1
     3    25    22    1
     4    22    23    2
     5    22    24    2
     6    22     1    1
     7     1     2    2
     8     2     3    1
     9     3     4    2
    10     4     5    1
    11     5     6    2
    12     6    10    1
    13    10    11   ar
    14    11    12   ar
    15    12    13   ar
    16    13    14   ar
    17    14    15   ar
    18    15    16    1
    19    16    17   ar
    20    17    18   ar
    21    18    19   ar
    22    19    20   ar
    23    20    21   ar
    24     6     7    1
    25     7     8    2
    26     8     9    1
    27     9     1    1
    28     8     4    1
    29    15    10   ar
    30    21    16   ar
@<TRIPOS>MOLECULE
*****
 27 30 0 0 0
SMALL
GASTEIGER

@<TRIPOS>ATOM
      1 C         -11.0606  -18.3313   22.4153 C.2     1  UNL1        0.0919
      2 C         -11.0335  -18.4118   20.9177 C.2     1  UNL1        0.0183
      3 C          -9.7232  -18.5250   20.1964 C.2     1  UNL1        0.0511
      4 C          -8.4401  -18.5576   20.9725 C.2     1  UNL1        0.2322
      5 N          -7.0077  -18.6626   20.5399 N.2     1  UNL1       -0.0308
      6 C          -6.1495  -18.6469   21.7701 C.2     1  UNL1        0.3752
      7 N          -7.0516  -18.5323   22.9631 N.2     1  UNL1       -0.0347
      8 C          -8.4672  -18.4771   22.4701 C.2     1  UNL1        0.2191
      9 C          -9.7775  -18.3640   23.1915 C.3     1  UNL1        0.1226
     10 C          -4.6522  -18.7311   21.8018 C.ar    1  UNL1        0.0884
     11 C          -3.9330  -19.6549   20.8640 C.ar    1  UNL1        0.0077
     12 C          -2.4357  -19.7391   20.8956 C.ar    1  UNL1        0.0003
     13 C          -1.6576  -18.8996   21.8650 C.ar    1  UNL1        0.0000
     14 C          -2.3768  -17.9758   22.8027 C.ar    1  UNL1        0.0002
     15 C          -3.8741  -17.8916   22.7711 C.ar    1  UNL1        0.0074
     16 C          -4.5933  -16.9678   23.7089 C.ar    1  UNL1        0.0002
     17 C          -4.3771  -17.0838   25.1886 C.ar    1  UNL1        0.0000
     18 C          -5.0963  -16.1600   26.1264 C.ar    1  UNL1        0.0000
     19 C          -6.0317  -15.1202   25.5844 C.ar    1  UNL1        0.0000
     20 C          -6.2479  -15.0042   24.1046 C.ar    1  UNL1        0.0000
     21 C          -5.5287  -15.9280   23.1669 C.ar    1  UNL1        0.0000
     22 S         -12.3709  -18.2182   23.1367 S.O2    1  UNL1        0.0054
     23 O         -13.0281  -17.7552   21.8703 O.2     1  UNL1       -0.1689
     24 O         -11.7137  -18.6811   24.4030 O.2     1  UNL1       -0.1689
     25 C         -13.6812  -18.1050   23.8580 C.3     1  UNL1        0.1556
     26 C         -15.1221  -18.5476   25.9741 C.3     1  UNL1        0.0019
     27 C         -13.7851  -18.5239   25.2946 C.3     1  UNL1        0.0257
@<TRIPOS>BOND
     1    26    27    1
     2    27    25    1
     3    25    22    1
     4    22    23    2
     5    22    24    2
     6    22     1    1
     7     1     2    2
     8     2     3    1
     9     3     4    2
    10     4     5    1
    11     5     6    2
    12     6    10    1
    13    10    11   ar
    14    11    12   ar
    15    12    13   ar
    16    13    14   ar
    17    14    15   ar
    18    15    16    1
    19    16    17   ar
    20    17    18   ar
    21    18    19   ar
    22    19    20   ar
    23    20    21   ar
    24     6     7    1
    25     7     8    2
    26     8     9    1
    27     9     1    1
    28     8     4    1
    29    15    10   ar
    30    21    16   ar
@<TRIPOS>MOLECULE
*****
 27 30 0 0 0
SMALL
GASTEIGER

@<TRIPOS>ATOM
      1 C         -10.2518  -18.8049   22.6614 C.2     1  UNL1        0.0919
      2 C         -10.4475  -19.1338   21.2111 C.2     1  UNL1        0.0183
      3 C          -9.2671  -19.1811   20.2868 C.2     1  UNL1        0.0511
      4 C          -7.8909  -18.8995   20.8129 C.2     1  UNL1        0.2322
      5 N          -6.5475  -18.8724   20.1461 N.2     1  UNL1       -0.0308
      6 C          -5.5215  -18.5268   21.1843 C.2     1  UNL1        0.3752
      7 N          -6.2308  -18.3403   22.4928 N.2     1  UNL1       -0.0347
      8 C          -7.6952  -18.5706   22.2632 C.2     1  UNL1        0.2191
      9 C          -8.8756  -18.5233   23.1875 C.3     1  UNL1        0.1226
     10 C          -4.0454  -18.3915   20.9544 C.ar    1  UNL1        0.0884
     11 C          -3.4209  -18.9803   19.7242 C.ar    1  UNL1        0.0077
     12 C          -1.9449  -18.8450   19.4942 C.ar    1  UNL1        0.0003
     13 C          -1.0933  -18.1210   20.4944 C.ar    1  UNL1        0.0000
     14 C          -1.7178  -17.5322   21.7246 C.ar    1  UNL1        0.0002
     15 C          -3.1938  -17.6675   21.9546 C.ar    1  UNL1        0.0074
     16 C          -3.8183  -17.0787   23.1848 C.ar    1  UNL1        0.0002
     17 C          -4.6055  -15.8055   23.0903 C.ar    1  UNL1        0.0000
     18 C          -5.2300  -15.2167   24.3205 C.ar    1  UNL1        0.0000
     19 C          -5.0672  -15.9012   25.6452 C.ar    1  UNL1        0.0000
     20 C          -4.2799  -17.1745   25.7397 C.ar    1  UNL1        0.0000
     21 C          -3.6555  -17.7632   24.5095 C.ar    1  UNL1        0.0000
     22 S         -11.4323  -18.7577   23.5857 S.O2    1  UNL1        0.0054
     23 O         -10.7568  -19.7377   24.4985 O.2     1  UNL1       -0.1689
     24 O         -12.1077  -17.7776   22.6729 O.2     1  UNL1       -0.1689
     25 C         -12.6127  -18.7104   24.5100 C.3     1  UNL1        0.1556
     26 C         -15.2019  -18.4975   24.5386 C.3     1  UNL1        0.0019
     27 C         -13.8616  -17.9904   24.0953 C.3     1  UNL1        0.0257
@<TRIPOS>BOND
     1    26    27    1
     2    27    25    1
     3    25    22    1
     4    22    23    2
     5    22    24    2
     6    22     1    1
     7     1     2    2
     8     2     3    1
     9     3     4    2
    10     4     5    1
    11     5     6    2
    12     6    10    1
    13    10    11   ar
    14    11    12   ar
    15    12    13   ar
    16    13    14   ar
    17    14    15   ar
    18    15    16    1
    19    16    17   ar
    20    17    18   ar
    21    18    19   ar
    22    19    20   ar
    23    20    21   ar
    24     6     7    1
    25     7     8    2
    26     8     9    1
    27     9     1    1
    28     8     4    1
    29    15    10   ar
    30    21    16   ar
@<TRIPOS>MOLECULE
*****
 27 30 0 0 0
SMALL
GASTEIGER

@<TRIPOS>ATOM
      1 C           7.5066   -3.7499   24.8903 C.2     1  UNL1        0.0919
      2 C           8.1387   -2.3919   24.9692 C.2     1  UNL1        0.0183
      3 C           7.4303   -1.2004   24.3961 C.2     1  UNL1        0.0511
      4 C           6.0897   -1.3669   23.7441 C.2     1  UNL1        0.2322
      5 N           5.1599   -0.3845   23.0958 N.2     1  UNL1       -0.0308
      6 C           3.9532   -1.1353   22.6162 C.2     1  UNL1        0.3752
      7 N           4.1371   -2.5818   22.9680 N.2     1  UNL1       -0.0347
      8 C           5.4576   -2.7249   23.6652 C.2     1  UNL1        0.2191
      9 C           6.1661   -3.9164   24.2382 C.3     1  UNL1        0.1226
     10 C           2.7701   -0.5435   21.9088 C.ar    1  UNL1        0.0884
     11 C           1.8071    0.3286   22.6586 C.ar    1  UNL1        0.0077
     12 C           0.6242    0.9204   21.9513 C.ar    1  UNL1        0.0003
     13 C           0.4042    0.6402   20.4943 C.ar    1  UNL1        0.0000
     14 C           1.3672   -0.2319   19.7445 C.ar    1  UNL1        0.0002
     15 C           2.5501   -0.8237   20.4518 C.ar    1  UNL1        0.0074
     16 C           3.5131   -1.6957   19.7020 C.ar    1  UNL1        0.0002
     17 C           3.2720   -3.1734   19.6105 C.ar    1  UNL1        0.0000
     18 C           4.2350   -4.0454   18.8607 C.ar    1  UNL1        0.0000
     19 C           5.4391   -3.4398   18.2024 C.ar    1  UNL1        0.0000
     20 C           5.6802   -1.9622   18.2939 C.ar    1  UNL1        0.0000
     21 C           4.7172   -1.0902   19.0437 C.ar    1  UNL1        0.0000
     22 S           8.2151   -4.9414   25.4633 S.O2    1  UNL1        0.0054
     23 O           9.5360   -4.3320   25.0973 O.2     1  UNL1       -0.1689
     24 O           6.8942   -5.5507   25.8293 O.2     1  UNL1       -0.1689
     25 C           8.9236   -6.1329   26.0364 C.3     1  UNL1        0.1556
     26 C           9.2996   -7.6790   23.9826 C.3     1  UNL1        0.0019
     27 C           8.7888   -7.4738   25.3780 C.3     1  UNL1        0.0257
@<TRIPOS>BOND
     1    26    27    1
     2    27    25    1
     3    25    22    1
     4    22    23    2
     5    22    24    2
     6    22     1    1
     7     1     2    2
     8     2     3    1
     9     3     4    2
    10     4     5    1
    11     5     6    2
    12     6    10    1
    13    10    11   ar
    14    11    12   ar
    15    12    13   ar
    16    13    14   ar
    17    14    15   ar
    18    15    16    1
    19    16    17   ar
    20    17    18   ar
    21    18    19   ar
    22    19    20   ar
    23    20    21   ar
    24     6     7    1
    25     7     8    2
    26     8     9    1
    27     9     1    1
    28     8     4    1
    29    15    10   ar
    30    21    16   ar
@<TRIPOS>MOLECULE
*****
 27 30 0 0 0
SMALL
GASTEIGER

@<TRIPOS>ATOM
      1 C           6.3857   -4.0849   24.6290 C.2     1  UNL1        0.0919
      2 C           6.2040   -2.9188   25.5548 C.2     1  UNL1        0.0183
      3 C           5.3815   -1.7405   25.1245 C.2     1  UNL1        0.0511
      4 C           4.7407   -1.7283   23.7684 C.2     1  UNL1        0.2322
      5 N           3.8810   -0.7143   23.0736 N.2     1  UNL1       -0.0308
      6 C           3.5314   -1.2537   21.7183 C.2     1  UNL1        0.3752
      7 N           4.1749   -2.6011   21.5755 N.2     1  UNL1       -0.0347
      8 C           4.9223   -2.8944   22.8426 C.2     1  UNL1        0.2191
      9 C           5.7448   -4.0727   23.2728 C.3     1  UNL1        0.1226
     10 C           2.6865   -0.5663   20.6869 C.ar    1  UNL1        0.0884
     11 C           1.2819   -0.1578   21.0190 C.ar    1  UNL1        0.0077
     12 C           0.4370    0.5295   19.9877 C.ar    1  UNL1        0.0003
     13 C           0.9967    0.8083   18.6242 C.ar    1  UNL1        0.0000
     14 C           2.4012    0.3998   18.2921 C.ar    1  UNL1        0.0002
     15 C           3.2461   -0.2876   19.3234 C.ar    1  UNL1        0.0074
     16 C           4.6507   -0.6961   18.9913 C.ar    1  UNL1        0.0002
     17 C           4.9060   -1.9875   18.2723 C.ar    1  UNL1        0.0000
     18 C           6.3106   -2.3961   17.9402 C.ar    1  UNL1        0.0000
     19 C           7.4598   -1.5132   18.3271 C.ar    1  UNL1        0.0000
     20 C           7.2045   -0.2218   19.0461 C.ar    1  UNL1        0.0000
     21 C           5.7999    0.1868   19.3782 C.ar    1  UNL1        0.0000
     22 S           7.2082   -5.2632   25.0592 S.O2    1  UNL1        0.0054
     23 O           6.8936   -4.9589   26.4939 O.2     1  UNL1       -0.1689
     24 O           7.5228   -5.5674   23.6245 O.2     1  UNL1       -0.1689
     25 C           8.0307   -6.4414   25.4895 C.3     1  UNL1        0.1556
     26 C           8.0634   -8.4848   27.0938 C.3     1  UNL1        0.0019
     27 C           7.3603   -7.6559   26.0600 C.3     1  UNL1        0.0257
@<TRIPOS>BOND
     1    26    27    1
     2    27    25    1
     3    25    22    1
     4    22    23    2
     5    22    24    2
     6    22     1    1
     7     1     2    2
     8     2     3    1
     9     3     4    2
    10     4     5    1
    11     5     6    2
    12     6    10    1
    13    10    11   ar
    14    11    12   ar
    15    12    13   ar
    16    13    14   ar
    17    14    15   ar
    18    15    16    1
    19    16    17   ar
    20    17    18   ar
    21    18    19   ar
    22    19    20   ar
    23    20    21   ar
    24     6     7    1
    25     7     8    2
    26     8     9    1
    27     9     1    1
    28     8     4    1
    29    15    10   ar
    30    21    16   ar
@<TRIPOS>MOLECULE
*****
 27 30 0 0 0
SMALL
GASTEIGER

@<TRIPOS>ATOM
      1 C         -11.7071  -17.6727   23.3134 C.2     1  UNL1        0.0919
      2 C         -11.4048  -16.3583   22.6569 C.2     1  UNL1        0.0183
      3 C         -10.0538  -16.1151   22.0522 C.2     1  UNL1        0.0511
      4 C          -9.0051  -17.1863   22.1040 C.2     1  UNL1        0.2322
      5 N          -7.5941  -17.2348   21.5975 N.2     1  UNL1       -0.0308
      6 C          -7.0242  -18.5792   21.9410 C.2     1  UNL1        0.3752
      7 N          -8.0831  -19.3615   22.6597 N.2     1  UNL1       -0.0347
      8 C          -9.3074  -18.5006   22.7605 C.2     1  UNL1        0.2191
      9 C         -10.6583  -18.7438   23.3652 C.3     1  UNL1        0.1226
     10 C          -5.6387  -19.0572   21.6217 C.ar    1  UNL1        0.0884
     11 C          -4.4791  -18.6108   22.4619 C.ar    1  UNL1        0.0077
     12 C          -3.0936  -19.0888   22.1427 C.ar    1  UNL1        0.0003
     13 C          -2.8677  -20.0132   20.9832 C.ar    1  UNL1        0.0000
     14 C          -4.0273  -20.4596   20.1430 C.ar    1  UNL1        0.0002
     15 C          -5.4128  -19.9816   20.4622 C.ar    1  UNL1        0.0074
     16 C          -6.5724  -20.4280   19.6219 C.ar    1  UNL1        0.0002
     17 C          -6.6398  -21.8425   19.1275 C.ar    1  UNL1        0.0000
     18 C          -7.7994  -22.2889   18.2873 C.ar    1  UNL1        0.0000
     19 C          -8.8916  -21.3208   17.9414 C.ar    1  UNL1        0.0000
     20 C          -8.8242  -19.9062   18.4358 C.ar    1  UNL1        0.0000
     21 C          -7.6646  -19.4598   19.2761 C.ar    1  UNL1        0.0000
     22 S         -13.0581  -17.9159   23.9182 S.O2    1  UNL1        0.0054
     23 O         -13.6216  -16.7808   23.1157 O.2     1  UNL1       -0.1689
     24 O         -12.4945  -19.0510   24.7206 O.2     1  UNL1       -0.1689
     25 C         -14.4090  -18.1591   24.5229 C.3     1  UNL1        0.1556
     26 C         -14.7355  -17.8722   27.0843 C.3     1  UNL1        0.0019
     27 C         -14.5204  -18.7584   25.8934 C.3     1  UNL1        0.0257
@<TRIPOS>BOND
     1    26    27    1
     2    27    25    1
     3    25    22    1
     4    22    23    2
     5    22    24    2
     6    22     1    1
     7     1     2    2
     8     2     3    1
     9     3     4    2
    10     4     5    1
    11     5     6    2
    12     6    10    1
    13    10    11   ar
    14    11    12   ar
    15    12    13   ar
    16    13    14   ar
    17    14    15   ar
    18    15    16    1
    19    16    17   ar
    20    17    18   ar
    21    18    19   ar
    22    19    20   ar
    23    20    21   ar
    24     6     7    1
    25     7     8    2
    26     8     9    1
    27     9     1    1
    28     8     4    1
    29    15    10   ar
    30    21    16   ar
@<TRIPOS>MOLECULE
*****
 27 30 0 0 0
SMALL
GASTEIGER

@<TRIPOS>ATOM
      1 C           6.3113   -2.4680   19.2214 C.2     1  UNL1        0.0919
      2 C           7.7894   -2.3903   18.9783 C.2     1  UNL1        0.0183
      3 C           8.7426   -3.0357   19.9400 C.2     1  UNL1        0.0511
      4 C           8.2177   -3.7587   21.1448 C.2     1  UNL1        0.2322
      5 N           8.9096   -4.4861   22.2593 N.2     1  UNL1       -0.0308
      6 C           7.8591   -5.0134   23.1913 C.2     1  UNL1        0.3752
      7 N           6.5180   -4.6119   22.6527 N.2     1  UNL1       -0.0347
      8 C           6.7396   -3.8364   21.3879 C.2     1  UNL1        0.2191
      9 C           5.7864   -3.1910   20.4262 C.3     1  UNL1        0.1226
     10 C           8.1064   -5.8035   24.4422 C.ar    1  UNL1        0.0884
     11 C           8.3055   -7.2882   24.3644 C.ar    1  UNL1        0.0077
     12 C           8.5528   -8.0783   25.6152 C.ar    1  UNL1        0.0003
     13 C           8.6010   -7.3837   26.9437 C.ar    1  UNL1        0.0000
     14 C           8.4020   -5.8990   27.0215 C.ar    1  UNL1        0.0002
     15 C           8.1547   -5.1089   25.7707 C.ar    1  UNL1        0.0074
     16 C           7.9557   -3.6242   25.8485 C.ar    1  UNL1        0.0002
     17 C           6.5777   -3.0608   26.0316 C.ar    1  UNL1        0.0000
     18 C           6.3786   -1.5761   26.1094 C.ar    1  UNL1        0.0000
     19 C           7.5576   -0.6548   26.0041 C.ar    1  UNL1        0.0000
     20 C           8.9357   -1.2182   25.8210 C.ar    1  UNL1        0.0000
     21 C           9.1347   -2.7029   25.7432 C.ar    1  UNL1        0.0000
     22 S           5.3581   -1.8226   18.2597 S.O2    1  UNL1        0.0054
     23 O           6.4717   -1.6541   17.2690 O.2     1  UNL1       -0.1689
     24 O           4.2445   -1.9910   19.2504 O.2     1  UNL1       -0.1689
     25 C           4.4049   -1.1772   17.2980 C.3     1  UNL1        0.1556
     26 C           4.0058    1.2642   18.0920 C.3     1  UNL1        0.0019
     27 C           3.4737   -0.1015   17.7731 C.3     1  UNL1        0.0257
@<TRIPOS>BOND
     1    26    27    1
     2    27    25    1
     3    25    22    1
     4    22    23    2
     5    22    24    2
     6    22     1    1
     7     1     2    2
     8     2     3    1
     9     3     4    2
    10     4     5    1
    11     5     6    2
    12     6    10    1
    13    10    11   ar
    14    11    12   ar
    15    12    13   ar
    16    13    14   ar
    17    14    15   ar
    18    15    16    1
    19    16    17   ar
    20    17    18   ar
    21    18    19   ar
    22    19    20   ar
    23    20    21   ar
    24     6     7    1
    25     7     8    2
    26     8     9    1
    27     9     1    1
    28     8     4    1
    29    15    10   ar
    30    21    16   ar
@<TRIPOS>MOLECULE
*****
 27 30 0 0 0
SMALL
GASTEIGER

@<TRIPOS>ATOM
      1 C           3.5367   -0.5506   18.8962 C.2     1  UNL1        0.0919
      2 C           3.8942    0.7390   18.2186 C.2     1  UNL1        0.0183
      3 C           3.0397    1.9550   18.4216 C.2     1  UNL1        0.0511
      4 C           1.8277    1.8814   19.3022 C.2     1  UNL1        0.2322
      5 N           0.8034    2.9071   19.6879 N.2     1  UNL1       -0.0308
      6 C          -0.1871    2.2515   20.6039 C.2     1  UNL1        0.3752
      7 N           0.2250    0.8205   20.7844 N.2     1  UNL1       -0.0347
      8 C           1.4702    0.5918   19.9799 C.2     1  UNL1        0.2191
      9 C           2.3247   -0.6241   19.7768 C.3     1  UNL1        0.1226
     10 C          -1.3803    2.9111   21.2296 C.ar    1  UNL1        0.0884
     11 C          -2.6258    3.1289   20.4227 C.ar    1  UNL1        0.0077
     12 C          -3.8189    3.7885   21.0483 C.ar    1  UNL1        0.0003
     13 C          -3.7665    4.2301   22.4808 C.ar    1  UNL1        0.0000
     14 C          -2.5209    4.0123   23.2877 C.ar    1  UNL1        0.0002
     15 C          -1.3278    3.3527   22.6621 C.ar    1  UNL1        0.0074
     16 C          -0.0822    3.1349   23.4690 C.ar    1  UNL1        0.0002
     17 C           0.0628    1.8983   24.3055 C.ar    1  UNL1        0.0000
     18 C           1.3084    1.6804   25.1124 C.ar    1  UNL1        0.0000
     19 C           2.4090    2.6992   25.0828 C.ar    1  UNL1        0.0000
     20 C           2.2639    3.9357   24.2463 C.ar    1  UNL1        0.0000
     21 C           1.0184    4.1536   23.4394 C.ar    1  UNL1        0.0000
     22 S           4.3912   -1.7665   18.6931 S.O2    1  UNL1        0.0054
     23 O           4.6353   -1.8419   20.1712 O.2     1  UNL1       -0.1689
     24 O           4.1472   -1.6912   17.2150 O.2     1  UNL1       -0.1689
     25 C           5.2458   -2.9825   18.4901 C.3     1  UNL1        0.1556
     26 C           3.2331   -4.5017   19.1154 C.3     1  UNL1        0.0019
     27 C           4.6703   -4.3495   18.7139 C.3     1  UNL1        0.0257
@<TRIPOS>BOND
     1    26    27    1
     2    27    25    1
     3    25    22    1
     4    22    23    2
     5    22    24    2
     6    22     1    1
     7     1     2    2
     8     2     3    1
     9     3     4    2
    10     4     5    1
    11     5     6    2
    12     6    10    1
    13    10    11   ar
    14    11    12   ar
    15    12    13   ar
    16    13    14   ar
    17    14    15   ar
    18    15    16    1
    19    16    17   ar
    20    17    18   ar
    21    18    19   ar
    22    19    20   ar
    23    20    21   ar
    24     6     7    1
    25     7     8    2
    26     8     9    1
    27     9     1    1
    28     8     4    1
    29    15    10   ar
    30    21    16   ar
@<TRIPOS>MOLECULE
*****
 27 30 0 0 0
SMALL
GASTEIGER

@<TRIPOS>ATOM
      1 C           1.8497    1.3549   25.5509 C.2     1  UNL1        0.0919
      2 C           3.1444    2.1067   25.6430 C.2     1  UNL1        0.0183
      3 C           4.2212    1.8735   24.6251 C.2     1  UNL1        0.0511
      4 C           4.0032    0.8886   23.5149 C.2     1  UNL1        0.2322
      5 N           4.8748    0.4521   22.3749 N.2     1  UNL1       -0.0308
      6 C           4.1188   -0.5695   21.5781 C.2     1  UNL1        0.3752
      7 N           2.7799   -0.7643   22.2257 N.2     1  UNL1       -0.0347
      8 C           2.7085    0.1369   23.4228 C.2     1  UNL1        0.2191
      9 C           1.6317    0.3700   24.4407 C.3     1  UNL1        0.1226
     10 C           4.6146   -1.2727   20.3494 C.ar    1  UNL1        0.0884
     11 C           5.5194   -2.4620   20.4796 C.ar    1  UNL1        0.0077
     12 C           6.0153   -3.1653   19.2510 C.ar    1  UNL1        0.0003
     13 C           5.6064   -2.6792   17.8922 C.ar    1  UNL1        0.0000
     14 C           4.7016   -1.4899   17.7620 C.ar    1  UNL1        0.0002
     15 C           4.2057   -0.7866   18.9906 C.ar    1  UNL1        0.0074
     16 C           3.3010    0.4027   18.8603 C.ar    1  UNL1        0.0002
     17 C           3.8811    1.7852   18.8173 C.ar    1  UNL1        0.0000
     18 C           2.9763    2.9745   18.6871 C.ar    1  UNL1        0.0000
     19 C           1.4914    2.7813   18.5999 C.ar    1  UNL1        0.0000
     20 C           0.9113    1.3987   18.6429 C.ar    1  UNL1        0.0000
     21 C           1.8161    0.2094   18.7731 C.ar    1  UNL1        0.0000
     22 S           0.7729    1.5881   26.5688 S.O2    1  UNL1        0.0054
     23 O          -0.2650    1.1878   25.5626 O.2     1  UNL1       -0.1689
     24 O           1.8109    1.9883   27.5750 O.2     1  UNL1       -0.1689
     25 C          -0.3038    1.8212   27.5868 C.3     1  UNL1        0.1556
     26 C          -1.3392   -0.2683   28.7322 C.3     1  UNL1        0.0019
     27 C          -0.4194    0.9158   28.7770 C.3     1  UNL1        0.0257
@<TRIPOS>BOND
     1    26    27    1
     2    27    25    1
     3    25    22    1
     4    22    23    2
     5    22    24    2
     6    22     1    1
     7     1     2    2
     8     2     3    1
     9     3     4    2
    10     4     5    1
    11     5     6    2
    12     6    10    1
    13    10    11   ar
    14    11    12   ar
    15    12    13   ar
    16    13    14   ar
    17    14    15   ar
    18    15    16    1
    19    16    17   ar
    20    17    18   ar
    21    18    19   ar
    22    19    20   ar
    23    20    21   ar
    24     6     7    1
    25     7     8    2
    26     8     9    1
    27     9     1    1
    28     8     4    1
    29    15    10   ar
    30    21    16   ar
