@<TRIPOS>MOLECULE
*****
 29 32 0 0 0
SMALL
GASTEIGER

@<TRIPOS>ATOM
      1 C          -5.3656  -18.2540   22.3530 C.ar    1  UNL1        0.0515
      2 C          -6.1845  -19.4746   22.0538 C.ar    1  UNL1        0.0160
      3 C          -7.6466  -19.4973   22.3879 C.ar    1  UNL1        0.0175
      4 C          -8.2899  -18.2993   23.0212 C.ar    1  UNL1        0.0718
      5 C          -7.4711  -17.0787   23.3204 C.ar    1  UNL1        0.0730
      6 CL         -8.1144  -15.8807   23.9537 Cl      1  UNL1       -0.0809
      7 C          -6.0089  -17.0561   22.9863 C.ar    1  UNL1        0.0273
      8 N          -9.7521  -18.3220   23.3553 N.am    1  UNL1       -0.2002
      9 C         -10.3438  -18.5980   24.7057 C.2     1  UNL1        0.2590
     10 O          -9.5772  -18.8999   25.9592 O.2     1  UNL1       -0.2691
     11 C         -11.8366  -18.5193   24.5827 C.ar    1  UNL1        0.0609
     12 C         -12.9374  -18.7013   25.5852 C.ar    1  UNL1        0.0048
     13 C         -14.3691  -18.5585   25.1613 C.ar    1  UNL1        0.0025
     14 C         -14.7001  -18.2338   23.7348 C.ar    1  UNL1        0.0298
     15 C         -13.5993  -18.0518   22.7322 C.ar    1  UNL1        0.1446
     16 F         -13.9303  -17.7271   21.3056 F       1  UNL1       -0.2040
     17 C         -12.1676  -18.1945   23.1561 C.ar    1  UNL1        0.0861
     18 C         -10.8793  -18.0726   22.3976 C.2     1  UNL1        0.2611
     19 O         -10.7423  -17.7568   20.9376 O.2     1  UNL1       -0.2691
     20 C          -3.4595  -18.3170   20.5887 C.2     1  UNL1        0.2839
     21 O          -4.4778  -18.4253   19.4925 O.2     1  UNL1       -0.2665
     22 N          -3.9035  -18.2313   22.0189 N.am    1  UNL1       -0.2778
     23 H          -3.2352  -18.1602   22.7384 H       1  UNL1        0.1553
     24 C          -2.1534  -17.3512   17.7584 C.3     1  UNL1        0.0345
     25 C          -1.3970  -17.8504   18.9536 C.ar    1  UNL1        0.0204
     26 C           0.0925  -17.9933   19.0578 C.ar    1  UNL1        0.0396
     27 C           0.4128  -18.5255   20.4232 C.ar    1  UNL1        0.1795
     28 O          -0.8789  -18.7116   21.1628 O.2     1  UNL1       -0.4461
     29 C          -1.9974  -18.2943   20.2546 C.ar    1  UNL1        0.1948
@<TRIPOS>BOND
     1    24    25    1
     2    25    26   ar
     3    26    27   ar
     4    27    28   ar
     5    28    29   ar
     6    29    20    1
     7    20    21    2
     8    20    22   am
     9    22     1    1
    10     1     2   ar
    11     2     3   ar
    12     3     4   ar
    13     4     8    1
    14     8     9   am
    15     9    10    2
    16     9    11    1
    17    11    12   ar
    18    12    13   ar
    19    13    14   ar
    20    14    15   ar
    21    15    16    1
    22    15    17   ar
    23    17    18    1
    24    18    19    2
    25     4     5   ar
    26     5     6    1
    27     5     7   ar
    28    29    25   ar
    29     7     1   ar
    30    18     8   am
    31    17    11   ar
    32    22    23    1
@<TRIPOS>MOLECULE
*****
 29 32 0 0 0
SMALL
GASTEIGER

@<TRIPOS>ATOM
      1 C           6.6332   -4.0642   28.9546 C.ar    1  UNL1        0.0515
      2 C           6.8718   -4.7394   30.2725 C.ar    1  UNL1        0.0160
      3 C           6.7335   -3.9634   31.5487 C.ar    1  UNL1        0.0175
      4 C           6.3566   -2.5122   31.5069 C.ar    1  UNL1        0.0718
      5 C           6.1180   -1.8369   30.1889 C.ar    1  UNL1        0.0730
      6 CL          5.7411   -0.3856   30.1471 Cl      1  UNL1       -0.0809
      7 C           6.2563   -2.6130   28.9128 C.ar    1  UNL1        0.0273
      8 N           6.2183   -1.7361   32.7831 N.am    1  UNL1       -0.2002
      9 C           5.0296   -1.7481   33.6979 C.2     1  UNL1        0.2590
     10 O           3.7705   -2.5382   33.4971 O.2     1  UNL1       -0.2691
     11 C           5.3211   -0.8312   34.8487 C.ar    1  UNL1        0.0609
     12 C           4.5169   -0.4485   36.0557 C.ar    1  UNL1        0.0048
     13 C           5.0816    0.5129   37.0591 C.ar    1  UNL1        0.0025
     14 C           6.4504    1.0915   36.8556 C.ar    1  UNL1        0.0298
     15 C           7.2546    0.7088   35.6486 C.ar    1  UNL1        0.1446
     16 F           8.6235    1.2874   35.4451 F       1  UNL1       -0.2040
     17 C           6.6899   -0.2526   34.6452 C.ar    1  UNL1        0.0861
     18 C           7.2444   -0.8119   33.3686 C.2     1  UNL1        0.2611
     19 O           8.5891   -0.5014   32.7807 O.2     1  UNL1       -0.2691
     20 C           8.0990   -4.9108   26.9836 C.2     1  UNL1        0.2839
     21 O           9.2883   -4.2053   27.5650 O.2     1  UNL1       -0.2665
     22 N           6.7715   -4.8403   27.6784 N.am    1  UNL1       -0.2778
     23 H           5.9910   -5.3033   27.2968 H       1  UNL1        0.1553
     24 C           7.7826   -8.1427   26.6600 C.3     1  UNL1        0.0345
     25 C           8.0918   -7.1724   25.5587 C.ar    1  UNL1        0.0204
     26 C           8.3100   -7.5173   24.1152 C.ar    1  UNL1        0.0396
     27 C           8.5902   -6.2449   23.3719 C.ar    1  UNL1        0.1795
     28 O           8.5453   -5.1137   24.3559 O.2     1  UNL1       -0.4461
     29 C           8.2373   -5.6869   25.7074 C.ar    1  UNL1        0.1948
@<TRIPOS>BOND
     1    24    25    1
     2    25    26   ar
     3    26    27   ar
     4    27    28   ar
     5    28    29   ar
     6    29    20    1
     7    20    21    2
     8    20    22   am
     9    22     1    1
    10     1     2   ar
    11     2     3   ar
    12     3     4   ar
    13     4     8    1
    14     8     9   am
    15     9    10    2
    16     9    11    1
    17    11    12   ar
    18    12    13   ar
    19    13    14   ar
    20    14    15   ar
    21    15    16    1
    22    15    17   ar
    23    17    18    1
    24    18    19    2
    25     4     5   ar
    26     5     6    1
    27     5     7   ar
    28    29    25   ar
    29     7     1   ar
    30    18     8   am
    31    17    11   ar
    32    22    23    1
@<TRIPOS>MOLECULE
*****
 29 32 0 0 0
SMALL
GASTEIGER

@<TRIPOS>ATOM
      1 C           6.5191   -2.5000   31.9541 C.ar    1  UNL1        0.0515
      2 C           5.1155   -2.6935   32.4463 C.ar    1  UNL1        0.0160
      3 C           4.5541   -1.7760   33.4919 C.ar    1  UNL1        0.0175
      4 C           5.3964   -0.6651   34.0452 C.ar    1  UNL1        0.0718
      5 C           6.8001   -0.4716   33.5531 C.ar    1  UNL1        0.0730
      6 CL          7.6425    0.6394   34.1064 Cl      1  UNL1       -0.0809
      7 C           7.3614   -1.3890   32.5075 C.ar    1  UNL1        0.0273
      8 N           4.8351    0.2524   35.0908 N.am    1  UNL1       -0.2002
      9 C           5.2585    0.3145   36.5285 C.2     1  UNL1        0.2590
     10 O           6.3175   -0.5298   37.1730 O.2     1  UNL1       -0.2691
     11 C           4.4369    1.3693   37.2085 C.ar    1  UNL1        0.0609
     12 C           4.4163    1.8690   38.6226 C.ar    1  UNL1        0.0048
     13 C           3.4646    2.9584   39.0194 C.ar    1  UNL1        0.0025
     14 C           2.5334    3.5481   38.0019 C.ar    1  UNL1        0.0298
     15 C           2.5540    3.0485   36.5878 C.ar    1  UNL1        0.1446
     16 F           1.6228    3.6382   35.5704 F       1  UNL1       -0.2040
     17 C           3.5057    1.9591   36.1910 C.ar    1  UNL1        0.0861
     18 C           3.7518    1.2687   34.8823 C.2     1  UNL1        0.2611
     19 O           3.0397    1.5461   33.5916 O.2     1  UNL1       -0.2691
     20 C           7.0998   -4.8989   31.1429 C.2     1  UNL1        0.2839
     21 O           6.5578   -5.4629   32.4228 O.2     1  UNL1       -0.2665
     22 N           7.0805   -3.4174   30.9086 N.am    1  UNL1       -0.2778
     23 H           7.4362   -3.0473   30.0685 H       1  UNL1        0.1553
     24 C           9.5347   -7.0296   31.5679 C.3     1  UNL1        0.0345
     25 C           8.7804   -6.7957   30.2928 C.ar    1  UNL1        0.0204
     26 C           9.0128   -7.5002   28.9890 C.ar    1  UNL1        0.0396
     27 C           8.0372   -6.9561   27.9878 C.ar    1  UNL1        0.1795
     28 O           7.2019   -5.9155   28.6728 O.2     1  UNL1       -0.4461
     29 C           7.6612   -5.8163   30.0973 C.ar    1  UNL1        0.1948
@<TRIPOS>BOND
     1    24    25    1
     2    25    26   ar
     3    26    27   ar
     4    27    28   ar
     5    28    29   ar
     6    29    20    1
     7    20    21    2
     8    20    22   am
     9    22     1    1
    10     1     2   ar
    11     2     3   ar
    12     3     4   ar
    13     4     8    1
    14     8     9   am
    15     9    10    2
    16     9    11    1
    17    11    12   ar
    18    12    13   ar
    19    13    14   ar
    20    14    15   ar
    21    15    16    1
    22    15    17   ar
    23    17    18    1
    24    18    19    2
    25     4     5   ar
    26     5     6    1
    27     5     7   ar
    28    29    25   ar
    29     7     1   ar
    30    18     8   am
    31    17    11   ar
    32    22    23    1
@<TRIPOS>MOLECULE
*****
 29 32 0 0 0
SMALL
GASTEIGER

@<TRIPOS>ATOM
      1 C           5.2105   -0.9615   34.6108 C.ar    1  UNL1        0.0515
      2 C           4.2575   -1.9288   33.9736 C.ar    1  UNL1        0.0160
      3 C           4.6719   -2.6958   32.7529 C.ar    1  UNL1        0.0175
      4 C           6.0391   -2.4955   32.1695 C.ar    1  UNL1        0.0718
      5 C           6.9921   -1.5281   32.8068 C.ar    1  UNL1        0.0730
      6 CL          8.3594   -1.3277   32.2234 Cl      1  UNL1       -0.0809
      7 C           6.5777   -0.7612   34.0274 C.ar    1  UNL1        0.0273
      8 N           6.4535   -3.2624   30.9488 N.am    1  UNL1       -0.2002
      9 C           6.8117   -4.7182   30.9016 C.2     1  UNL1        0.2590
     10 O           6.8185   -5.6627   32.0669 O.2     1  UNL1       -0.2691
     11 C           7.1620   -5.0638   29.4846 C.ar    1  UNL1        0.0609
     12 C           7.5917   -6.3492   28.8418 C.ar    1  UNL1        0.0048
     13 C           7.8796   -6.3922   27.3704 C.ar    1  UNL1        0.0025
     14 C           7.7378   -5.1499   26.5417 C.ar    1  UNL1        0.0298
     15 C           7.3081   -3.8646   27.1845 C.ar    1  UNL1        0.1446
     16 F           7.1663   -2.6223   26.3559 F       1  UNL1       -0.2040
     17 C           7.0202   -3.8216   28.6560 C.ar    1  UNL1        0.0861
     18 C           6.5823   -2.7083   29.5609 C.2     1  UNL1        0.2611
     19 O           6.3194   -1.2898   29.1500 O.2     1  UNL1       -0.2691
     20 C           3.9706    1.0499   35.6910 C.2     1  UNL1        0.2839
     21 O           3.5593    1.5274   34.3298 O.2     1  UNL1       -0.2665
     22 N           4.7961   -0.1946   35.8315 N.am    1  UNL1       -0.2778
     23 H           5.0660   -0.5079   36.7249 H       1  UNL1        0.1553
     24 C           5.9738    2.2877   37.9504 C.3     1  UNL1        0.0345
     25 C           4.4771    2.3858   37.9502 C.ar    1  UNL1        0.0204
     26 C           3.6382    3.0701   38.9886 C.ar    1  UNL1        0.0396
     27 C           2.1990    2.9241   38.5918 C.ar    1  UNL1        0.1795
     28 O           2.1484    2.1495   37.3083 O.2     1  UNL1       -0.4461
     29 C           3.5562    1.8168   36.9117 C.ar    1  UNL1        0.1948
@<TRIPOS>BOND
     1    24    25    1
     2    25    26   ar
     3    26    27   ar
     4    27    28   ar
     5    28    29   ar
     6    29    20    1
     7    20    21    2
     8    20    22   am
     9    22     1    1
    10     1     2   ar
    11     2     3   ar
    12     3     4   ar
    13     4     8    1
    14     8     9   am
    15     9    10    2
    16     9    11    1
    17    11    12   ar
    18    12    13   ar
    19    13    14   ar
    20    14    15   ar
    21    15    16    1
    22    15    17   ar
    23    17    18    1
    24    18    19    2
    25     4     5   ar
    26     5     6    1
    27     5     7   ar
    28    29    25   ar
    29     7     1   ar
    30    18     8   am
    31    17    11   ar
    32    22    23    1
@<TRIPOS>MOLECULE
*****
 29 32 0 0 0
SMALL
GASTEIGER

@<TRIPOS>ATOM
      1 C          -1.9132    3.6987   21.6197 C.ar    1  UNL1        0.0515
      2 C          -0.9163    2.9524   22.4557 C.ar    1  UNL1        0.0160
      3 C           0.2590    2.2856   21.8046 C.ar    1  UNL1        0.0175
      4 C           0.4374    2.3651   20.3174 C.ar    1  UNL1        0.0718
      5 C          -0.5595    3.1115   19.4813 C.ar    1  UNL1        0.0730
      6 CL         -0.3812    3.1911   17.9941 Cl      1  UNL1       -0.0809
      7 C          -1.7348    3.7783   20.1325 C.ar    1  UNL1        0.0273
      8 N           1.6127    1.6983   19.6662 N.am    1  UNL1       -0.2002
      9 C           2.7560    2.3928   18.9875 C.2     1  UNL1        0.2590
     10 O           2.9247    3.8760   18.8408 O.2     1  UNL1       -0.2691
     11 C           3.7010    1.3436   18.4813 C.ar    1  UNL1        0.0609
     12 C           4.9984    1.4376   17.7345 C.ar    1  UNL1        0.0048
     13 C           5.7366    0.1887   17.3535 C.ar    1  UNL1        0.0025
     14 C           5.1774   -1.1542   17.7193 C.ar    1  UNL1        0.0298
     15 C           3.8800   -1.2482   18.4661 C.ar    1  UNL1        0.1446
     16 F           3.3208   -2.5911   18.8320 F       1  UNL1       -0.2040
     17 C           3.1418    0.0007   18.8471 C.ar    1  UNL1        0.0861
     18 C           1.8512    0.2199   19.5795 C.2     1  UNL1        0.2611
     19 O           0.9562   -0.8512   20.1286 O.2     1  UNL1       -0.2691
     20 C          -4.4452    3.7295   22.2011 C.2     1  UNL1        0.2839
     21 O          -4.6266    2.4267   21.4801 O.2     1  UNL1       -0.2665
     22 N          -3.0885    4.3655   22.2708 N.am    1  UNL1       -0.2778
     23 H          -2.9695    5.2206   22.7440 H       1  UNL1        0.1553
     24 C          -5.0208    3.8976   25.4089 C.3     1  UNL1        0.0345
     25 C          -5.8851    4.4736   24.3268 C.ar    1  UNL1        0.0204
     26 C          -7.1657    5.2280   24.5290 C.ar    1  UNL1        0.0396
     27 C          -7.6926    5.6170   23.1795 C.ar    1  UNL1        0.1795
     28 O          -6.7376    5.1030   22.1433 O.2     1  UNL1       -0.4461
     29 C          -5.6205    4.3964   22.8522 C.ar    1  UNL1        0.1948
@<TRIPOS>BOND
     1    24    25    1
     2    25    26   ar
     3    26    27   ar
     4    27    28   ar
     5    28    29   ar
     6    29    20    1
     7    20    21    2
     8    20    22   am
     9    22     1    1
    10     1     2   ar
    11     2     3   ar
    12     3     4   ar
    13     4     8    1
    14     8     9   am
    15     9    10    2
    16     9    11    1
    17    11    12   ar
    18    12    13   ar
    19    13    14   ar
    20    14    15   ar
    21    15    16    1
    22    15    17   ar
    23    17    18    1
    24    18    19    2
    25     4     5   ar
    26     5     6    1
    27     5     7   ar
    28    29    25   ar
    29     7     1   ar
    30    18     8   am
    31    17    11   ar
    32    22    23    1
@<TRIPOS>MOLECULE
*****
 29 32 0 0 0
SMALL
GASTEIGER

@<TRIPOS>ATOM
      1 C           6.4679   -3.0219   32.5951 C.ar    1  UNL1        0.0515
      2 C           5.0211   -3.1621   32.9652 C.ar    1  UNL1        0.0160
      3 C           4.2954   -2.0143   33.6024 C.ar    1  UNL1        0.0175
      4 C           5.0164   -0.7265   33.8695 C.ar    1  UNL1        0.0718
      5 C           6.4632   -0.5863   33.4994 C.ar    1  UNL1        0.0730
      6 CL          7.1844    0.7016   33.7665 Cl      1  UNL1       -0.0809
      7 C           7.1890   -1.7340   32.8621 C.ar    1  UNL1        0.0273
      8 N           4.2907    0.4212   34.5067 N.am    1  UNL1       -0.2002
      9 C           3.3871    1.3916   33.8054 C.2     1  UNL1        0.2590
     10 O           3.0505    1.3846   32.3436 O.2     1  UNL1       -0.2691
     11 C           2.8791    2.3702   34.8224 C.ar    1  UNL1        0.0609
     12 C           1.9558    3.5469   34.7093 C.ar    1  UNL1        0.0048
     13 C           1.6221    4.3581   35.9261 C.ar    1  UNL1        0.0025
     14 C           2.2118    3.9925   37.2560 C.ar    1  UNL1        0.0298
     15 C           3.1351    2.8158   37.3691 C.ar    1  UNL1        0.1446
     16 F           3.7247    2.4503   38.6990 F       1  UNL1       -0.2040
     17 C           3.4687    2.0047   36.1523 C.ar    1  UNL1        0.0861
     18 C           4.3411    0.8002   35.9572 C.2     1  UNL1        0.2611
     19 O           5.1262    0.0979   37.0252 O.2     1  UNL1       -0.2691
     20 C           7.1614   -4.3432   30.4683 C.2     1  UNL1        0.2839
     21 O           6.4034   -3.3691   29.6159 O.2     1  UNL1       -0.2665
     22 N           7.1936   -4.1696   31.9578 N.am    1  UNL1       -0.2778
     23 H           7.6911   -4.8090   32.5173 H       1  UNL1        0.1553
     24 C           6.4873   -5.6619   27.5603 C.3     1  UNL1        0.0345
     25 C           7.5772   -6.0971   28.4944 C.ar    1  UNL1        0.0204
     26 C           8.5488   -7.2148   28.2559 C.ar    1  UNL1        0.0396
     27 C           9.4590   -7.2995   29.4451 C.ar    1  UNL1        0.1795
     28 O           9.0501   -6.2341   30.4186 O.2     1  UNL1       -0.4461
     29 C           7.8871   -5.4909   29.8311 C.ar    1  UNL1        0.1948
@<TRIPOS>BOND
     1    24    25    1
     2    25    26   ar
     3    26    27   ar
     4    27    28   ar
     5    28    29   ar
     6    29    20    1
     7    20    21    2
     8    20    22   am
     9    22     1    1
    10     1     2   ar
    11     2     3   ar
    12     3     4   ar
    13     4     8    1
    14     8     9   am
    15     9    10    2
    16     9    11    1
    17    11    12   ar
    18    12    13   ar
    19    13    14   ar
    20    14    15   ar
    21    15    16    1
    22    15    17   ar
    23    17    18    1
    24    18    19    2
    25     4     5   ar
    26     5     6    1
    27     5     7   ar
    28    29    25   ar
    29     7     1   ar
    30    18     8   am
    31    17    11   ar
    32    22    23    1
@<TRIPOS>MOLECULE
*****
 29 32 0 0 0
SMALL
GASTEIGER

@<TRIPOS>ATOM
      1 C         -16.1479    0.4526   18.9201 C.ar    1  UNL1        0.0515
      2 C         -16.0961   -0.4905   20.0854 C.ar    1  UNL1        0.0160
      3 C         -15.1426   -1.6484   20.0713 C.ar    1  UNL1        0.0175
      4 C         -14.2410   -1.8632   18.8919 C.ar    1  UNL1        0.0718
      5 C         -14.2928   -0.9201   17.7267 C.ar    1  UNL1        0.0730
      6 CL        -13.3912   -1.1348   16.5472 Cl      1  UNL1       -0.0809
      7 C         -15.2463    0.2378   17.7408 C.ar    1  UNL1        0.0273
      8 N         -13.2875   -3.0211   18.8778 N.am    1  UNL1       -0.2002
      9 C         -11.7909   -2.9315   18.9236 C.2     1  UNL1        0.2590
     10 O         -10.9850   -1.6682   18.9916 O.2     1  UNL1       -0.2691
     11 C         -11.2417   -4.3269   18.8895 C.ar    1  UNL1        0.0609
     12 C          -9.8374   -4.8536   18.9108 C.ar    1  UNL1        0.0048
     13 C          -9.5903   -6.3323   18.8651 C.ar    1  UNL1        0.0025
     14 C         -10.7475   -7.2844   18.7983 C.ar    1  UNL1        0.0298
     15 C         -12.1518   -6.7577   18.7770 C.ar    1  UNL1        0.1446
     16 F         -13.3090   -7.7098   18.7102 F       1  UNL1       -0.2040
     17 C         -12.3989   -5.2789   18.8227 C.ar    1  UNL1        0.0861
     18 C         -13.6633   -4.4719   18.8154 C.2     1  UNL1        0.2611
     19 O         -15.0584   -5.0196   18.7562 O.2     1  UNL1       -0.2691
     20 C         -16.6273    2.9672   19.3636 C.2     1  UNL1        0.2839
     21 O         -15.1997    3.1661   19.7790 O.2     1  UNL1       -0.2665
     22 N         -17.1014    1.6105   18.9342 N.am    1  UNL1       -0.2778
     23 H         -18.0384    1.4799   18.6616 H       1  UNL1        0.1553
     24 C         -18.2311    4.0998   21.9703 C.3     1  UNL1        0.0345
     25 C         -18.3180    4.6457   20.5760 C.ar    1  UNL1        0.0204
     26 C         -19.1573    5.8081   20.1348 C.ar    1  UNL1        0.0396
     27 C         -18.9388    6.0058   18.6641 C.ar    1  UNL1        0.1795
     28 O         -17.9645    4.9657   18.1962 O.2     1  UNL1       -0.4461
     29 C         -17.5808    4.1251   19.3778 C.ar    1  UNL1        0.1948
@<TRIPOS>BOND
     1    24    25    1
     2    25    26   ar
     3    26    27   ar
     4    27    28   ar
     5    28    29   ar
     6    29    20    1
     7    20    21    2
     8    20    22   am
     9    22     1    1
    10     1     2   ar
    11     2     3   ar
    12     3     4   ar
    13     4     8    1
    14     8     9   am
    15     9    10    2
    16     9    11    1
    17    11    12   ar
    18    12    13   ar
    19    13    14   ar
    20    14    15   ar
    21    15    16    1
    22    15    17   ar
    23    17    18    1
    24    18    19    2
    25     4     5   ar
    26     5     6    1
    27     5     7   ar
    28    29    25   ar
    29     7     1   ar
    30    18     8   am
    31    17    11   ar
    32    22    23    1
@<TRIPOS>MOLECULE
*****
 29 32 0 0 0
SMALL
GASTEIGER

@<TRIPOS>ATOM
      1 C           6.0995   -2.5292   32.0045 C.ar    1  UNL1        0.0515
      2 C           4.8466   -2.8142   32.7785 C.ar    1  UNL1        0.0160
      3 C           4.3872   -1.8592   33.8401 C.ar    1  UNL1        0.0175
      4 C           5.1807   -0.6192   34.1277 C.ar    1  UNL1        0.0718
      5 C           6.4336   -0.3342   33.3537 C.ar    1  UNL1        0.0730
      6 CL          7.2271    0.9058   33.6414 Cl      1  UNL1       -0.0809
      7 C           6.8930   -1.2892   32.2922 C.ar    1  UNL1        0.0273
      8 N           4.7213    0.3358   35.1893 N.am    1  UNL1       -0.2002
      9 C           5.2629    0.4297   36.5850 C.2     1  UNL1        0.2590
     10 O           6.3589   -0.4149   37.1641 O.2     1  UNL1       -0.2691
     11 C           4.5160    1.5165   37.2999 C.ar    1  UNL1        0.0609
     12 C           4.6197    2.0546   38.6961 C.ar    1  UNL1        0.0048
     13 C           3.7204    3.1705   39.1385 C.ar    1  UNL1        0.0025
     14 C           2.7172    3.7483   38.1847 C.ar    1  UNL1        0.0298
     15 C           2.6134    3.2102   36.7884 C.ar    1  UNL1        0.1446
     16 F           1.6103    3.7880   35.8346 F       1  UNL1       -0.2040
     17 C           3.5128    2.0943   36.3460 C.ar    1  UNL1        0.0861
     18 C           3.6398    1.3645   35.0416 C.2     1  UNL1        0.2611
     19 O           2.8276    1.6190   33.8064 O.2     1  UNL1       -0.2691
     20 C           6.3184   -3.1696   29.4962 C.2     1  UNL1        0.2839
     21 O           5.6185   -1.9000   29.1109 O.2     1  UNL1       -0.2665
     22 N           6.5588   -3.4842   30.9429 N.am    1  UNL1       -0.2778
     23 H           7.0182   -4.3174   31.1957 H       1  UNL1        0.1553
     24 C           8.9665   -2.8238   27.6206 C.3     1  UNL1        0.0345
     25 C           7.9950   -3.9656   27.5725 C.ar    1  UNL1        0.0204
     26 C           8.0700   -5.1490   26.6538 C.ar    1  UNL1        0.0396
     27 C           6.8993   -6.0393   26.9481 C.ar    1  UNL1        0.1795
     28 O           6.1006   -5.4062   28.0486 O.2     1  UNL1       -0.4461
     29 C           6.7777   -4.1246   28.4346 C.ar    1  UNL1        0.1948
@<TRIPOS>BOND
     1    24    25    1
     2    25    26   ar
     3    26    27   ar
     4    27    28   ar
     5    28    29   ar
     6    29    20    1
     7    20    21    2
     8    20    22   am
     9    22     1    1
    10     1     2   ar
    11     2     3   ar
    12     3     4   ar
    13     4     8    1
    14     8     9   am
    15     9    10    2
    16     9    11    1
    17    11    12   ar
    18    12    13   ar
    19    13    14   ar
    20    14    15   ar
    21    15    16    1
    22    15    17   ar
    23    17    18    1
    24    18    19    2
    25     4     5   ar
    26     5     6    1
    27     5     7   ar
    28    29    25   ar
    29     7     1   ar
    30    18     8   am
    31    17    11   ar
    32    22    23    1
@<TRIPOS>MOLECULE
*****
 29 32 0 0 0
SMALL
GASTEIGER

@<TRIPOS>ATOM
      1 C          -1.9066    3.8133   21.3770 C.ar    1  UNL1        0.0515
      2 C          -1.7137    3.8131   19.8895 C.ar    1  UNL1        0.0160
      3 C          -0.5471    3.0899   19.2846 C.ar    1  UNL1        0.0175
      4 C           0.4266    2.3668   20.1672 C.ar    1  UNL1        0.0718
      5 C           0.2338    2.3670   21.6547 C.ar    1  UNL1        0.0730
      6 CL          1.2075    1.6440   22.5373 Cl      1  UNL1       -0.0809
      7 C          -0.9328    3.0903   22.2596 C.ar    1  UNL1        0.0273
      8 N           1.5932    1.6436   19.5622 N.am    1  UNL1       -0.2002
      9 C           1.7950    0.1573   19.5420 C.2     1  UNL1        0.2590
     10 O           0.8656   -0.8666   20.1232 O.2     1  UNL1       -0.2691
     11 C           3.0893   -0.1252   18.8386 C.ar    1  UNL1        0.0609
     12 C           3.8005   -1.4074   18.5219 C.ar    1  UNL1        0.0048
     13 C           5.1099   -1.3779   17.7908 C.ar    1  UNL1        0.0025
     14 C           5.7081   -0.0663   17.3763 C.ar    1  UNL1        0.0298
     15 C           4.9969    1.2158   17.6929 C.ar    1  UNL1        0.1446
     16 F           5.5951    2.5275   17.2783 F       1  UNL1       -0.2040
     17 C           3.6875    1.1864   18.4240 C.ar    1  UNL1        0.0861
     18 C           2.7629    2.2795   18.8713 C.2     1  UNL1        0.2611
     19 O           2.9713    3.7504   18.6639 O.2     1  UNL1       -0.2691
     20 C          -4.4146    3.8691   22.0529 C.2     1  UNL1        0.2839
     21 O          -4.5894    2.4783   21.5189 O.2     1  UNL1       -0.2665
     22 N          -3.0732    4.5366   21.9820 N.am    1  UNL1       -0.2778
     23 H          -2.9584    5.4494   22.3325 H       1  UNL1        0.1553
     24 C          -5.2539    3.8559   25.2065 C.3     1  UNL1        0.0345
     25 C          -5.9669    4.5862   24.1075 C.ar    1  UNL1        0.0204
     26 C          -7.1910    5.4388   24.2649 C.ar    1  UNL1        0.0396
     27 C          -7.5618    5.9718   22.9127 C.ar    1  UNL1        0.1795
     28 O          -6.5668    5.4487   21.9195 O.2     1  UNL1       -0.4461
     29 C          -5.5812    4.5923   22.6579 C.ar    1  UNL1        0.1948
@<TRIPOS>BOND
     1    24    25    1
     2    25    26   ar
     3    26    27   ar
     4    27    28   ar
     5    28    29   ar
     6    29    20    1
     7    20    21    2
     8    20    22   am
     9    22     1    1
    10     1     2   ar
    11     2     3   ar
    12     3     4   ar
    13     4     8    1
    14     8     9   am
    15     9    10    2
    16     9    11    1
    17    11    12   ar
    18    12    13   ar
    19    13    14   ar
    20    14    15   ar
    21    15    16    1
    22    15    17   ar
    23    17    18    1
    24    18    19    2
    25     4     5   ar
    26     5     6    1
    27     5     7   ar
    28    29    25   ar
    29     7     1   ar
    30    18     8   am
    31    17    11   ar
    32    22    23    1
