@<TRIPOS>MOLECULE
*****
 21 23 0 0 0
SMALL
GASTEIGER

@<TRIPOS>ATOM
      1 C          -9.6761  -17.8514   21.3124 C.ar    1  UNL1        0.0537
      2 C         -10.6762  -18.2765   20.2784 C.ar    1  UNL1        0.1019
      3 N         -12.0068  -17.5891   20.1949 N.ar    1  UNL1       -0.2422
      4 C         -12.3373  -16.4767   21.1453 C.ar    1  UNL1        0.0989
      5 C         -11.3372  -16.0516   22.1792 C.ar    1  UNL1        0.0208
      6 C         -10.0066  -16.7389   22.2628 C.ar    1  UNL1        0.0075
      7 C          -9.0064  -16.3139   23.2967 C.ar    1  UNL1        0.0194
      8 C          -9.2269  -16.6586   24.7398 C.ar    1  UNL1        0.0031
      9 C          -8.2268  -16.2335   25.7738 C.ar    1  UNL1        0.0207
     10 C          -7.0061  -15.4637   25.3646 C.ar    1  UNL1        0.0989
     11 N          -6.7856  -15.1190   23.9216 N.ar    1  UNL1       -0.2423
     12 C          -7.7857  -15.5441   22.8876 C.ar    1  UNL1        0.0988
     13 C          -6.0428  -19.1712   20.9619 C.ar    1  UNL1        0.1385
     14 C          -6.5528  -20.0217   22.0873 C.ar    1  UNL1        0.0375
     15 C          -7.9759  -19.6308   22.3556 C.ar    1  UNL1        0.0404
     16 C          -8.3454  -18.5387   21.3959 C.ar    1  UNL1        0.1464
     17 O          -7.1507  -18.2547   20.5346 O.2     1  UNL1       -0.4563
     18 N          -4.2707  -18.2528   19.2987 N.3     1  UNL1       -0.3148
     19 C          -4.6665  -19.2274   20.3680 C.3     1  UNL1        0.1307
     20 H          -3.3086  -18.4342   19.0125 H       1  UNL1        0.1192
     21 H          -4.3441  -17.3021   19.6610 H       1  UNL1        0.1192
@<TRIPOS>BOND
     1    18    19    1
     2    19    13    1
     3    13    14   ar
     4    14    15   ar
     5    15    16   ar
     6    16     1    1
     7     1     2   ar
     8     2     3   ar
     9     3     4   ar
    10     4     5   ar
    11     5     6   ar
    12     6     7    1
    13     7     8   ar
    14     8     9   ar
    15     9    10   ar
    16    10    11   ar
    17    11    12   ar
    18    16    17   ar
    19    17    13   ar
    20     6     1   ar
    21    12     7   ar
    22    18    20    1
    23    18    21    1
@<TRIPOS>MOLECULE
*****
 21 23 0 0 0
SMALL
GASTEIGER

@<TRIPOS>ATOM
      1 C          -9.9514  -18.4381   21.3683 C.ar    1  UNL1        0.0537
      2 C         -10.0733  -19.3264   20.1658 C.ar    1  UNL1        0.1019
      3 N          -8.8395  -19.8244   19.4732 N.ar    1  UNL1       -0.2422
      4 C          -7.4839  -19.4342   19.9831 C.ar    1  UNL1        0.0989
      5 C          -7.3620  -18.5459   21.1856 C.ar    1  UNL1        0.0208
      6 C          -8.5958  -18.0478   21.8782 C.ar    1  UNL1        0.0075
      7 C          -8.4739  -17.1595   23.0807 C.ar    1  UNL1        0.0194
      8 C          -9.0459  -17.5962   24.3968 C.ar    1  UNL1        0.0031
      9 C          -8.9241  -16.7080   25.5994 C.ar    1  UNL1        0.0207
     10 C          -8.2303  -15.3829   25.4858 C.ar    1  UNL1        0.0989
     11 N          -7.6583  -14.9461   24.1697 N.ar    1  UNL1       -0.2423
     12 C          -7.7802  -15.8345   22.9672 C.ar    1  UNL1        0.0988
     13 C         -13.1845  -17.8504   23.4340 C.ar    1  UNL1        0.1385
     14 C         -12.9829  -16.4968   22.8198 C.ar    1  UNL1        0.0375
     15 C         -11.7472  -16.5522   21.9713 C.ar    1  UNL1        0.0404
     16 C         -11.1852  -17.9401   22.0610 C.ar    1  UNL1        0.1464
     17 O         -12.0735  -18.7424   22.9650 O.2     1  UNL1       -0.4563
     18 N         -14.0036  -18.6200   25.7764 N.3     1  UNL1       -0.3148
     19 C         -14.3012  -18.2431   24.3554 C.3     1  UNL1        0.1307
     20 H         -14.8730  -18.8566   26.2546 H       1  UNL1        0.1192
     21 H         -13.5578  -17.8345   26.2503 H       1  UNL1        0.1192
@<TRIPOS>BOND
     1    18    19    1
     2    19    13    1
     3    13    14   ar
     4    14    15   ar
     5    15    16   ar
     6    16     1    1
     7     1     2   ar
     8     2     3   ar
     9     3     4   ar
    10     4     5   ar
    11     5     6   ar
    12     6     7    1
    13     7     8   ar
    14     8     9   ar
    15     9    10   ar
    16    10    11   ar
    17    11    12   ar
    18    16    17   ar
    19    17    13   ar
    20     6     1   ar
    21    12     7   ar
    22    18    20    1
    23    18    21    1
@<TRIPOS>MOLECULE
*****
 21 23 0 0 0
SMALL
GASTEIGER

@<TRIPOS>ATOM
      1 C          -7.8913  -18.9368   21.0925 C.ar    1  UNL1        0.0537
      2 C          -7.3138  -19.9233   20.1213 C.ar    1  UNL1        0.1019
      3 N          -5.8663  -20.3060   20.2125 N.ar    1  UNL1       -0.2422
      4 C          -4.9964  -19.7022   21.2749 C.ar    1  UNL1        0.0989
      5 C          -5.5740  -18.7157   22.2461 C.ar    1  UNL1        0.0208
      6 C          -7.0214  -18.3330   22.1549 C.ar    1  UNL1        0.0075
      7 C          -7.5990  -17.3465   23.1261 C.ar    1  UNL1        0.0194
      8 C          -8.7268  -17.7537   24.0273 C.ar    1  UNL1        0.0031
      9 C          -9.3045  -16.7672   24.9984 C.ar    1  UNL1        0.0207
     10 C          -8.7543  -15.3734   25.0684 C.ar    1  UNL1        0.0989
     11 N          -7.6264  -14.9662   24.1672 N.ar    1  UNL1       -0.2423
     12 C          -7.0488  -15.9528   23.1960 C.ar    1  UNL1        0.0988
     13 C         -11.3699  -17.2728   20.6497 C.ar    1  UNL1        0.1385
     14 C         -11.7627  -18.6575   21.0723 C.ar    1  UNL1        0.0375
     15 C         -10.5074  -19.4493   21.2896 C.ar    1  UNL1        0.0404
     16 C          -9.3389  -18.5541   21.0013 C.ar    1  UNL1        0.1464
     17 O          -9.8720  -17.2090   20.6058 O.2     1  UNL1       -0.4563
     18 N         -12.2451  -15.4777   18.9879 N.3     1  UNL1       -0.3148
     19 C         -12.3102  -16.1493   20.3275 C.3     1  UNL1        0.1307
     20 H         -12.9505  -14.7423   18.9416 H       1  UNL1        0.1192
     21 H         -12.4211  -16.1642   18.2544 H       1  UNL1        0.1192
@<TRIPOS>BOND
     1    18    19    1
     2    19    13    1
     3    13    14   ar
     4    14    15   ar
     5    15    16   ar
     6    16     1    1
     7     1     2   ar
     8     2     3   ar
     9     3     4   ar
    10     4     5   ar
    11     5     6   ar
    12     6     7    1
    13     7     8   ar
    14     8     9   ar
    15     9    10   ar
    16    10    11   ar
    17    11    12   ar
    18    16    17   ar
    19    17    13   ar
    20     6     1   ar
    21    12     7   ar
    22    18    20    1
    23    18    21    1
@<TRIPOS>MOLECULE
*****
 21 23 0 0 0
SMALL
GASTEIGER

@<TRIPOS>ATOM
      1 C          -7.0633  -16.8881   23.3928 C.ar    1  UNL1        0.0537
      2 C          -5.7304  -16.2361   23.6121 C.ar    1  UNL1        0.1019
      3 N          -5.5765  -15.1800   24.6661 N.ar    1  UNL1       -0.2422
      4 C          -6.7554  -14.7759   25.5008 C.ar    1  UNL1        0.0989
      5 C          -8.0883  -15.4279   25.2816 C.ar    1  UNL1        0.0208
      6 C          -8.2423  -16.4840   24.2276 C.ar    1  UNL1        0.0075
      7 C          -9.5753  -17.1361   24.0082 C.ar    1  UNL1        0.0194
      8 C          -9.8918  -18.4400   24.6789 C.ar    1  UNL1        0.0031
      9 C         -11.2247  -19.0920   24.4596 C.ar    1  UNL1        0.0207
     10 C         -12.2412  -18.4402   23.5696 C.ar    1  UNL1        0.0989
     11 N         -11.9247  -17.1364   22.8990 N.ar    1  UNL1       -0.2423
     12 C         -10.5917  -16.4843   23.1183 C.ar    1  UNL1        0.0988
     13 C          -8.0186  -19.1815   20.4107 C.ar    1  UNL1        0.1385
     14 C          -6.8900  -19.9572   21.0230 C.ar    1  UNL1        0.0375
     15 C          -6.3949  -19.1925   22.2146 C.ar    1  UNL1        0.0404
     16 C          -7.2174  -17.9442   22.3388 C.ar    1  UNL1        0.1464
     17 O          -8.2208  -17.9374   21.2239 O.2     1  UNL1       -0.4563
     18 N         -10.3055  -19.5956   19.2494 N.3     1  UNL1       -0.3148
     19 C          -8.8065  -19.5800   19.1981 C.3     1  UNL1        0.1307
     20 H         -10.6737  -19.8884   18.3443 H       1  UNL1        0.1192
     21 H         -10.6479  -18.6603   19.4693 H       1  UNL1        0.1192
@<TRIPOS>BOND
     1    18    19    1
     2    19    13    1
     3    13    14   ar
     4    14    15   ar
     5    15    16   ar
     6    16     1    1
     7     1     2   ar
     8     2     3   ar
     9     3     4   ar
    10     4     5   ar
    11     5     6   ar
    12     6     7    1
    13     7     8   ar
    14     8     9   ar
    15     9    10   ar
    16    10    11   ar
    17    11    12   ar
    18    16    17   ar
    19    17    13   ar
    20     6     1   ar
    21    12     7   ar
    22    18    20    1
    23    18    21    1
@<TRIPOS>MOLECULE
*****
 21 23 0 0 0
SMALL
GASTEIGER

@<TRIPOS>ATOM
      1 C          -9.9574  -16.9064   22.5725 C.ar    1  UNL1        0.0537
      2 C         -11.2449  -16.1436   22.6744 C.ar    1  UNL1        0.1019
      3 N         -12.4417  -16.5834   21.8842 N.ar    1  UNL1       -0.2422
      4 C         -12.3509  -17.7859   20.9923 C.ar    1  UNL1        0.0989
      5 C         -11.0634  -18.5487   20.8904 C.ar    1  UNL1        0.0208
      6 C          -9.8667  -18.1090   21.6805 C.ar    1  UNL1        0.0075
      7 C          -8.5791  -18.8718   21.5787 C.ar    1  UNL1        0.0194
      8 C          -7.6902  -18.6868   20.3847 C.ar    1  UNL1        0.0031
      9 C          -6.4026  -19.4495   20.2829 C.ar    1  UNL1        0.0207
     10 C          -6.0040  -20.3974   21.3750 C.ar    1  UNL1        0.0989
     11 N          -6.8929  -20.5824   22.5690 N.ar    1  UNL1       -0.2423
     12 C          -8.1805  -19.8196   22.6708 C.ar    1  UNL1        0.0988
     13 C          -6.5131  -15.7622   23.9484 C.ar    1  UNL1        0.1385
     14 C          -7.3247  -15.8178   25.2087 C.ar    1  UNL1        0.0375
     15 C          -8.7137  -16.2532   24.8467 C.ar    1  UNL1        0.0404
     16 C          -8.7606  -16.4667   23.3626 C.ar    1  UNL1        0.1464
     17 O          -7.4005  -16.1632   22.8075 O.2     1  UNL1       -0.4563
     18 N          -4.6220  -14.4138   22.7840 N.3     1  UNL1       -0.3148
     19 C          -5.0678  -15.3738   23.8469 C.3     1  UNL1        0.1307
     20 H          -3.6161  -14.2640   22.8614 H       1  UNL1        0.1192
     21 H          -5.1083  -13.5251   22.9030 H       1  UNL1        0.1192
@<TRIPOS>BOND
     1    18    19    1
     2    19    13    1
     3    13    14   ar
     4    14    15   ar
     5    15    16   ar
     6    16     1    1
     7     1     2   ar
     8     2     3   ar
     9     3     4   ar
    10     4     5   ar
    11     5     6   ar
    12     6     7    1
    13     7     8   ar
    14     8     9   ar
    15     9    10   ar
    16    10    11   ar
    17    11    12   ar
    18    16    17   ar
    19    17    13   ar
    20     6     1   ar
    21    12     7   ar
    22    18    20    1
    23    18    21    1
@<TRIPOS>MOLECULE
*****
 21 23 0 0 0
SMALL
GASTEIGER

@<TRIPOS>ATOM
      1 C          -9.5638  -16.0923   21.6649 C.ar    1  UNL1        0.0537
      2 C          -9.7063  -15.0263   20.6194 C.ar    1  UNL1        0.1019
      3 N         -10.7702  -15.1440   19.5685 N.ar    1  UNL1       -0.2422
      4 C         -11.6915  -16.3277   19.5632 C.ar    1  UNL1        0.0989
      5 C         -11.5490  -17.3937   20.6088 C.ar    1  UNL1        0.0208
      6 C         -10.4851  -17.2760   21.6597 C.ar    1  UNL1        0.0075
      7 C         -10.3425  -18.3421   22.7053 C.ar    1  UNL1        0.0194
      8 C          -9.2785  -19.3903   22.5674 C.ar    1  UNL1        0.0031
      9 C          -9.1359  -20.4563   23.6130 C.ar    1  UNL1        0.0207
     10 C         -10.0574  -20.4741   24.7965 C.ar    1  UNL1        0.0989
     11 N         -11.1214  -19.4259   24.9344 N.ar    1  UNL1       -0.2423
     12 C         -11.2640  -18.3599   23.8887 C.ar    1  UNL1        0.0988
     13 C          -6.3457  -16.0068   23.8335 C.ar    1  UNL1        0.1385
     14 C          -7.3800  -15.5804   24.8327 C.ar    1  UNL1        0.0375
     15 C          -8.7114  -15.5605   24.1420 C.ar    1  UNL1        0.0404
     16 C          -8.4999  -15.9747   22.7159 C.ar    1  UNL1        0.1464
     17 O          -7.0379  -16.2505   22.5252 O.2     1  UNL1       -0.4563
     18 N          -3.9218  -16.3127   22.9498 N.3     1  UNL1       -0.3148
     19 C          -4.8771  -16.1623   24.0963 C.3     1  UNL1        0.1307
     20 H          -2.9717  -16.4062   23.3089 H       1  UNL1        0.1192
     21 H          -3.9789  -15.4900   22.3495 H       1  UNL1        0.1192
@<TRIPOS>BOND
     1    18    19    1
     2    19    13    1
     3    13    14   ar
     4    14    15   ar
     5    15    16   ar
     6    16     1    1
     7     1     2   ar
     8     2     3   ar
     9     3     4   ar
    10     4     5   ar
    11     5     6   ar
    12     6     7    1
    13     7     8   ar
    14     8     9   ar
    15     9    10   ar
    16    10    11   ar
    17    11    12   ar
    18    16    17   ar
    19    17    13   ar
    20     6     1   ar
    21    12     7   ar
    22    18    20    1
    23    18    21    1
@<TRIPOS>MOLECULE
*****
 21 23 0 0 0
SMALL
GASTEIGER

@<TRIPOS>ATOM
      1 C          -8.3510  -16.8008   24.5352 C.ar    1  UNL1        0.0537
      2 C          -8.1351  -15.9040   25.7181 C.ar    1  UNL1        0.1019
      3 N          -6.8530  -15.1374   25.8539 N.ar    1  UNL1       -0.2422
      4 C          -5.7868  -15.2676   24.8069 C.ar    1  UNL1        0.0989
      5 C          -6.0027  -16.1643   23.6241 C.ar    1  UNL1        0.0208
      6 C          -7.2848  -16.9310   23.4882 C.ar    1  UNL1        0.0075
      7 C          -7.5007  -17.8278   22.3053 C.ar    1  UNL1        0.0194
      8 C          -6.5547  -18.9615   22.0412 C.ar    1  UNL1        0.0031
      9 C          -6.7706  -19.8583   20.8584 C.ar    1  UNL1        0.0207
     10 C          -7.9325  -19.6214   19.9396 C.ar    1  UNL1        0.0989
     11 N          -8.8784  -18.4877   20.2038 N.ar    1  UNL1       -0.2423
     12 C          -8.6625  -17.5909   21.3867 C.ar    1  UNL1        0.0988
     13 C         -11.9396  -18.1390   23.9054 C.ar    1  UNL1        0.1385
     14 C         -11.2724  -19.3557   24.4752 C.ar    1  UNL1        0.0375
     15 C          -9.8470  -19.0025   24.7805 C.ar    1  UNL1        0.0404
     16 C          -9.6331  -17.5675   24.3994 C.ar    1  UNL1        0.1464
     17 O         -10.9265  -17.0339   23.8585 O.2     1  UNL1       -0.4563
     18 N         -14.4743  -18.0888   24.4736 N.3     1  UNL1       -0.3148
     19 C         -13.3690  -18.0441   23.4606 C.3     1  UNL1        0.1307
     20 H         -15.3739  -18.0122   23.9989 H       1  UNL1        0.1192
     21 H         -14.3678  -17.3133   25.1275 H       1  UNL1        0.1192
@<TRIPOS>BOND
     1    18    19    1
     2    19    13    1
     3    13    14   ar
     4    14    15   ar
     5    15    16   ar
     6    16     1    1
     7     1     2   ar
     8     2     3   ar
     9     3     4   ar
    10     4     5   ar
    11     5     6   ar
    12     6     7    1
    13     7     8   ar
    14     8     9   ar
    15     9    10   ar
    16    10    11   ar
    17    11    12   ar
    18    16    17   ar
    19    17    13   ar
    20     6     1   ar
    21    12     7   ar
    22    18    20    1
    23    18    21    1
@<TRIPOS>MOLECULE
*****
 21 23 0 0 0
SMALL
GASTEIGER

@<TRIPOS>ATOM
      1 C          -8.8546  -18.5458   21.0278 C.ar    1  UNL1        0.0537
      2 C         -10.2799  -18.5405   20.5606 C.ar    1  UNL1        0.1019
      3 N         -10.6819  -19.3597   19.3701 N.ar    1  UNL1       -0.2422
      4 C          -9.6586  -20.1842   18.6469 C.ar    1  UNL1        0.0989
      5 C          -8.2333  -20.1895   19.1142 C.ar    1  UNL1        0.0208
      6 C          -7.8313  -19.3703   20.3046 C.ar    1  UNL1        0.0075
      7 C          -6.4059  -19.3755   20.7719 C.ar    1  UNL1        0.0194
      8 C          -5.3124  -18.9254   19.8491 C.ar    1  UNL1        0.0031
      9 C          -3.8871  -18.9306   20.3163 C.ar    1  UNL1        0.0207
     10 C          -3.5551  -19.3860   21.7065 C.ar    1  UNL1        0.0989
     11 N          -4.6486  -19.8361   22.6294 N.ar    1  UNL1       -0.2423
     12 C          -6.0740  -19.8309   22.1620 C.ar    1  UNL1        0.0988
     13 C          -7.3057  -16.1275   23.6391 C.ar    1  UNL1        0.1385
     14 C          -8.3620  -16.8042   24.4615 C.ar    1  UNL1        0.0375
     15 C          -9.0708  -17.7925   23.5834 C.ar    1  UNL1        0.0404
     16 C          -8.4525  -17.7265   22.2183 C.ar    1  UNL1        0.1464
     17 O          -7.3616  -16.6976   22.2527 O.2     1  UNL1       -0.4563
     18 N          -5.0998  -14.7845   23.3551 N.3     1  UNL1       -0.3148
     19 C          -6.3595  -15.0670   24.1188 C.3     1  UNL1        0.1307
     20 H          -4.5802  -14.0400   23.8198 H       1  UNL1        0.1192
     21 H          -5.3355  -14.4936   22.4063 H       1  UNL1        0.1192
@<TRIPOS>BOND
     1    18    19    1
     2    19    13    1
     3    13    14   ar
     4    14    15   ar
     5    15    16   ar
     6    16     1    1
     7     1     2   ar
     8     2     3   ar
     9     3     4   ar
    10     4     5   ar
    11     5     6   ar
    12     6     7    1
    13     7     8   ar
    14     8     9   ar
    15     9    10   ar
    16    10    11   ar
    17    11    12   ar
    18    16    17   ar
    19    17    13   ar
    20     6     1   ar
    21    12     7   ar
    22    18    20    1
    23    18    21    1
@<TRIPOS>MOLECULE
*****
 21 23 0 0 0
SMALL
GASTEIGER

@<TRIPOS>ATOM
      1 C         -10.0835  -16.9250   22.6490 C.ar    1  UNL1        0.0537
      2 C         -11.4070  -16.2488   22.8510 C.ar    1  UNL1        0.1019
      3 N         -12.6446  -16.8207   22.2255 N.ar    1  UNL1       -0.2422
      4 C         -12.5586  -18.0688   21.3979 C.ar    1  UNL1        0.0989
      5 C         -11.2350  -18.7450   21.1959 C.ar    1  UNL1        0.0208
      6 C          -9.9975  -18.1731   21.8214 C.ar    1  UNL1        0.0075
      7 C          -8.6738  -18.8492   21.6193 C.ar    1  UNL1        0.0194
      8 C          -8.1521  -19.8011   22.6546 C.ar    1  UNL1        0.0031
      9 C          -6.8285  -20.4773   22.4526 C.ar    1  UNL1        0.0207
     10 C          -6.0265  -20.2016   21.2153 C.ar    1  UNL1        0.0989
     11 N          -6.5482  -19.2497   20.1800 N.ar    1  UNL1       -0.2423
     12 C          -7.8719  -18.5735   20.3821 C.ar    1  UNL1        0.0988
     13 C          -7.1428  -15.7615   24.8994 C.ar    1  UNL1        0.1385
     14 C          -6.7398  -15.1845   23.5747 C.ar    1  UNL1        0.0375
     15 C          -7.7924  -15.5502   22.5705 C.ar    1  UNL1        0.0404
     16 C          -8.8458  -16.3531   23.2745 C.ar    1  UNL1        0.1464
     17 O          -8.4443  -16.4837   24.7138 O.2     1  UNL1       -0.4563
     18 N          -6.9425  -14.8347   27.3183 N.3     1  UNL1       -0.3148
     19 C          -6.3783  -15.6380   26.1841 C.3     1  UNL1        0.1307
     20 H          -6.2957  -14.8585   28.1065 H       1  UNL1        0.1192
     21 H          -7.8390  -15.2300   27.6020 H       1  UNL1        0.1192
@<TRIPOS>BOND
     1    18    19    1
     2    19    13    1
     3    13    14   ar
     4    14    15   ar
     5    15    16   ar
     6    16     1    1
     7     1     2   ar
     8     2     3   ar
     9     3     4   ar
    10     4     5   ar
    11     5     6   ar
    12     6     7    1
    13     7     8   ar
    14     8     9   ar
    15     9    10   ar
    16    10    11   ar
    17    11    12   ar
    18    16    17   ar
    19    17    13   ar
    20     6     1   ar
    21    12     7   ar
    22    18    20    1
    23    18    21    1
