@<TRIPOS>MOLECULE
*****
 22 24 0 0 0
SMALL
GASTEIGER

@<TRIPOS>ATOM
      1 C          -5.4955  -19.7949   20.7100 C.ar    1  UNL1        0.1397
      2 C          -5.2436  -19.5617   22.1702 C.ar    1  UNL1        0.0385
      3 C          -3.9605  -18.9270   22.6179 C.ar    1  UNL1        0.0228
      4 C          -2.9291  -18.5254   21.6054 C.ar    1  UNL1        0.0894
      5 N          -1.5804  -17.8842   21.7466 N.ar    1  UNL1       -0.2245
      6 C          -0.9987  -17.7211   20.3737 C.ar    1  UNL1        0.1567
      7 N           0.3376  -17.1228   20.0476 N.pl3   1  UNL1       -0.3375
      8 S          -1.9879  -18.2615   19.3840 S.2     1  UNL1       -0.0519
      9 C          -3.1810  -18.7585   20.1452 C.ar    1  UNL1        0.0527
     10 C          -4.4642  -19.3932   19.6975 C.ar    1  UNL1        0.0450
     11 H           0.9193  -16.7939   20.7705 H       1  UNL1        0.1442
     12 H           0.6330  -17.0590   19.1106 H       1  UNL1        0.1442
     13 O          -6.7787  -20.4296   20.2622 O.3     1  UNL1       -0.4706
     14 C          -7.8855  -19.5782   19.7144 C.3     1  UNL1        0.2320
     15 C         -11.4489  -18.5952   22.2807 C.ar    1  UNL1        0.0684
     16 C         -10.1594  -19.0195   22.9187 C.ar    1  UNL1        0.0101
     17 C          -8.9716  -19.3472   22.0633 C.ar    1  UNL1       -0.0000
     18 C          -9.0733  -19.2505   20.5699 C.ar    1  UNL1        0.0212
     19 C         -10.3629  -18.8262   19.9319 C.ar    1  UNL1       -0.0000
     20 C         -11.5507  -18.4985   20.7873 C.ar    1  UNL1        0.0101
     21 N         -13.8245  -17.9398   23.9915 N.1     1  UNL1       -0.1908
     22 C         -12.6367  -18.2675   23.1362 C.1     1  UNL1        0.1004
@<TRIPOS>BOND
     1    21    22    3
     2    22    15    1
     3    15    16   ar
     4    16    17   ar
     5    17    18   ar
     6    18    14    1
     7    14    13    1
     8    13     1    1
     9     1     2   ar
    10     2     3   ar
    11     3     4   ar
    12     4     5   ar
    13     5     6   ar
    14     6     7    1
    15     6     8   ar
    16     8     9   ar
    17     9    10   ar
    18    18    19   ar
    19    19    20   ar
    20    20    15   ar
    21    10     1   ar
    22     9     4   ar
    23     7    11    1
    24     7    12    1
@<TRIPOS>MOLECULE
*****
 22 24 0 0 0
SMALL
GASTEIGER

@<TRIPOS>ATOM
      1 C          -5.4742  -19.4488   21.6089 C.ar    1  UNL1        0.1397
      2 C          -5.2066  -20.3549   20.4439 C.ar    1  UNL1        0.0385
      3 C          -3.9232  -20.2318   19.6773 C.ar    1  UNL1        0.0228
      4 C          -2.9074  -19.2026   20.0757 C.ar    1  UNL1        0.0894
      5 N          -1.5622  -18.8499   19.5134 N.ar    1  UNL1       -0.2245
      6 C          -0.9984  -17.7257   20.3310 C.ar    1  UNL1        0.1567
      7 N           0.3291  -17.0604   20.1184 N.pl3   1  UNL1       -0.3375
      8 S          -1.9951  -17.3837   21.3985 S.2     1  UNL1       -0.0519
      9 C          -3.1750  -18.2964   21.2407 C.ar    1  UNL1        0.0527
     10 C          -4.4583  -18.4195   22.0073 C.ar    1  UNL1        0.0450
     11 H           0.9169  -17.3571   19.3864 H       1  UNL1        0.1442
     12 H           0.6126  -16.3270   20.7108 H       1  UNL1        0.1442
     13 O          -6.7576  -19.5718   22.3756 O.3     1  UNL1       -0.4706
     14 C          -8.0711  -19.4022   21.6714 C.3     1  UNL1        0.2320
     15 C         -11.8527  -18.8889   24.0560 C.ar    1  UNL1        0.0684
     16 C         -11.7585  -18.3261   22.6688 C.ar    1  UNL1        0.0101
     17 C         -10.4980  -18.4971   21.8739 C.ar    1  UNL1       -0.0000
     18 C          -9.3317  -19.2311   22.4663 C.ar    1  UNL1        0.0212
     19 C          -9.4258  -19.7940   23.8534 C.ar    1  UNL1       -0.0000
     20 C         -10.6863  -19.6229   24.6483 C.ar    1  UNL1        0.0101
     21 N         -14.3737  -18.5468   25.6457 N.1     1  UNL1       -0.1908
     22 C         -13.1132  -18.7178   24.8508 C.1     1  UNL1        0.1004
@<TRIPOS>BOND
     1    21    22    3
     2    22    15    1
     3    15    16   ar
     4    16    17   ar
     5    17    18   ar
     6    18    14    1
     7    14    13    1
     8    13     1    1
     9     1     2   ar
    10     2     3   ar
    11     3     4   ar
    12     4     5   ar
    13     5     6   ar
    14     6     7    1
    15     6     8   ar
    16     8     9   ar
    17     9    10   ar
    18    18    19   ar
    19    19    20   ar
    20    20    15   ar
    21    10     1   ar
    22     9     4   ar
    23     7    11    1
    24     7    12    1
@<TRIPOS>MOLECULE
*****
 22 24 0 0 0
SMALL
GASTEIGER

@<TRIPOS>ATOM
      1 C          -5.6946  -20.1421   21.5178 C.ar    1  UNL1        0.1397
      2 C          -5.3195  -20.8152   20.2310 C.ar    1  UNL1        0.0385
      3 C          -4.0833  -20.3907   19.4951 C.ar    1  UNL1        0.0228
      4 C          -3.2222  -19.2930   20.0460 C.ar    1  UNL1        0.0894
      5 N          -1.9547  -18.6652   19.5467 N.ar    1  UNL1       -0.2245
      6 C          -1.5464  -17.6040   20.5251 C.ar    1  UNL1        0.1567
      7 N          -0.3355  -16.7251   20.4183 N.pl3   1  UNL1       -0.3375
      8 S          -2.5616  -17.5760   21.6290 S.2     1  UNL1       -0.0519
      9 C          -3.5973  -18.6198   21.3329 C.ar    1  UNL1        0.0527
     10 C          -4.8335  -19.0444   22.0688 C.ar    1  UNL1        0.0450
     11 H           0.2751  -16.8193   19.6518 H       1  UNL1        0.1442
     12 H          -0.1513  -16.0541   21.1148 H       1  UNL1        0.1442
     13 O          -6.9308  -20.5666   22.2538 O.3     1  UNL1       -0.4706
     14 C          -7.7828  -19.5419   22.9425 C.3     1  UNL1        0.2320
     15 C         -10.6786  -17.0546   20.5597 C.ar    1  UNL1        0.0684
     16 C          -9.9801  -16.4609   21.7471 C.ar    1  UNL1        0.0101
     17 C          -9.0149  -17.2900   22.5413 C.ar    1  UNL1       -0.0000
     18 C          -8.7481  -18.7128   22.1482 C.ar    1  UNL1        0.0212
     19 C          -9.4465  -19.3064   20.9609 C.ar    1  UNL1       -0.0000
     20 C         -10.4117  -18.4773   20.1666 C.ar    1  UNL1        0.0101
     21 N         -12.6091  -15.3963   18.9713 N.1     1  UNL1       -0.1908
     22 C         -11.6439  -16.2254   19.7655 C.1     1  UNL1        0.1004
@<TRIPOS>BOND
     1    21    22    3
     2    22    15    1
     3    15    16   ar
     4    16    17   ar
     5    17    18   ar
     6    18    14    1
     7    14    13    1
     8    13     1    1
     9     1     2   ar
    10     2     3   ar
    11     3     4   ar
    12     4     5   ar
    13     5     6   ar
    14     6     7    1
    15     6     8   ar
    16     8     9   ar
    17     9    10   ar
    18    18    19   ar
    19    19    20   ar
    20    20    15   ar
    21    10     1   ar
    22     9     4   ar
    23     7    11    1
    24     7    12    1
@<TRIPOS>MOLECULE
*****
 22 24 0 0 0
SMALL
GASTEIGER

@<TRIPOS>ATOM
      1 C          -6.9781  -19.5330   20.7290 C.ar    1  UNL1        0.1397
      2 C          -6.4999  -19.9088   22.1001 C.ar    1  UNL1        0.0385
      3 C          -5.0377  -19.8436   22.4284 C.ar    1  UNL1        0.0228
      4 C          -4.0538  -19.4026   21.3856 C.ar    1  UNL1        0.0894
      5 N          -2.5628  -19.2408   21.4171 N.ar    1  UNL1       -0.2245
      6 C          -2.1197  -18.7649   20.0654 C.ar    1  UNL1        0.1567
      7 N          -0.7074  -18.4726   19.6529 N.pl3   1  UNL1       -0.3375
      8 S          -3.3367  -18.6326   19.1986 S.2     1  UNL1       -0.0519
      9 C          -4.5320  -19.0267   20.0145 C.ar    1  UNL1        0.0527
     10 C          -5.9942  -19.0919   19.6862 C.ar    1  UNL1        0.0450
     11 H           0.0279  -18.5903   20.2969 H       1  UNL1        0.1442
     12 H          -0.5158  -18.1630   18.7382 H       1  UNL1        0.1442
     13 O          -8.4403  -19.5982   20.4006 O.3     1  UNL1       -0.4706
     14 C          -9.3564  -18.4924   20.8341 C.3     1  UNL1        0.2320
     15 C          -8.7129  -16.4611   24.7977 C.ar    1  UNL1        0.0684
     16 C          -9.5615  -17.6953   24.7164 C.ar    1  UNL1        0.0101
     17 C          -9.7760  -18.3724   23.3953 C.ar    1  UNL1       -0.0000
     18 C          -9.1419  -17.8153   22.1554 C.ar    1  UNL1        0.0212
     19 C          -8.2933  -16.5811   22.2366 C.ar    1  UNL1       -0.0000
     20 C          -8.0788  -15.9040   23.5577 C.ar    1  UNL1        0.0101
     21 N          -8.2839  -15.1070   27.4401 N.1     1  UNL1       -0.1908
     22 C          -8.4984  -15.7840   26.1189 C.1     1  UNL1        0.1004
@<TRIPOS>BOND
     1    21    22    3
     2    22    15    1
     3    15    16   ar
     4    16    17   ar
     5    17    18   ar
     6    18    14    1
     7    14    13    1
     8    13     1    1
     9     1     2   ar
    10     2     3   ar
    11     3     4   ar
    12     4     5   ar
    13     5     6   ar
    14     6     7    1
    15     6     8   ar
    16     8     9   ar
    17     9    10   ar
    18    18    19   ar
    19    19    20   ar
    20    20    15   ar
    21    10     1   ar
    22     9     4   ar
    23     7    11    1
    24     7    12    1
@<TRIPOS>MOLECULE
*****
 22 24 0 0 0
SMALL
GASTEIGER

@<TRIPOS>ATOM
      1 C          -8.1029  -17.6581   22.1894 C.ar    1  UNL1        0.1397
      2 C          -9.5089  -17.5927   22.7079 C.ar    1  UNL1        0.0385
      3 C          -9.7950  -16.9170   24.0162 C.ar    1  UNL1        0.0228
      4 C          -8.6752  -16.3068   24.8059 C.ar    1  UNL1        0.0894
      5 N          -8.6520  -15.5806   26.1183 N.ar    1  UNL1       -0.2245
      6 C          -7.2316  -15.1971   26.4107 C.ar    1  UNL1        0.1567
      7 N          -6.7503  -14.4547   27.6220 N.pl3   1  UNL1       -0.3375
      8 S          -6.3771  -15.6864   25.2792 S.2     1  UNL1       -0.0519
      9 C          -7.2692  -16.3722   24.2874 C.ar    1  UNL1        0.0527
     10 C          -6.9831  -17.0479   22.9791 C.ar    1  UNL1        0.0450
     11 H          -7.3915  -14.1739   28.3143 H       1  UNL1        0.1442
     12 H          -5.7932  -14.2483   27.7248 H       1  UNL1        0.1442
     13 O          -7.8167  -18.3337   20.8811 O.3     1  UNL1       -0.4706
     14 C          -6.8741  -19.4994   20.8293 C.3     1  UNL1        0.2320
     15 C          -2.4439  -18.7963   20.4700 C.ar    1  UNL1        0.0684
     16 C          -3.3355  -18.5856   19.2823 C.ar    1  UNL1        0.0101
     17 C          -4.8122  -18.8199   19.4021 C.ar    1  UNL1       -0.0000
     18 C          -5.3973  -19.2650   20.7095 C.ar    1  UNL1        0.0212
     19 C          -4.5057  -19.4757   21.8972 C.ar    1  UNL1       -0.0000
     20 C          -3.0290  -19.2414   21.7775 C.ar    1  UNL1        0.0101
     21 N           0.5096  -18.3276   20.2304 N.1     1  UNL1       -0.1908
     22 C          -0.9671  -18.5620   20.3502 C.1     1  UNL1        0.1004
@<TRIPOS>BOND
     1    21    22    3
     2    22    15    1
     3    15    16   ar
     4    16    17   ar
     5    17    18   ar
     6    18    14    1
     7    14    13    1
     8    13     1    1
     9     1     2   ar
    10     2     3   ar
    11     3     4   ar
    12     4     5   ar
    13     5     6   ar
    14     6     7    1
    15     6     8   ar
    16     8     9   ar
    17     9    10   ar
    18    18    19   ar
    19    19    20   ar
    20    20    15   ar
    21    10     1   ar
    22     9     4   ar
    23     7    11    1
    24     7    12    1
@<TRIPOS>MOLECULE
*****
 22 24 0 0 0
SMALL
GASTEIGER

@<TRIPOS>ATOM
      1 C          -9.5598  -19.5874   21.5286 C.ar    1  UNL1        0.1397
      2 C          -9.5163  -19.4346   20.0370 C.ar    1  UNL1        0.0385
      3 C          -8.2000  -19.2629   19.3388 C.ar    1  UNL1        0.0228
      4 C          -6.9270  -19.2439   20.1320 C.ar    1  UNL1        0.0894
      5 N          -5.4918  -19.0920   19.7232 N.ar    1  UNL1       -0.2245
      6 C          -4.6482  -19.1508   20.9621 C.ar    1  UNL1        0.1567
      7 N          -3.1532  -19.0407   21.0170 N.pl3   1  UNL1       -0.3375
      8 S          -5.5621  -19.3391   22.1366 S.2     1  UNL1       -0.0519
      9 C          -6.9704  -19.3966   21.6236 C.ar    1  UNL1        0.0527
     10 C          -8.2868  -19.5684   22.3218 C.ar    1  UNL1        0.0450
     11 H          -2.6379  -18.9177   20.1872 H       1  UNL1        0.1442
     12 H          -2.6873  -19.0914   21.8828 H       1  UNL1        0.1442
     13 O         -10.8762  -19.7591   22.2269 O.3     1  UNL1       -0.4706
     14 C         -11.4107  -18.6627   23.0998 C.3     1  UNL1        0.2320
     15 C          -8.6296  -16.3808   25.8032 C.ar    1  UNL1        0.0684
     16 C          -9.1119  -17.7441   26.2017 C.ar    1  UNL1        0.0101
     17 C         -10.0389  -18.5047   25.3006 C.ar    1  UNL1       -0.0000
     18 C         -10.4837  -17.9020   24.0010 C.ar    1  UNL1        0.0212
     19 C         -10.0014  -16.5387   23.6025 C.ar    1  UNL1       -0.0000
     20 C          -9.0743  -15.7781   24.5036 C.ar    1  UNL1        0.0101
     21 N          -6.7754  -14.8596   27.6054 N.1     1  UNL1       -0.1908
     22 C          -7.7025  -15.6201   26.7043 C.1     1  UNL1        0.1004
@<TRIPOS>BOND
     1    21    22    3
     2    22    15    1
     3    15    16   ar
     4    16    17   ar
     5    17    18   ar
     6    18    14    1
     7    14    13    1
     8    13     1    1
     9     1     2   ar
    10     2     3   ar
    11     3     4   ar
    12     4     5   ar
    13     5     6   ar
    14     6     7    1
    15     6     8   ar
    16     8     9   ar
    17     9    10   ar
    18    18    19   ar
    19    19    20   ar
    20    20    15   ar
    21    10     1   ar
    22     9     4   ar
    23     7    11    1
    24     7    12    1
@<TRIPOS>MOLECULE
*****
 22 24 0 0 0
SMALL
GASTEIGER

@<TRIPOS>ATOM
      1 C          -7.5188  -18.5414   21.2803 C.ar    1  UNL1        0.1397
      2 C          -6.1389  -19.1194   21.3884 C.ar    1  UNL1        0.0385
      3 C          -5.1577  -18.5408   22.3643 C.ar    1  UNL1        0.0228
      4 C          -5.5565  -17.3842   23.2322 C.ar    1  UNL1        0.0894
      5 N          -4.8102  -16.6100   24.2781 N.ar    1  UNL1       -0.2245
      6 C          -5.7289  -15.5536   24.8164 C.ar    1  UNL1        0.1567
      7 N          -5.3926  -14.5517   25.8810 N.pl3   1  UNL1       -0.3375
      8 S          -7.0430  -15.6748   24.1032 S.2     1  UNL1       -0.0519
      9 C          -6.9364  -16.8062   23.1242 C.ar    1  UNL1        0.0527
     10 C          -7.9176  -17.3848   22.1482 C.ar    1  UNL1        0.0450
     11 H          -4.4979  -14.5514   26.2918 H       1  UNL1        0.1442
     12 H          -6.0667  -13.8944   26.1689 H       1  UNL1        0.1442
     13 O          -8.5001  -19.1200   20.3044 O.3     1  UNL1       -0.4706
     14 C          -9.8800  -18.5420   20.1964 C.3     1  UNL1        0.2320
     15 C         -12.6215  -18.5815   23.7647 C.ar    1  UNL1        0.0684
     16 C         -11.5298  -19.6034   23.6462 C.ar    1  UNL1        0.0101
     17 C         -10.6160  -19.5903   22.4568 C.ar    1  UNL1       -0.0000
     18 C         -10.7938  -18.5552   21.3859 C.ar    1  UNL1        0.0212
     19 C         -11.8855  -17.5333   21.5043 C.ar    1  UNL1       -0.0000
     20 C         -12.7993  -17.5465   22.6937 C.ar    1  UNL1        0.0101
     21 N         -14.4491  -18.6079   26.1436 N.1     1  UNL1       -0.1908
     22 C         -13.5354  -18.5947   24.9541 C.1     1  UNL1        0.1004
@<TRIPOS>BOND
     1    21    22    3
     2    22    15    1
     3    15    16   ar
     4    16    17   ar
     5    17    18   ar
     6    18    14    1
     7    14    13    1
     8    13     1    1
     9     1     2   ar
    10     2     3   ar
    11     3     4   ar
    12     4     5   ar
    13     5     6   ar
    14     6     7    1
    15     6     8   ar
    16     8     9   ar
    17     9    10   ar
    18    18    19   ar
    19    19    20   ar
    20    20    15   ar
    21    10     1   ar
    22     9     4   ar
    23     7    11    1
    24     7    12    1
@<TRIPOS>MOLECULE
*****
 22 24 0 0 0
SMALL
GASTEIGER

@<TRIPOS>ATOM
      1 C          -5.8125  -19.7457   21.2258 C.ar    1  UNL1        0.1397
      2 C          -5.3338  -20.7422   20.2120 C.ar    1  UNL1        0.0385
      3 C          -3.9329  -20.6592   19.6823 C.ar    1  UNL1        0.0228
      4 C          -3.0107  -19.5797   20.1664 C.ar    1  UNL1        0.0894
      5 N          -1.5872  -19.2493   19.8280 N.ar    1  UNL1       -0.2245
      6 C          -1.1862  -18.0486   20.6326 C.ar    1  UNL1        0.1567
      7 N           0.1551  -17.3774   20.6063 N.pl3   1  UNL1       -0.3375
      8 S          -2.3618  -17.6370   21.4683 S.2     1  UNL1       -0.0519
      9 C          -3.4895  -18.5832   21.1801 C.ar    1  UNL1        0.0527
     10 C          -4.8903  -18.6662   21.7098 C.ar    1  UNL1        0.0450
     11 H           0.8674  -17.7236   20.0214 H       1  UNL1        0.1442
     12 H           0.3231  -16.5908   21.1739 H       1  UNL1        0.1442
     13 O          -7.2134  -19.8287   21.7556 O.3     1  UNL1       -0.4706
     14 C          -8.0834  -18.6069   21.7698 C.3     1  UNL1        0.2320
     15 C          -8.4537  -16.1520   25.5230 C.ar    1  UNL1        0.0684
     16 C          -7.4835  -15.7455   24.4536 C.ar    1  UNL1        0.0101
     17 C          -7.3601  -16.5638   23.2025 C.ar    1  UNL1       -0.0000
     18 C          -8.2068  -17.7885   23.0209 C.ar    1  UNL1        0.0212
     19 C          -9.1770  -18.1950   24.0903 C.ar    1  UNL1       -0.0000
     20 C          -9.3004  -17.3767   25.3413 C.ar    1  UNL1        0.0101
     21 N          -8.7004  -14.5154   28.0251 N.1     1  UNL1       -0.1908
     22 C          -8.5771  -15.3336   26.7741 C.1     1  UNL1        0.1004
@<TRIPOS>BOND
     1    21    22    3
     2    22    15    1
     3    15    16   ar
     4    16    17   ar
     5    17    18   ar
     6    18    14    1
     7    14    13    1
     8    13     1    1
     9     1     2   ar
    10     2     3   ar
    11     3     4   ar
    12     4     5   ar
    13     5     6   ar
    14     6     7    1
    15     6     8   ar
    16     8     9   ar
    17     9    10   ar
    18    18    19   ar
    19    19    20   ar
    20    20    15   ar
    21    10     1   ar
    22     9     4   ar
    23     7    11    1
    24     7    12    1
@<TRIPOS>MOLECULE
*****
 22 24 0 0 0
SMALL
GASTEIGER

@<TRIPOS>ATOM
      1 C         -13.0913   -6.6580   18.4771 C.ar    1  UNL1        0.1397
      2 C         -14.0719   -5.9033   19.3248 C.ar    1  UNL1        0.0385
      3 C         -15.3903   -6.5245   19.6797 C.ar    1  UNL1        0.0228
      4 C         -15.7280   -7.9004   19.1868 C.ar    1  UNL1        0.0894
      5 N         -16.9405   -8.7638   19.3730 N.ar    1  UNL1       -0.2245
      6 C         -16.7091  -10.0520   18.6403 C.ar    1  UNL1        0.1567
      7 N         -17.6653  -11.2051   18.5606 N.pl3   1  UNL1       -0.3375
      8 S         -15.3537   -9.9848   18.0013 S.2     1  UNL1       -0.0519
      9 C         -14.7473   -8.6551   18.3390 C.ar    1  UNL1        0.0527
     10 C         -13.4290   -8.0339   17.9842 C.ar    1  UNL1        0.0450
     11 H         -18.5365  -11.1545   19.0163 H       1  UNL1        0.1442
     12 H         -17.4216  -12.0124   18.0525 H       1  UNL1        0.1442
     13 O         -11.7728   -6.0368   18.1222 O.3     1  UNL1       -0.4706
     14 C         -11.1987   -4.9518   18.9842 C.3     1  UNL1        0.2320
     15 C         -11.6951   -0.6386   17.8012 C.ar    1  UNL1        0.0684
     16 C         -10.6771   -1.4942   17.1073 C.ar    1  UNL1        0.0101
     17 C         -10.5116   -2.9319   17.5016 C.ar    1  UNL1       -0.0000
     18 C         -11.3641   -3.5140   18.5898 C.ar    1  UNL1        0.0212
     19 C         -12.3822   -2.6584   19.2837 C.ar    1  UNL1       -0.0000
     20 C         -12.5477   -1.2207   18.8894 C.ar    1  UNL1        0.0101
     21 N         -12.0261    2.2369   17.0124 N.1     1  UNL1       -0.1908
     22 C         -11.8606    0.7992   17.4068 C.1     1  UNL1        0.1004
@<TRIPOS>BOND
     1    21    22    3
     2    22    15    1
     3    15    16   ar
     4    16    17   ar
     5    17    18   ar
     6    18    14    1
     7    14    13    1
     8    13     1    1
     9     1     2   ar
    10     2     3   ar
    11     3     4   ar
    12     4     5   ar
    13     5     6   ar
    14     6     7    1
    15     6     8   ar
    16     8     9   ar
    17     9    10   ar
    18    18    19   ar
    19    19    20   ar
    20    20    15   ar
    21    10     1   ar
    22     9     4   ar
    23     7    11    1
    24     7    12    1
