@<TRIPOS>MOLECULE
*****
 37 41 0 0 0
SMALL
GASTEIGER

@<TRIPOS>ATOM
      1 C           1.0202    2.1260   32.1020 C.3     1  UNL1        0.0754
      2 C           2.0934    1.6640   33.0426 C.2     1  UNL1        0.1177
      3 C           3.1215    0.6746   32.5796 C.2     1  UNL1        0.1165
      4 C           4.1947    0.2125   33.5201 C.3     1  UNL1        0.2689
      5 N           4.2400    0.7397   34.9236 N.2     1  UNL1       -0.0600
      6 C           3.2120    1.7291   35.3867 C.2     1  UNL1        0.3202
      7 N           2.1387    2.1912   34.4462 N.pl3   1  UNL1       -0.2028
      8 H           1.4640    2.8405   34.7501 H       1  UNL1        0.2982
      9 C           5.2227   -0.7768   33.0571 C.ar    1  UNL1        0.0582
     10 C           6.5100   -0.2952   32.4563 C.ar    1  UNL1        0.0033
     11 C           7.5381   -1.2845   31.9933 C.ar    1  UNL1        0.0114
     12 C           7.2789   -2.7555   32.1311 C.ar    1  UNL1        0.0599
     13 CL          8.3069   -3.7448   31.6681 Cl      1  UNL1       -0.0822
     14 C           5.9916   -3.2372   32.7320 C.ar    1  UNL1        0.0408
     15 C           4.9636   -2.2479   33.1950 C.ar    1  UNL1        0.1413
     16 F           3.6763   -2.7295   33.7958 F       1  UNL1       -0.2043
     17 C           3.2572    2.2564   36.7903 C.ar    1  UNL1        0.0860
     18 C           4.4681    2.9974   37.2744 C.ar    1  UNL1        0.0281
     19 C           4.5133    3.5246   38.6780 C.ar    1  UNL1        0.1001
     20 N           3.3475    3.3109   39.5973 N.ar    1  UNL1       -0.2324
     21 C           2.1365    2.5698   39.1132 C.ar    1  UNL1        0.1386
     22 CL          0.9707    2.3561   40.0325 Cl      1  UNL1       -0.0613
     23 C           2.0914    2.0426   37.7096 C.ar    1  UNL1        0.0382
     24 C           3.0763    0.1473   31.1760 C.2     1  UNL1        0.2530
     25 O           2.2261   -1.0446   30.8497 O.2     1  UNL1       -0.2699
     26 N           3.8812    0.8120   30.0989 N.am    1  UNL1       -0.2787
     27 H           4.4392    1.5943   30.3131 H       1  UNL1        0.1552
     28 C           3.8360    0.2847   28.6953 C.2     1  UNL1        0.0779
     29 C           2.9879    0.9686   27.6641 C.2     1  UNL1        0.0165
     30 C           2.9427    0.4413   26.2606 C.2     1  UNL1        0.0281
     31 C           2.2041    0.9015   25.0389 C.2     1  UNL1        0.1197
     32 N           2.5505   -0.0252   23.9114 N.2     1  UNL1       -0.1508
     33 N           3.5031   -1.0582   24.4363 N.2     1  UNL1       -0.1673
     34 C           3.7455   -0.7699   25.8882 C.3     1  UNL1        0.1732
     35 C           4.5936   -1.4537   26.9193 C.2     1  UNL1        0.0350
     36 C           4.6388   -0.9264   28.3228 C.2     1  UNL1        0.1515
     37 F           5.4869   -1.6102   29.3540 F       1  UNL1       -0.2031
@<TRIPOS>BOND
     1     1     2    1
     2     2     3    2
     3     3    24    1
     4    24    25    2
     5    24    26   am
     6    26    28    1
     7    28    29    2
     8    29    30    1
     9    30    31    2
    10    31    32    1
    11    32    33    2
    12    33    34    1
    13    34    35    1
    14    35    36    2
    15    36    37    1
    16     3     4    1
    17     4     9    1
    18     9    10   ar
    19    10    11   ar
    20    11    12   ar
    21    12    13    1
    22    12    14   ar
    23    14    15   ar
    24    15    16    1
    25     4     5    1
    26     5     6    2
    27     6    17    1
    28    17    18   ar
    29    18    19   ar
    30    19    20   ar
    31    20    21   ar
    32    21    22    1
    33    21    23   ar
    34     6     7    1
    35     7     2    1
    36    36    28    1
    37    15     9   ar
    38    23    17   ar
    39    34    30    1
    40    26    27    1
    41     7     8    1
@<TRIPOS>MOLECULE
*****
 37 41 0 0 0
SMALL
GASTEIGER

@<TRIPOS>ATOM
      1 C          -3.0082    3.6573   20.5593 C.3     1  UNL1        0.0754
      2 C          -1.8179    3.0240   21.2168 C.2     1  UNL1        0.1177
      3 C          -1.5852    3.2111   22.6867 C.2     1  UNL1        0.1165
      4 C          -0.3949    2.5779   23.3442 C.3     1  UNL1        0.2689
      5 N           0.5627    1.7576   22.5318 N.2     1  UNL1       -0.0600
      6 C           0.3300    1.5705   21.0618 C.2     1  UNL1        0.3202
      7 N          -0.8602    2.2037   20.4043 N.pl3   1  UNL1       -0.2028
      8 H          -1.0130    2.0809   19.4395 H       1  UNL1        0.2982
      9 C          -0.1622    2.7650   24.8142 C.ar    1  UNL1        0.0582
     10 C          -0.5890    1.7018   25.7824 C.ar    1  UNL1        0.0033
     11 C          -0.3563    1.8888   27.2524 C.ar    1  UNL1        0.0114
     12 C           0.3033    3.1390   27.7542 C.ar    1  UNL1        0.0599
     13 CL          0.5360    3.3261   29.2242 Cl      1  UNL1       -0.0822
     14 C           0.7301    4.2023   26.7860 C.ar    1  UNL1        0.0408
     15 C           0.4974    4.0153   25.3161 C.ar    1  UNL1        0.1413
     16 F           0.9243    5.0785   24.3479 F       1  UNL1       -0.2043
     17 C           1.2876    0.7502   20.2492 C.ar    1  UNL1        0.0860
     18 C           1.5522    1.1068   18.8165 C.ar    1  UNL1        0.0281
     19 C           2.5098    0.2865   18.0040 C.ar    1  UNL1        0.1001
     20 N           3.2027   -0.8905   18.6243 N.ar    1  UNL1       -0.2324
     21 C           2.9380   -1.2471   20.0570 C.ar    1  UNL1        0.1386
     22 CL          3.6309   -2.4241   20.6772 Cl      1  UNL1       -0.0613
     23 C           1.9804   -0.4268   20.8694 C.ar    1  UNL1        0.0382
     24 C          -2.5427    4.0314   23.4993 C.2     1  UNL1        0.2530
     25 O          -2.3256    5.5080   23.6489 O.2     1  UNL1       -0.2699
     26 N          -3.7174    3.3751   24.1621 N.am    1  UNL1       -0.2787
     27 H          -3.8599    2.4059   24.0639 H       1  UNL1        0.1552
     28 C          -4.6750    4.1954   24.9747 C.2     1  UNL1        0.0779
     29 C          -5.9963    4.6015   24.3921 C.2     1  UNL1        0.0165
     30 C          -6.9538    5.4218   25.2047 C.2     1  UNL1        0.0281
     31 C          -8.3175    5.9672   24.8999 C.2     1  UNL1        0.1197
     32 N          -8.7965    6.7185   26.1065 N.2     1  UNL1       -0.1508
     33 N          -7.7289    6.6374   27.1571 N.2     1  UNL1       -0.1673
     34 C          -6.5900    5.8360   26.5997 C.3     1  UNL1        0.1732
     35 C          -5.2688    5.4300   27.1822 C.2     1  UNL1        0.0350
     36 C          -4.3112    4.6097   26.3697 C.2     1  UNL1        0.1515
     37 F          -2.9899    4.2036   26.9522 F       1  UNL1       -0.2031
@<TRIPOS>BOND
     1     1     2    1
     2     2     3    2
     3     3    24    1
     4    24    25    2
     5    24    26   am
     6    26    28    1
     7    28    29    2
     8    29    30    1
     9    30    31    2
    10    31    32    1
    11    32    33    2
    12    33    34    1
    13    34    35    1
    14    35    36    2
    15    36    37    1
    16     3     4    1
    17     4     9    1
    18     9    10   ar
    19    10    11   ar
    20    11    12   ar
    21    12    13    1
    22    12    14   ar
    23    14    15   ar
    24    15    16    1
    25     4     5    1
    26     5     6    2
    27     6    17    1
    28    17    18   ar
    29    18    19   ar
    30    19    20   ar
    31    20    21   ar
    32    21    22    1
    33    21    23   ar
    34     6     7    1
    35     7     2    1
    36    36    28    1
    37    15     9   ar
    38    23    17   ar
    39    34    30    1
    40    26    27    1
    41     7     8    1
@<TRIPOS>MOLECULE
*****
 37 41 0 0 0
SMALL
GASTEIGER

@<TRIPOS>ATOM
      1 C          -0.7851    3.2866   24.8760 C.3     1  UNL1        0.0754
      2 C          -0.9788    3.0325   23.4104 C.2     1  UNL1        0.1177
      3 C          -2.1680    3.6080   22.7001 C.2     1  UNL1        0.1165
      4 C          -2.3617    3.3539   21.2346 C.3     1  UNL1        0.2689
      5 N          -1.3661    2.5243   20.4792 N.2     1  UNL1       -0.0600
      6 C          -0.1768    1.9487   21.1895 C.2     1  UNL1        0.3202
      7 N           0.0168    2.2028   22.6550 N.pl3   1  UNL1       -0.2028
      8 H           0.7974    1.8251   23.1212 H       1  UNL1        0.2982
      9 C          -3.5509    3.9294   20.5243 C.ar    1  UNL1        0.0582
     10 C          -4.8748    3.2271   20.5880 C.ar    1  UNL1        0.0033
     11 C          -6.0641    3.8026   19.8777 C.ar    1  UNL1        0.0114
     12 C          -5.9295    5.0804   19.1037 C.ar    1  UNL1        0.0599
     13 CL         -7.1187    5.6559   18.3934 Cl      1  UNL1       -0.0822
     14 C          -4.6055    5.7827   19.0400 C.ar    1  UNL1        0.0408
     15 C          -3.4163    5.2072   19.7502 C.ar    1  UNL1        0.1413
     16 F          -2.0924    5.9095   19.6865 F       1  UNL1       -0.2043
     17 C           0.8187    1.1190   20.4342 C.ar    1  UNL1        0.0860
     18 C           1.0060    1.3291   18.9608 C.ar    1  UNL1        0.0281
     19 C           2.0016    0.4994   18.2056 C.ar    1  UNL1        0.1001
     20 N           2.8099   -0.5403   18.9237 N.ar    1  UNL1       -0.2324
     21 C           2.6227   -0.7503   20.3971 C.ar    1  UNL1        0.1386
     22 CL          3.4310   -1.7900   21.1152 Cl      1  UNL1       -0.0613
     23 C           1.6271    0.0794   21.1523 C.ar    1  UNL1        0.0382
     24 C          -3.1636    4.4377   23.4554 C.2     1  UNL1        0.2530
     25 O          -3.0342    5.9320   23.4740 O.2     1  UNL1       -0.2699
     26 N          -4.2886    3.7730   24.1921 N.am    1  UNL1       -0.2787
     27 H          -4.3735    2.7923   24.1799 H       1  UNL1        0.1552
     28 C          -5.2842    4.6028   24.9474 C.2     1  UNL1        0.0779
     29 C          -6.5493    5.0507   24.2773 C.2     1  UNL1        0.0165
     30 C          -7.5449    5.8803   25.0326 C.2     1  UNL1        0.0281
     31 C          -8.8694    6.4638   24.6388 C.2     1  UNL1        0.1197
     32 N          -9.4186    7.2063   25.8209 N.2     1  UNL1       -0.1508
     33 N          -8.4334    7.0816   26.9451 N.2     1  UNL1       -0.1673
     34 C          -7.2754    6.2621   26.4579 C.3     1  UNL1        0.1732
     35 C          -6.0103    5.8142   27.1280 C.2     1  UNL1        0.0350
     36 C          -5.0148    4.9845   26.3727 C.2     1  UNL1        0.1515
     37 F          -3.7497    4.5367   27.0429 F       1  UNL1       -0.2031
@<TRIPOS>BOND
     1     1     2    1
     2     2     3    2
     3     3    24    1
     4    24    25    2
     5    24    26   am
     6    26    28    1
     7    28    29    2
     8    29    30    1
     9    30    31    2
    10    31    32    1
    11    32    33    2
    12    33    34    1
    13    34    35    1
    14    35    36    2
    15    36    37    1
    16     3     4    1
    17     4     9    1
    18     9    10   ar
    19    10    11   ar
    20    11    12   ar
    21    12    13    1
    22    12    14   ar
    23    14    15   ar
    24    15    16    1
    25     4     5    1
    26     5     6    2
    27     6    17    1
    28    17    18   ar
    29    18    19   ar
    30    19    20   ar
    31    20    21   ar
    32    21    22    1
    33    21    23   ar
    34     6     7    1
    35     7     2    1
    36    36    28    1
    37    15     9   ar
    38    23    17   ar
    39    34    30    1
    40    26    27    1
    41     7     8    1
@<TRIPOS>MOLECULE
*****
 37 41 0 0 0
SMALL
GASTEIGER

@<TRIPOS>ATOM
      1 C           3.3531    0.9694   33.7513 C.3     1  UNL1        0.0754
      2 C           2.4160    1.8337   32.9609 C.2     1  UNL1        0.1177
      3 C           2.1439    1.5218   31.5191 C.2     1  UNL1        0.1165
      4 C           1.2068    2.3861   30.7287 C.3     1  UNL1        0.2689
      5 N           0.5417    3.5623   31.3800 N.2     1  UNL1       -0.0600
      6 C           0.8137    3.8742   32.8218 C.2     1  UNL1        0.3202
      7 N           1.7508    3.0099   33.6122 N.pl3   1  UNL1       -0.2028
      8 H           1.9293    3.2146   34.5585 H       1  UNL1        0.2982
      9 C           0.9348    2.0743   29.2869 C.ar    1  UNL1        0.0582
     10 C           1.8226    2.6378   28.2172 C.ar    1  UNL1        0.0033
     11 C           1.5507    2.3260   26.7754 C.ar    1  UNL1        0.0114
     12 C           0.3908    1.4507   26.4032 C.ar    1  UNL1        0.0599
     13 CL          0.1188    1.1388   24.9614 Cl      1  UNL1       -0.0822
     14 C          -0.4971    0.8871   27.4730 C.ar    1  UNL1        0.0408
     15 C          -0.2251    1.1989   28.9147 C.ar    1  UNL1        0.1413
     16 F          -1.1130    0.6354   29.9843 F       1  UNL1       -0.2043
     17 C           0.1486    5.0503   33.4732 C.ar    1  UNL1        0.0860
     18 C           0.6911    5.6020   34.7582 C.ar    1  UNL1        0.0281
     19 C           0.0260    6.7781   35.4095 C.ar    1  UNL1        0.1001
     20 N          -1.1817    7.4026   34.7759 N.ar    1  UNL1       -0.2324
     21 C          -1.7243    6.8509   33.4908 C.ar    1  UNL1        0.1386
     22 CL         -2.9320    7.4754   32.8572 Cl      1  UNL1       -0.0613
     23 C          -1.0591    5.6748   32.8395 C.ar    1  UNL1        0.0382
     24 C           2.8090    0.3457   30.8677 C.2     1  UNL1        0.2530
     25 O           2.0942   -0.9705   30.7874 O.2     1  UNL1       -0.2699
     26 N           4.1890    0.4858   30.2967 N.am    1  UNL1       -0.2787
     27 H           4.6582    1.3497   30.3494 H       1  UNL1        0.1552
     28 C           4.8541   -0.6904   29.6452 C.2     1  UNL1        0.0779
     29 C           5.7986   -1.5492   30.4331 C.2     1  UNL1        0.0165
     30 C           6.4636   -2.7253   29.7817 C.2     1  UNL1        0.0281
     31 C           7.4337   -3.7446   30.3014 C.2     1  UNL1        0.1197
     32 N           7.7539   -4.6919   29.1834 N.2     1  UNL1       -0.1508
     33 N           6.9818   -4.2582   27.9727 N.2     1  UNL1       -0.1673
     34 C           6.1843   -3.0427   28.3425 C.3     1  UNL1        0.1732
     35 C           5.2399   -2.1839   27.5547 C.2     1  UNL1        0.0350
     36 C           4.5748   -1.0078   28.2061 C.2     1  UNL1        0.1515
     37 F           3.6304   -0.1490   27.4183 F       1  UNL1       -0.2031
@<TRIPOS>BOND
     1     1     2    1
     2     2     3    2
     3     3    24    1
     4    24    25    2
     5    24    26   am
     6    26    28    1
     7    28    29    2
     8    29    30    1
     9    30    31    2
    10    31    32    1
    11    32    33    2
    12    33    34    1
    13    34    35    1
    14    35    36    2
    15    36    37    1
    16     3     4    1
    17     4     9    1
    18     9    10   ar
    19    10    11   ar
    20    11    12   ar
    21    12    13    1
    22    12    14   ar
    23    14    15   ar
    24    15    16    1
    25     4     5    1
    26     5     6    2
    27     6    17    1
    28    17    18   ar
    29    18    19   ar
    30    19    20   ar
    31    20    21   ar
    32    21    22    1
    33    21    23   ar
    34     6     7    1
    35     7     2    1
    36    36    28    1
    37    15     9   ar
    38    23    17   ar
    39    34    30    1
    40    26    27    1
    41     7     8    1
@<TRIPOS>MOLECULE
*****
 37 41 0 0 0
SMALL
GASTEIGER

@<TRIPOS>ATOM
      1 C           5.0814   -1.0331   27.1654 C.3     1  UNL1        0.0754
      2 C           4.1049   -0.5884   26.1172 C.2     1  UNL1        0.1177
      3 C           3.0549    0.4287   26.4535 C.2     1  UNL1        0.1165
      4 C           2.0785    0.8734   25.4053 C.3     1  UNL1        0.2689
      5 N           2.1520    0.3012   24.0207 N.2     1  UNL1       -0.0600
      6 C           3.2021   -0.7159   23.6843 C.2     1  UNL1        0.3202
      7 N           4.1785   -1.1606   24.7325 N.pl3   1  UNL1       -0.2028
      8 H           4.8676   -1.8281   24.5117 H       1  UNL1        0.2982
      9 C           1.0285    1.8904   25.7416 C.ar    1  UNL1        0.0582
     10 C          -0.3321    1.4441   26.1883 C.ar    1  UNL1        0.0033
     11 C          -1.3823    2.4611   26.5246 C.ar    1  UNL1        0.0114
     12 C          -1.0717    3.9244   26.4143 C.ar    1  UNL1        0.0599
     13 CL         -2.1217    4.9414   26.7506 Cl      1  UNL1       -0.0822
     14 C           0.2890    4.3708   25.9675 C.ar    1  UNL1        0.0408
     15 C           1.3390    3.3538   25.6312 C.ar    1  UNL1        0.1413
     16 F           2.6996    3.8001   25.1846 F       1  UNL1       -0.2043
     17 C           3.2757   -1.2882   22.2997 C.ar    1  UNL1        0.0860
     18 C           2.4117   -0.7272   21.2093 C.ar    1  UNL1        0.0281
     19 C           2.4854   -1.2995   19.8248 C.ar    1  UNL1        0.1001
     20 N           3.4230   -2.4328   19.5306 N.ar    1  UNL1       -0.2324
     21 C           4.2869   -2.9938   20.6210 C.ar    1  UNL1        0.1386
     22 CL          5.2245   -4.1271   20.3268 Cl      1  UNL1       -0.0613
     23 C           4.2133   -2.4215   22.0055 C.ar    1  UNL1        0.0382
     24 C           2.9813    1.0010   27.8381 C.2     1  UNL1        0.2530
     25 O           3.7946    2.2100   28.1941 O.2     1  UNL1       -0.2699
     26 N           2.0944    0.3642   28.8666 N.am    1  UNL1       -0.2787
     27 H           1.5606   -0.4293   28.6330 H       1  UNL1        0.1552
     28 C           2.0208    0.9365   30.2513 C.2     1  UNL1        0.0779
     29 C           2.9843    0.4768   31.3050 C.2     1  UNL1        0.0165
     30 C           2.9107    1.0491   32.6896 C.2     1  UNL1        0.0281
     31 C           3.7198    0.7920   33.9262 C.2     1  UNL1        0.1197
     32 N           3.1827    1.6651   35.0213 N.2     1  UNL1       -0.1508
     33 N           2.0417    2.4619   34.4615 N.2     1  UNL1       -0.1673
     34 C           1.8736    2.0811   33.0204 C.3     1  UNL1        0.1732
     35 C           0.9101    2.5408   31.9666 C.2     1  UNL1        0.0350
     36 C           0.9837    1.9685   30.5821 C.2     1  UNL1        0.1515
     37 F           0.0202    2.4282   29.5283 F       1  UNL1       -0.2031
@<TRIPOS>BOND
     1     1     2    1
     2     2     3    2
     3     3    24    1
     4    24    25    2
     5    24    26   am
     6    26    28    1
     7    28    29    2
     8    29    30    1
     9    30    31    2
    10    31    32    1
    11    32    33    2
    12    33    34    1
    13    34    35    1
    14    35    36    2
    15    36    37    1
    16     3     4    1
    17     4     9    1
    18     9    10   ar
    19    10    11   ar
    20    11    12   ar
    21    12    13    1
    22    12    14   ar
    23    14    15   ar
    24    15    16    1
    25     4     5    1
    26     5     6    2
    27     6    17    1
    28    17    18   ar
    29    18    19   ar
    30    19    20   ar
    31    20    21   ar
    32    21    22    1
    33    21    23   ar
    34     6     7    1
    35     7     2    1
    36    36    28    1
    37    15     9   ar
    38    23    17   ar
    39    34    30    1
    40    26    27    1
    41     7     8    1
@<TRIPOS>MOLECULE
*****
 37 41 0 0 0
SMALL
GASTEIGER

@<TRIPOS>ATOM
      1 C           4.4001   -1.1707   26.7679 C.3     1  UNL1        0.0754
      2 C           5.0898   -1.9611   27.8401 C.2     1  UNL1        0.1177
      3 C           5.0548   -1.4857   29.2623 C.2     1  UNL1        0.1165
      4 C           5.7445   -2.2761   30.3345 C.3     1  UNL1        0.2689
      5 N           6.4693   -3.5418   29.9845 N.2     1  UNL1       -0.0600
      6 C           6.5044   -4.0173   28.5622 C.2     1  UNL1        0.3202
      7 N           5.8147   -3.2269   27.4901 N.pl3   1  UNL1       -0.2028
      8 H           5.8377   -3.5389   26.5566 H       1  UNL1        0.2982
      9 C           5.7094   -1.8008   31.7568 C.ar    1  UNL1        0.0582
     10 C           4.5512   -2.1605   32.6394 C.ar    1  UNL1        0.0033
     11 C           4.5161   -1.6852   34.0617 C.ar    1  UNL1        0.0114
     12 C           5.6392   -0.8501   34.6013 C.ar    1  UNL1        0.0599
     13 CL          5.6041   -0.3748   36.0236 Cl      1  UNL1       -0.0822
     14 C           6.7975   -0.4903   33.7186 C.ar    1  UNL1        0.0408
     15 C           6.8326   -0.9656   32.2964 C.ar    1  UNL1        0.1413
     16 F           7.9908   -0.6059   31.4138 F       1  UNL1       -0.2043
     17 C           7.2292   -5.2830   28.2121 C.ar    1  UNL1        0.0860
     18 C           8.0101   -6.0153   29.2628 C.ar    1  UNL1        0.0281
     19 C           8.7348   -7.2810   28.9126 C.ar    1  UNL1        0.1001
     20 N           8.6787   -7.8145   27.5118 N.ar    1  UNL1       -0.2324
     21 C           7.8977   -7.0822   26.4611 C.ar    1  UNL1        0.1386
     22 CL          7.8416   -7.6157   25.0604 Cl      1  UNL1       -0.0613
     23 C           7.1730   -5.8165   26.8113 C.ar    1  UNL1        0.0382
     24 C           4.3300   -0.2200   29.6124 C.2     1  UNL1        0.2530
     25 O           5.0242    1.1030   29.4797 O.2     1  UNL1       -0.2699
     26 N           2.9110   -0.2773   30.0953 N.am    1  UNL1       -0.2787
     27 H           2.4553   -1.1456   30.1824 H       1  UNL1        0.1552
     28 C           2.1862    0.9886   30.4454 C.2     1  UNL1        0.0779
     29 C           2.2173    1.5058   31.8532 C.2     1  UNL1        0.0165
     30 C           1.4925    2.7715   32.2032 C.2     1  UNL1        0.0281
     31 C           1.3452    3.5192   33.4952 C.2     1  UNL1        0.1197
     32 N           0.4983    4.7298   33.2361 N.2     1  UNL1       -0.1508
     33 N           0.1222    4.7304   31.7840 N.2     1  UNL1       -0.1673
     34 C           0.7367    3.5200   31.1457 C.3     1  UNL1        0.1732
     35 C           0.7056    3.0028   29.7380 C.2     1  UNL1        0.0350
     36 C           1.4304    1.7370   29.3879 C.2     1  UNL1        0.1515
     37 F           1.3993    1.2198   27.9802 F       1  UNL1       -0.2031
@<TRIPOS>BOND
     1     1     2    1
     2     2     3    2
     3     3    24    1
     4    24    25    2
     5    24    26   am
     6    26    28    1
     7    28    29    2
     8    29    30    1
     9    30    31    2
    10    31    32    1
    11    32    33    2
    12    33    34    1
    13    34    35    1
    14    35    36    2
    15    36    37    1
    16     3     4    1
    17     4     9    1
    18     9    10   ar
    19    10    11   ar
    20    11    12   ar
    21    12    13    1
    22    12    14   ar
    23    14    15   ar
    24    15    16    1
    25     4     5    1
    26     5     6    2
    27     6    17    1
    28    17    18   ar
    29    18    19   ar
    30    19    20   ar
    31    20    21   ar
    32    21    22    1
    33    21    23   ar
    34     6     7    1
    35     7     2    1
    36    36    28    1
    37    15     9   ar
    38    23    17   ar
    39    34    30    1
    40    26    27    1
    41     7     8    1
@<TRIPOS>MOLECULE
*****
 37 41 0 0 0
SMALL
GASTEIGER

@<TRIPOS>ATOM
      1 C           6.3108   -2.7928   28.0435 C.3     1  UNL1        0.0754
      2 C           5.3567   -2.0091   27.1917 C.2     1  UNL1        0.1177
      3 C           4.5746   -0.8769   27.7887 C.2     1  UNL1        0.1165
      4 C           3.6205   -0.0932   26.9369 C.3     1  UNL1        0.2689
      5 N           3.4485   -0.4418   25.4881 N.2     1  UNL1       -0.0600
      6 C           4.2306   -1.5740   24.8911 C.2     1  UNL1        0.3202
      7 N           5.1847   -2.3577   25.7429 N.pl3   1  UNL1       -0.2028
      8 H           5.6980   -3.1008   25.3511 H       1  UNL1        0.2982
      9 C           2.8384    1.0390   27.5338 C.ar    1  UNL1        0.0582
     10 C           3.2990    2.4532   27.3395 C.ar    1  UNL1        0.0033
     11 C           2.5170    3.5856   27.9364 C.ar    1  UNL1        0.0114
     12 C           1.2742    3.3036   28.7276 C.ar    1  UNL1        0.0599
     13 CL          0.4921    4.4358   29.3246 Cl      1  UNL1       -0.0822
     14 C           0.8135    1.8893   28.9219 C.ar    1  UNL1        0.0408
     15 C           1.5956    0.7571   28.3251 C.ar    1  UNL1        0.1413
     16 F           1.1349   -0.6571   28.5193 F       1  UNL1       -0.2043
     17 C           4.0586   -1.9226   23.4423 C.ar    1  UNL1        0.0860
     18 C           4.7269   -3.1421   22.8799 C.ar    1  UNL1        0.0281
     19 C           4.5548   -3.4906   21.4312 C.ar    1  UNL1        0.1001
     20 N           3.7146   -2.6197   20.5449 N.ar    1  UNL1       -0.2324
     21 C           3.0464   -1.4002   21.1073 C.ar    1  UNL1        0.1386
     22 CL          2.2061   -0.5294   20.2210 Cl      1  UNL1       -0.0613
     23 C           3.2184   -1.0517   22.5560 C.ar    1  UNL1        0.0382
     24 C           4.7466   -0.5283   29.2374 C.2     1  UNL1        0.2530
     25 O           5.8157    0.4376   29.6546 O.2     1  UNL1       -0.2699
     26 N           3.8494   -1.1456   30.2690 N.am    1  UNL1       -0.2787
     27 H           3.1477   -1.7795   29.9952 H       1  UNL1        0.1552
     28 C           4.0214   -0.7970   31.7178 C.2     1  UNL1        0.0779
     29 C           3.3912    0.4474   32.2697 C.2     1  UNL1        0.0165
     30 C           3.5632    0.7960   33.7184 C.2     1  UNL1        0.0281
     31 C           3.0637    1.9474   34.5398 C.2     1  UNL1        0.1197
     32 N           3.5572    1.7633   35.9443 N.2     1  UNL1       -0.1508
     33 N           4.3617    0.4982   35.9910 N.2     1  UNL1       -0.1673
     34 C           4.3654   -0.0997   34.6153 C.3     1  UNL1        0.1732
     35 C           4.9956   -1.3440   34.0633 C.2     1  UNL1        0.0350
     36 C           4.8236   -1.6926   32.6146 C.2     1  UNL1        0.1515
     37 F           5.4538   -2.9369   32.0627 F       1  UNL1       -0.2031
@<TRIPOS>BOND
     1     1     2    1
     2     2     3    2
     3     3    24    1
     4    24    25    2
     5    24    26   am
     6    26    28    1
     7    28    29    2
     8    29    30    1
     9    30    31    2
    10    31    32    1
    11    32    33    2
    12    33    34    1
    13    34    35    1
    14    35    36    2
    15    36    37    1
    16     3     4    1
    17     4     9    1
    18     9    10   ar
    19    10    11   ar
    20    11    12   ar
    21    12    13    1
    22    12    14   ar
    23    14    15   ar
    24    15    16    1
    25     4     5    1
    26     5     6    2
    27     6    17    1
    28    17    18   ar
    29    18    19   ar
    30    19    20   ar
    31    20    21   ar
    32    21    22    1
    33    21    23   ar
    34     6     7    1
    35     7     2    1
    36    36    28    1
    37    15     9   ar
    38    23    17   ar
    39    34    30    1
    40    26    27    1
    41     7     8    1
@<TRIPOS>MOLECULE
*****
 37 41 0 0 0
SMALL
GASTEIGER

@<TRIPOS>ATOM
      1 C           3.6280   -0.7553   26.8464 C.3     1  UNL1        0.0754
      2 C           4.6320   -1.7003   26.2558 C.2     1  UNL1        0.1177
      3 C           4.9282   -1.6574   24.7860 C.2     1  UNL1        0.1165
      4 C           5.9323   -2.6024   24.1953 C.3     1  UNL1        0.2689
      5 N           6.6401   -3.5903   25.0745 N.2     1  UNL1       -0.0600
      6 C           6.3440   -3.6332   26.5444 C.2     1  UNL1        0.3202
      7 N           5.3399   -2.6882   27.1350 N.pl3   1  UNL1       -0.2028
      8 H           5.1456   -2.7164   28.0997 H       1  UNL1        0.2982
      9 C           6.2285   -2.5595   22.7255 C.ar    1  UNL1        0.0582
     10 C           7.3715   -1.7335   22.2146 C.ar    1  UNL1        0.0033
     11 C           7.6678   -1.6905   20.7447 C.ar    1  UNL1        0.0114
     12 C           6.8210   -2.4737   19.7858 C.ar    1  UNL1        0.0599
     13 CL          7.1172   -2.4308   18.3160 Cl      1  UNL1       -0.0822
     14 C           5.6779   -3.2998   20.2968 C.ar    1  UNL1        0.0408
     15 C           5.3816   -3.3427   21.7665 C.ar    1  UNL1        0.1413
     16 F           4.2386   -4.1687   22.2774 F       1  UNL1       -0.2043
     17 C           7.0518   -4.6211   27.4236 C.ar    1  UNL1        0.0860
     18 C           8.1445   -5.4797   26.8588 C.ar    1  UNL1        0.0281
     19 C           8.8522   -6.4675   27.7381 C.ar    1  UNL1        0.1001
     20 N           8.4674   -6.5969   29.1821 N.ar    1  UNL1       -0.2324
     21 C           7.3747   -5.7383   29.7469 C.ar    1  UNL1        0.1386
     22 CL          6.9899   -5.8676   31.1909 Cl      1  UNL1       -0.0613
     23 C           6.6670   -4.7504   28.8676 C.ar    1  UNL1        0.0382
     24 C           4.2204   -0.6695   23.9068 C.2     1  UNL1        0.2530
     25 O           4.8020    0.6967   23.6942 O.2     1  UNL1       -0.2699
     26 N           2.9310   -1.0478   23.2401 N.am    1  UNL1       -0.2787
     27 H           2.5493   -1.9446   23.3797 H       1  UNL1        0.1552
     28 C           2.2232   -0.0599   22.3609 C.2     1  UNL1        0.0779
     29 C           2.2301   -0.2414   20.8718 C.2     1  UNL1        0.0165
     30 C           1.5223    0.7465   19.9926 C.2     1  UNL1        0.0281
     31 C           1.3583    0.8279   18.5039 C.2     1  UNL1        0.1197
     32 N           0.5422    2.0476   18.1935 N.2     1  UNL1       -0.1508
     33 N           0.2018    2.7200   19.4904 N.2     1  UNL1       -0.1673
     34 C           0.8076    1.9159   20.6024 C.3     1  UNL1        0.1732
     35 C           0.8007    2.0973   22.0914 C.2     1  UNL1        0.0350
     36 C           1.5085    1.1094   22.9705 C.2     1  UNL1        0.1515
     37 F           1.5016    1.2909   24.4596 F       1  UNL1       -0.2031
@<TRIPOS>BOND
     1     1     2    1
     2     2     3    2
     3     3    24    1
     4    24    25    2
     5    24    26   am
     6    26    28    1
     7    28    29    2
     8    29    30    1
     9    30    31    2
    10    31    32    1
    11    32    33    2
    12    33    34    1
    13    34    35    1
    14    35    36    2
    15    36    37    1
    16     3     4    1
    17     4     9    1
    18     9    10   ar
    19    10    11   ar
    20    11    12   ar
    21    12    13    1
    22    12    14   ar
    23    14    15   ar
    24    15    16    1
    25     4     5    1
    26     5     6    2
    27     6    17    1
    28    17    18   ar
    29    18    19   ar
    30    19    20   ar
    31    20    21   ar
    32    21    22    1
    33    21    23   ar
    34     6     7    1
    35     7     2    1
    36    36    28    1
    37    15     9   ar
    38    23    17   ar
    39    34    30    1
    40    26    27    1
    41     7     8    1
@<TRIPOS>MOLECULE
*****
 37 41 0 0 0
SMALL
GASTEIGER

@<TRIPOS>ATOM
      1 C           3.5904   -0.5537   27.8187 C.3     1  UNL1        0.0754
      2 C           4.2740   -1.1888   26.6443 C.2     1  UNL1        0.1177
      3 C           3.9750   -0.7112   25.2541 C.2     1  UNL1        0.1165
      4 C           4.6586   -1.3463   24.0797 C.3     1  UNL1        0.2689
      5 N           5.6412   -2.4590   24.2953 N.2     1  UNL1       -0.0600
      6 C           5.9403   -2.9366   25.6854 C.2     1  UNL1        0.3202
      7 N           5.2567   -2.3015   26.8599 N.pl3   1  UNL1       -0.2028
      8 H           5.4530   -2.6149   27.7723 H       1  UNL1        0.2982
      9 C           4.3595   -0.8688   22.6895 C.ar    1  UNL1        0.0582
     10 C           3.2803   -1.5306   21.8850 C.ar    1  UNL1        0.0033
     11 C           2.9812   -1.0532   20.4948 C.ar    1  UNL1        0.0114
     12 C           3.7614    0.0862   19.9091 C.ar    1  UNL1        0.0599
     13 CL          3.4624    0.5637   18.5189 Cl      1  UNL1       -0.0822
     14 C           4.8408    0.7481   20.7136 C.ar    1  UNL1        0.0408
     15 C           5.1398    0.2706   22.1037 C.ar    1  UNL1        0.1413
     16 F           6.2191    0.9324   22.9081 F       1  UNL1       -0.2043
     17 C           6.9229   -4.0492   25.9012 C.ar    1  UNL1        0.0860
     18 C           7.7394   -4.0954   27.1586 C.ar    1  UNL1        0.0281
     19 C           8.7220   -5.2080   27.3742 C.ar    1  UNL1        0.1001
     20 N           8.8880   -6.2744   26.3325 N.ar    1  UNL1       -0.2324
     21 C           8.0715   -6.2282   25.0751 C.ar    1  UNL1        0.1386
     22 CL          8.2375   -7.2946   24.0333 Cl      1  UNL1       -0.0613
     23 C           7.0889   -5.1156   24.8594 C.ar    1  UNL1        0.0382
     24 C           2.9924    0.4014   25.0384 C.2     1  UNL1        0.2530
     25 O           3.4514    1.8284   25.0928 O.2     1  UNL1       -0.2699
     26 N           1.5508    0.0870   24.7683 N.am    1  UNL1       -0.2787
     27 H           1.2495   -0.8496   24.7326 H       1  UNL1        0.1552
     28 C           0.5681    1.1997   24.5526 C.2     1  UNL1        0.0779
     29 C          -0.3485    1.6168   25.6643 C.2     1  UNL1        0.0165
     30 C          -1.3311    2.7295   25.4486 C.2     1  UNL1        0.0281
     31 C          -2.3535    3.3545   26.3508 C.2     1  UNL1        0.1197
     32 N          -3.0514    4.4363   25.5809 N.2     1  UNL1       -0.1508
     33 N          -2.4603    4.4799   24.2030 N.2     1  UNL1       -0.1673
     34 C          -1.3970    3.4249   24.1212 C.3     1  UNL1        0.1732
     35 C          -0.4804    3.0078   23.0095 C.2     1  UNL1        0.0350
     36 C           0.5021    1.8952   23.2253 C.2     1  UNL1        0.1515
     37 F           1.4188    1.4780   22.1135 F       1  UNL1       -0.2031
@<TRIPOS>BOND
     1     1     2    1
     2     2     3    2
     3     3    24    1
     4    24    25    2
     5    24    26   am
     6    26    28    1
     7    28    29    2
     8    29    30    1
     9    30    31    2
    10    31    32    1
    11    32    33    2
    12    33    34    1
    13    34    35    1
    14    35    36    2
    15    36    37    1
    16     3     4    1
    17     4     9    1
    18     9    10   ar
    19    10    11   ar
    20    11    12   ar
    21    12    13    1
    22    12    14   ar
    23    14    15   ar
    24    15    16    1
    25     4     5    1
    26     5     6    2
    27     6    17    1
    28    17    18   ar
    29    18    19   ar
    30    19    20   ar
    31    20    21   ar
    32    21    22    1
    33    21    23   ar
    34     6     7    1
    35     7     2    1
    36    36    28    1
    37    15     9   ar
    38    23    17   ar
    39    34    30    1
    40    26    27    1
    41     7     8    1
