@<TRIPOS>MOLECULE
*****
 40 45 0 0 0
SMALL
GASTEIGER

@<TRIPOS>ATOM
      1 N           3.6570    1.4203   35.4932 N.3     1  UNL1       -0.2676
      2 C           4.4762    0.5141   34.6227 C.3     1  UNL1        0.0746
      3 C           4.1413    0.3672   33.1680 C.3     1  UNL1        0.0449
      4 C           2.9872    1.1266   32.5837 C.3     1  UNL1        0.1391
      5 C           2.1679    2.0327   33.4542 C.3     1  UNL1        0.0449
      6 C           2.5028    2.1796   34.9089 C.3     1  UNL1        0.0746
      7 C           1.8686    1.8182   31.8623 C.2     1  UNL1        0.2529
      8 O           0.8885    2.7781   32.4690 O.2     1  UNL1       -0.2724
      9 N           1.9021    1.3813   30.4276 N.am    1  UNL1       -0.1907
     10 C           3.0415    0.4197   30.2625 C.2     1  UNL1        0.3219
     11 O           3.4402   -0.2643   28.9885 O.2     1  UNL1       -0.2512
     12 N           3.7120    0.2623   31.5949 N.am    1  UNL1       -0.2222
     13 C           4.8991   -0.6068   31.8874 C.ar    1  UNL1        0.1453
     14 C           4.7028   -2.0532   32.2330 C.ar    1  UNL1        0.0922
     15 C           5.8899   -2.9222   32.5254 C.ar    1  UNL1        0.2259
     16 O           5.6935   -4.3686   32.8710 O.3     1  UNL1       -0.4919
     17 N           7.2733   -2.3450   32.4723 N.ar    1  UNL1       -0.1894
     18 C           7.4697   -0.8986   32.1268 C.ar    1  UNL1        0.2027
     19 N           6.2826   -0.0296   31.8343 N.ar    1  UNL1       -0.2084
     20 H           4.8293   -4.7292   32.9042 H       1  UNL1        0.2938
     21 C           0.9615    1.8277   29.3478 C.ar    1  UNL1        0.0622
     22 C           0.9662    3.2569   28.8927 C.ar    1  UNL1        0.0154
     23 C           0.0256    3.7033   27.8130 C.ar    1  UNL1        0.0013
     24 C          -0.9197    2.7205   27.1883 C.ar    1  UNL1        0.0001
     25 C          -0.9244    1.2912   27.6434 C.ar    1  UNL1        0.0013
     26 C           0.0162    0.8448   28.7232 C.ar    1  UNL1        0.0154
     27 C          -1.8603    3.1668   26.1085 C.ar    1  UNL1        0.0000
     28 C          -3.2495    3.6102   26.4600 C.ar    1  UNL1        0.0000
     29 C          -4.1901    4.0566   25.3802 C.ar    1  UNL1        0.0000
     30 C          -3.7416    4.0596   23.9488 C.ar    1  UNL1        0.0000
     31 C          -2.3524    3.6162   23.5973 C.ar    1  UNL1        0.0000
     32 C          -1.4117    3.1698   24.6771 C.ar    1  UNL1        0.0000
     33 C           3.9919    1.5672   36.9480 C.3     1  UNL1        0.1183
     34 C           2.8950    4.1574   37.9909 C.3     1  UNL1        0.0323
     35 C           2.3492    2.8545   38.4954 C.ar    1  UNL1       -0.0069
     36 C           1.2551    2.8466   39.5214 C.ar    1  UNL1       -0.0015
     37 C           0.7093    1.5437   40.0260 C.ar    1  UNL1        0.0203
     38 C           1.2578    0.2486   39.5045 C.ar    1  UNL1        0.0985
     39 N           2.3520    0.2564   38.4785 N.ar    1  UNL1       -0.2471
     40 C           2.8977    1.5593   37.9739 C.ar    1  UNL1        0.0712
@<TRIPOS>BOND
     1    34    35    1
     2    35    36   ar
     3    36    37   ar
     4    37    38   ar
     5    38    39   ar
     6    39    40   ar
     7    40    33    1
     8    33     1    1
     9     1     2    1
    10     2     3    1
    11     3     4    1
    12     4     5    1
    13     5     6    1
    14     4     7    1
    15     7     8    2
    16     7     9   am
    17     9    21    1
    18    21    22   ar
    19    22    23   ar
    20    23    24   ar
    21    24    27    1
    22    27    28   ar
    23    28    29   ar
    24    29    30   ar
    25    30    31   ar
    26    31    32   ar
    27    24    25   ar
    28    25    26   ar
    29     9    10   am
    30    10    11    2
    31    10    12   am
    32    12    13    1
    33    13    14   ar
    34    14    15   ar
    35    15    16    1
    36    15    17   ar
    37    17    18   ar
    38    18    19   ar
    39    40    35   ar
    40     6     1    1
    41    26    21   ar
    42    19    13   ar
    43    12     4    1
    44    32    27   ar
    45    16    20    1
@<TRIPOS>MOLECULE
*****
 40 45 0 0 0
SMALL
GASTEIGER

@<TRIPOS>ATOM
      1 N           4.4133    0.6448   35.4488 N.3     1  UNL1       -0.2676
      2 C           5.1685   -0.2316   34.4941 C.3     1  UNL1        0.0746
      3 C           4.7531   -0.3051   33.0547 C.3     1  UNL1        0.0449
      4 C           3.5825    0.4978   32.5700 C.3     1  UNL1        0.1391
      5 C           2.8272    1.3742   33.5247 C.3     1  UNL1        0.0449
      6 C           3.2426    1.4477   34.9641 C.3     1  UNL1        0.0746
      7 C           2.4387    1.2390   31.9434 C.2     1  UNL1        0.2529
      8 O           1.5096    2.1838   32.6463 O.2     1  UNL1       -0.2724
      9 N           2.3872    0.8694   30.4905 N.am    1  UNL1       -0.1907
     10 C           3.4992   -0.1002   30.2192 C.2     1  UNL1        0.3219
     11 O           3.8166   -0.7295   28.8952 O.2     1  UNL1       -0.2512
     12 N           4.2378   -0.3298   31.5043 N.am    1  UNL1       -0.2222
     13 C           5.4237   -1.2292   31.6911 C.ar    1  UNL1        0.1453
     14 C           5.2242   -2.6573   32.1041 C.ar    1  UNL1        0.0922
     15 C           6.4102   -3.5566   32.2909 C.ar    1  UNL1        0.2259
     16 O           6.2107   -4.9847   32.7040 O.3     1  UNL1       -0.4919
     17 N           7.7955   -3.0278   32.0647 N.ar    1  UNL1       -0.1894
     18 C           7.9950   -1.5997   31.6516 C.ar    1  UNL1        0.2027
     19 N           6.8091   -0.7004   31.4648 N.ar    1  UNL1       -0.2084
     20 H           5.3454   -5.3151   32.8453 H       1  UNL1        0.2938
     21 C           1.3976    1.3798   29.4855 C.ar    1  UNL1        0.0622
     22 C           0.3653    0.4545   28.9127 C.ar    1  UNL1        0.0154
     23 C          -0.6243    0.9649   27.9077 C.ar    1  UNL1        0.0013
     24 C          -0.5817    2.4006   27.4754 C.ar    1  UNL1        0.0001
     25 C           0.4507    3.3259   28.0482 C.ar    1  UNL1        0.0013
     26 C           1.4403    2.8155   29.0532 C.ar    1  UNL1        0.0154
     27 C          -1.5713    2.9109   26.4704 C.ar    1  UNL1        0.0000
     28 C          -1.2166    2.9332   25.0131 C.ar    1  UNL1        0.0000
     29 C          -2.2062    3.4436   24.0080 C.ar    1  UNL1        0.0000
     30 C          -3.5506    3.9318   24.4603 C.ar    1  UNL1        0.0000
     31 C          -3.9053    3.9095   25.9176 C.ar    1  UNL1        0.0000
     32 C          -2.9156    3.3990   26.9226 C.ar    1  UNL1        0.0000
     33 C           4.8287    0.7184   36.8883 C.3     1  UNL1        0.1183
     34 C           2.3727    0.9242   38.5989 C.3     1  UNL1        0.0323
     35 C           3.3412    2.0680   38.5364 C.ar    1  UNL1       -0.0069
     36 C           3.0816    3.3146   39.3291 C.ar    1  UNL1       -0.0015
     37 C           4.0501    4.4584   39.2666 C.ar    1  UNL1        0.0203
     38 C           5.2780    4.3555   38.4113 C.ar    1  UNL1        0.0985
     39 N           5.5376    3.1088   37.6185 N.ar    1  UNL1       -0.2471
     40 C           4.5692    1.9650   37.6811 C.ar    1  UNL1        0.0712
@<TRIPOS>BOND
     1    34    35    1
     2    35    36   ar
     3    36    37   ar
     4    37    38   ar
     5    38    39   ar
     6    39    40   ar
     7    40    33    1
     8    33     1    1
     9     1     2    1
    10     2     3    1
    11     3     4    1
    12     4     5    1
    13     5     6    1
    14     4     7    1
    15     7     8    2
    16     7     9   am
    17     9    21    1
    18    21    22   ar
    19    22    23   ar
    20    23    24   ar
    21    24    27    1
    22    27    28   ar
    23    28    29   ar
    24    29    30   ar
    25    30    31   ar
    26    31    32   ar
    27    24    25   ar
    28    25    26   ar
    29     9    10   am
    30    10    11    2
    31    10    12   am
    32    12    13    1
    33    13    14   ar
    34    14    15   ar
    35    15    16    1
    36    15    17   ar
    37    17    18   ar
    38    18    19   ar
    39    40    35   ar
    40     6     1    1
    41    26    21   ar
    42    19    13   ar
    43    12     4    1
    44    32    27   ar
    45    16    20    1
@<TRIPOS>MOLECULE
*****
 40 45 0 0 0
SMALL
GASTEIGER

@<TRIPOS>ATOM
      1 N           2.7189    2.7598   35.0834 N.3     1  UNL1       -0.2676
      2 C           3.4758    1.6175   34.4733 C.3     1  UNL1        0.0746
      3 C           3.2208    1.2248   33.0483 C.3     1  UNL1        0.0449
      4 C           2.2089    1.9743   32.2333 C.3     1  UNL1        0.1391
      5 C           1.4519    3.1166   32.8434 C.3     1  UNL1        0.0449
      6 C           1.7069    3.5093   34.2684 C.3     1  UNL1        0.0746
      7 C           1.2328    2.6271   31.3000 C.2     1  UNL1        0.2529
      8 O           0.3403    3.7873   31.6278 O.2     1  UNL1       -0.2724
      9 N           1.3058    1.9160   29.9812 N.am    1  UNL1       -0.1907
     10 C           2.3272    0.8237   30.0995 C.2     1  UNL1        0.3219
     11 O           2.7211   -0.1360   29.0163 O.2     1  UNL1       -0.2512
     12 N           2.8852    0.8598   31.4914 N.am    1  UNL1       -0.2222
     13 C           3.9353   -0.0576   32.0443 C.ar    1  UNL1        0.1453
     14 C           5.3849    0.3146   31.9437 C.ar    1  UNL1        0.0922
     15 C           6.4349   -0.6029   32.4967 C.ar    1  UNL1        0.2259
     16 O           7.8844   -0.2306   32.3961 O.3     1  UNL1       -0.4919
     17 N           6.0353   -1.8926   33.1502 N.ar    1  UNL1       -0.1894
     18 C           4.5857   -2.2648   33.2508 C.ar    1  UNL1        0.2027
     19 N           3.5358   -1.3473   32.6978 N.ar    1  UNL1       -0.2084
     20 H           8.1341    0.5750   31.9879 H       1  UNL1        0.2938
     21 C           0.4993    2.2403   28.7588 C.ar    1  UNL1        0.0622
     22 C           0.3495    3.6653   28.3153 C.ar    1  UNL1        0.0154
     23 C          -0.4570    3.9896   27.0929 C.ar    1  UNL1        0.0013
     24 C          -1.1138    2.8888   26.3140 C.ar    1  UNL1        0.0001
     25 C          -0.9640    1.4637   26.7575 C.ar    1  UNL1        0.0013
     26 C          -0.1575    1.1394   27.9799 C.ar    1  UNL1        0.0154
     27 C          -1.9204    3.2131   25.0916 C.ar    1  UNL1        0.0000
     28 C          -1.2338    3.4290   23.7755 C.ar    1  UNL1        0.0000
     29 C          -2.0404    3.7532   22.5531 C.ar    1  UNL1        0.0000
     30 C          -3.5336    3.8616   22.6467 C.ar    1  UNL1        0.0000
     31 C          -4.2202    3.6457   23.9628 C.ar    1  UNL1        0.0000
     32 C          -3.4135    3.3215   25.1853 C.ar    1  UNL1        0.0000
     33 C           2.9738    3.1526   36.5084 C.3     1  UNL1        0.1183
     34 C           3.9780    0.6025   37.7285 C.3     1  UNL1        0.0323
     35 C           2.7059    1.2221   38.2264 C.ar    1  UNL1       -0.0069
     36 C           1.9358    0.5666   39.3343 C.ar    1  UNL1       -0.0015
     37 C           0.6637    1.1862   39.8321 C.ar    1  UNL1        0.0203
     38 C           0.1617    2.4613   39.2221 C.ar    1  UNL1        0.0985
     39 N           0.9317    3.1168   38.1142 N.ar    1  UNL1       -0.2471
     40 C           2.2038    2.4972   37.6163 C.ar    1  UNL1        0.0712
@<TRIPOS>BOND
     1    34    35    1
     2    35    36   ar
     3    36    37   ar
     4    37    38   ar
     5    38    39   ar
     6    39    40   ar
     7    40    33    1
     8    33     1    1
     9     1     2    1
    10     2     3    1
    11     3     4    1
    12     4     5    1
    13     5     6    1
    14     4     7    1
    15     7     8    2
    16     7     9   am
    17     9    21    1
    18    21    22   ar
    19    22    23   ar
    20    23    24   ar
    21    24    27    1
    22    27    28   ar
    23    28    29   ar
    24    29    30   ar
    25    30    31   ar
    26    31    32   ar
    27    24    25   ar
    28    25    26   ar
    29     9    10   am
    30    10    11    2
    31    10    12   am
    32    12    13    1
    33    13    14   ar
    34    14    15   ar
    35    15    16    1
    36    15    17   ar
    37    17    18   ar
    38    18    19   ar
    39    40    35   ar
    40     6     1    1
    41    26    21   ar
    42    19    13   ar
    43    12     4    1
    44    32    27   ar
    45    16    20    1
@<TRIPOS>MOLECULE
*****
 40 45 0 0 0
SMALL
GASTEIGER

@<TRIPOS>ATOM
      1 N           6.5487   -2.6052   23.9386 N.3     1  UNL1       -0.2676
      2 C           6.1324   -2.5099   22.5008 C.3     1  UNL1        0.0746
      3 C           4.9080   -1.7294   22.1247 C.3     1  UNL1        0.0449
      4 C           4.0998   -1.0442   23.1865 C.3     1  UNL1        0.1391
      5 C           4.5161   -1.1396   24.6244 C.3     1  UNL1        0.0449
      6 C           5.7406   -1.9201   25.0005 C.3     1  UNL1        0.0746
      7 C           3.1971   -0.3100   24.1331 C.2     1  UNL1        0.2529
      8 O           3.3603   -0.2274   25.6219 O.2     1  UNL1       -0.2724
      9 N           2.1024    0.3272   23.3294 N.am    1  UNL1       -0.1907
     10 C           2.3286   -0.0133   21.8861 C.2     1  UNL1        0.3219
     11 O           1.4710    0.4180   20.7336 O.2     1  UNL1       -0.2512
     12 N           3.5631   -0.8609   21.7978 N.am    1  UNL1       -0.2222
     13 C           4.1566   -1.4259   20.5415 C.ar    1  UNL1        0.1453
     14 C           3.7905   -2.8105   20.0957 C.ar    1  UNL1        0.0922
     15 C           4.3841   -3.3755   18.8394 C.ar    1  UNL1        0.2259
     16 O           4.0180   -4.7601   18.3936 O.3     1  UNL1       -0.4919
     17 N           5.3439   -2.5558   18.0288 N.ar    1  UNL1       -0.1894
     18 C           5.7101   -1.1712   18.4746 C.ar    1  UNL1        0.2027
     19 N           5.1165   -0.6063   19.7309 N.ar    1  UNL1       -0.2084
     20 H           3.4184   -5.2721   18.8999 H       1  UNL1        0.2938
     21 C           0.9788    1.1587   23.8734 C.ar    1  UNL1        0.0622
     22 C           0.3669    2.2371   23.0293 C.ar    1  UNL1        0.0154
     23 C          -0.7567    3.0686   23.5733 C.ar    1  UNL1        0.0013
     24 C          -1.2684    2.8219   24.9615 C.ar    1  UNL1        0.0001
     25 C          -0.6565    1.7435   25.8057 C.ar    1  UNL1        0.0013
     26 C           0.4671    0.9119   25.2617 C.ar    1  UNL1        0.0154
     27 C          -2.3920    3.6535   25.5056 C.ar    1  UNL1        0.0000
     28 C          -2.1409    4.6048   26.6378 C.ar    1  UNL1        0.0000
     29 C          -3.2645    5.4364   27.1818 C.ar    1  UNL1        0.0000
     30 C          -4.6393    5.3166   26.5937 C.ar    1  UNL1        0.0000
     31 C          -4.8903    4.3653   25.4614 C.ar    1  UNL1        0.0000
     32 C          -3.7666    3.5337   24.9174 C.ar    1  UNL1        0.0000
     33 C           7.7733   -3.3858   24.3148 C.3     1  UNL1        0.1183
     34 C           8.8271   -5.6770   22.6900 C.3     1  UNL1        0.0323
     35 C           8.1672   -5.9359   24.0119 C.ar    1  UNL1       -0.0069
     36 C           8.0341   -7.3404   24.5215 C.ar    1  UNL1       -0.0015
     37 C           7.3742   -7.5993   25.8434 C.ar    1  UNL1        0.0203
     38 C           6.8473   -6.4537   26.6558 C.ar    1  UNL1        0.0985
     39 N           6.9803   -5.0492   26.1462 N.ar    1  UNL1       -0.2471
     40 C           7.6402   -4.7903   24.8243 C.ar    1  UNL1        0.0712
@<TRIPOS>BOND
     1    34    35    1
     2    35    36   ar
     3    36    37   ar
     4    37    38   ar
     5    38    39   ar
     6    39    40   ar
     7    40    33    1
     8    33     1    1
     9     1     2    1
    10     2     3    1
    11     3     4    1
    12     4     5    1
    13     5     6    1
    14     4     7    1
    15     7     8    2
    16     7     9   am
    17     9    21    1
    18    21    22   ar
    19    22    23   ar
    20    23    24   ar
    21    24    27    1
    22    27    28   ar
    23    28    29   ar
    24    29    30   ar
    25    30    31   ar
    26    31    32   ar
    27    24    25   ar
    28    25    26   ar
    29     9    10   am
    30    10    11    2
    31    10    12   am
    32    12    13    1
    33    13    14   ar
    34    14    15   ar
    35    15    16    1
    36    15    17   ar
    37    17    18   ar
    38    18    19   ar
    39    40    35   ar
    40     6     1    1
    41    26    21   ar
    42    19    13   ar
    43    12     4    1
    44    32    27   ar
    45    16    20    1
@<TRIPOS>MOLECULE
*****
 40 45 0 0 0
SMALL
GASTEIGER

@<TRIPOS>ATOM
      1 N          -2.9288    4.1404   20.7785 N.3     1  UNL1       -0.2676
      2 C          -4.0754    4.5873   21.6361 C.3     1  UNL1        0.0746
      3 C          -3.9995    4.4386   23.1267 C.3     1  UNL1        0.0449
      4 C          -2.7770    3.8430   23.7598 C.3     1  UNL1        0.1391
      5 C          -1.6304    3.3962   22.9022 C.3     1  UNL1        0.0449
      6 C          -1.7063    3.5448   21.4115 C.3     1  UNL1        0.0746
      7 C          -1.6258    3.2688   24.5311 C.2     1  UNL1        0.2529
      8 O          -0.3484    2.7423   23.9472 O.2     1  UNL1       -0.2724
      9 N          -1.9763    3.3133   25.9890 N.am    1  UNL1       -0.1907
     10 C          -3.3442    3.9152   26.1186 C.2     1  UNL1        0.3219
     11 O          -4.0868    4.1487   27.4007 O.2     1  UNL1       -0.2512
     12 N          -3.8390    4.2426   24.7410 N.am    1  UNL1       -0.2222
     13 C          -5.1633    4.8609   24.4036 C.ar    1  UNL1        0.1453
     14 C          -6.3660    3.9896   24.1929 C.ar    1  UNL1        0.0922
     15 C          -7.6903    4.6080   23.8555 C.ar    1  UNL1        0.2259
     16 O          -8.8930    3.7367   23.6449 O.3     1  UNL1       -0.4919
     17 N          -7.8120    6.0977   23.7288 N.ar    1  UNL1       -0.1894
     18 C          -6.6093    6.9690   23.9394 C.ar    1  UNL1        0.2027
     19 N          -5.2850    6.3506   24.2768 N.ar    1  UNL1       -0.2084
     20 H          -8.8170    2.8061   23.7241 H       1  UNL1        0.2938
     21 C          -1.1109    2.8393   27.1188 C.ar    1  UNL1        0.0622
     22 C          -1.2923    1.4577   27.6737 C.ar    1  UNL1        0.0154
     23 C          -0.4269    0.9837   28.8035 C.ar    1  UNL1        0.0013
     24 C           0.6198    1.8913   29.3783 C.ar    1  UNL1        0.0001
     25 C           0.8012    3.2730   28.8233 C.ar    1  UNL1        0.0013
     26 C          -0.0642    3.7470   27.6936 C.ar    1  UNL1        0.0154
     27 C           1.4852    1.4173   30.5081 C.ar    1  UNL1        0.0000
     28 C           1.4871    2.1573   31.8128 C.ar    1  UNL1        0.0000
     29 C           2.3525    1.6832   32.9426 C.ar    1  UNL1        0.0000
     30 C           3.2160    0.4692   32.7676 C.ar    1  UNL1        0.0000
     31 C           3.2141   -0.2708   31.4629 C.ar    1  UNL1        0.0000
     32 C           2.3486    0.2033   30.3330 C.ar    1  UNL1        0.0000
     33 C          -3.0047    4.2890   19.2878 C.3     1  UNL1        0.1183
     34 C          -5.7531    3.3247   18.5691 C.3     1  UNL1        0.0323
     35 C          -5.3701    4.7532   18.3185 C.ar    1  UNL1       -0.0069
     36 C          -6.3613    5.6994   17.7086 C.ar    1  UNL1       -0.0015
     37 C          -5.9784    7.1279   17.4581 C.ar    1  UNL1        0.0203
     38 C          -4.6042    7.6101   17.8174 C.ar    1  UNL1        0.0985
     39 N          -3.6129    6.6638   18.4273 N.ar    1  UNL1       -0.2471
     40 C          -3.9959    5.2353   18.6779 C.ar    1  UNL1        0.0712
@<TRIPOS>BOND
     1    34    35    1
     2    35    36   ar
     3    36    37   ar
     4    37    38   ar
     5    38    39   ar
     6    39    40   ar
     7    40    33    1
     8    33     1    1
     9     1     2    1
    10     2     3    1
    11     3     4    1
    12     4     5    1
    13     5     6    1
    14     4     7    1
    15     7     8    2
    16     7     9   am
    17     9    21    1
    18    21    22   ar
    19    22    23   ar
    20    23    24   ar
    21    24    27    1
    22    27    28   ar
    23    28    29   ar
    24    29    30   ar
    25    30    31   ar
    26    31    32   ar
    27    24    25   ar
    28    25    26   ar
    29     9    10   am
    30    10    11    2
    31    10    12   am
    32    12    13    1
    33    13    14   ar
    34    14    15   ar
    35    15    16    1
    36    15    17   ar
    37    17    18   ar
    38    18    19   ar
    39    40    35   ar
    40     6     1    1
    41    26    21   ar
    42    19    13   ar
    43    12     4    1
    44    32    27   ar
    45    16    20    1
@<TRIPOS>MOLECULE
*****
 40 45 0 0 0
SMALL
GASTEIGER

@<TRIPOS>ATOM
      1 N           6.5863   -2.3095   28.4781 N.3     1  UNL1       -0.2676
      2 C           6.1891   -1.9590   29.8814 C.3     1  UNL1        0.0746
      3 C           4.9523   -1.1476   30.1303 C.3     1  UNL1        0.0449
      4 C           4.1126   -0.6869   28.9759 C.3     1  UNL1        0.1391
      5 C           4.5098   -1.0374   27.5726 C.3     1  UNL1        0.0449
      6 C           5.7466   -1.8488   27.3237 C.3     1  UNL1        0.0746
      7 C           3.1789   -0.1585   27.9276 C.2     1  UNL1        0.2529
      8 O           3.3181   -0.3487   26.4462 O.2     1  UNL1       -0.2724
      9 N           2.0815    0.5935   28.6207 N.am    1  UNL1       -0.1907
     10 C           2.3371    0.5299   30.0974 C.2     1  UNL1        0.3219
     11 O           1.4867    1.1488   31.1668 O.2     1  UNL1       -0.2512
     12 N           3.5923   -0.2614   30.3170 N.am    1  UNL1       -0.2222
     13 C           4.2175   -0.5727   31.6444 C.ar    1  UNL1        0.1453
     14 C           5.2465    0.3521   32.2241 C.ar    1  UNL1        0.0922
     15 C           5.8717    0.0408   33.5516 C.ar    1  UNL1        0.2259
     16 O           6.9007    0.9655   34.1313 O.3     1  UNL1       -0.4919
     17 N           5.4680   -1.1953   34.2995 N.ar    1  UNL1       -0.1894
     18 C           4.4390   -2.1200   33.7197 C.ar    1  UNL1        0.2027
     19 N           3.8138   -1.8087   32.3923 N.ar    1  UNL1       -0.2084
     20 H           7.1529    1.7376   33.6642 H       1  UNL1        0.2938
     21 C           0.9307    1.2873   27.9541 C.ar    1  UNL1        0.0622
     22 C           1.1885    2.3467   26.9241 C.ar    1  UNL1        0.0154
     23 C           0.0377    3.0405   26.2575 C.ar    1  UNL1        0.0013
     24 C          -1.3709    2.6748   26.6210 C.ar    1  UNL1        0.0001
     25 C          -1.6286    1.6153   27.6511 C.ar    1  UNL1        0.0013
     26 C          -0.4778    0.9215   28.3176 C.ar    1  UNL1        0.0154
     27 C          -2.5216    3.3686   25.9544 C.ar    1  UNL1        0.0000
     28 C          -2.5309    3.5435   24.4647 C.ar    1  UNL1        0.0000
     29 C          -3.6817    4.2373   23.7981 C.ar    1  UNL1        0.0000
     30 C          -4.8233    4.7561   24.6213 C.ar    1  UNL1        0.0000
     31 C          -4.8141    4.5812   26.1110 C.ar    1  UNL1        0.0000
     32 C          -3.6632    3.8874   26.7776 C.ar    1  UNL1        0.0000
     33 C           7.8231   -3.1209   28.2291 C.3     1  UNL1        0.1183
     34 C           7.0020   -5.7611   29.3932 C.3     1  UNL1        0.0323
     35 C           7.3477   -5.6584   27.9372 C.ar    1  UNL1       -0.0069
     36 C           7.2828   -6.8757   27.0632 C.ar    1  UNL1       -0.0015
     37 C           7.6284   -6.7730   25.6072 C.ar    1  UNL1        0.0203
     38 C           8.0390   -5.4529   25.0251 C.ar    1  UNL1        0.0985
     39 N           8.1039   -4.2355   25.8991 N.ar    1  UNL1       -0.2471
     40 C           7.7582   -4.3382   27.3551 C.ar    1  UNL1        0.0712
@<TRIPOS>BOND
     1    34    35    1
     2    35    36   ar
     3    36    37   ar
     4    37    38   ar
     5    38    39   ar
     6    39    40   ar
     7    40    33    1
     8    33     1    1
     9     1     2    1
    10     2     3    1
    11     3     4    1
    12     4     5    1
    13     5     6    1
    14     4     7    1
    15     7     8    2
    16     7     9   am
    17     9    21    1
    18    21    22   ar
    19    22    23   ar
    20    23    24   ar
    21    24    27    1
    22    27    28   ar
    23    28    29   ar
    24    29    30   ar
    25    30    31   ar
    26    31    32   ar
    27    24    25   ar
    28    25    26   ar
    29     9    10   am
    30    10    11    2
    31    10    12   am
    32    12    13    1
    33    13    14   ar
    34    14    15   ar
    35    15    16    1
    36    15    17   ar
    37    17    18   ar
    38    18    19   ar
    39    40    35   ar
    40     6     1    1
    41    26    21   ar
    42    19    13   ar
    43    12     4    1
    44    32    27   ar
    45    16    20    1
@<TRIPOS>MOLECULE
*****
 40 45 0 0 0
SMALL
GASTEIGER

@<TRIPOS>ATOM
      1 N           6.4328   -2.5421   25.7861 N.3     1  UNL1       -0.2676
      2 C           6.0888   -2.5176   24.3263 C.3     1  UNL1        0.0746
      3 C           4.9256   -1.7028   23.8435 C.3     1  UNL1        0.0449
      4 C           4.1065   -0.9125   24.8205 C.3     1  UNL1        0.1391
      5 C           4.4505   -0.9370   26.2803 C.3     1  UNL1        0.0449
      6 C           5.6137   -1.7518   26.7631 C.3     1  UNL1        0.0746
      7 C           3.2009   -0.0759   25.6749 C.2     1  UNL1        0.2529
      8 O           3.2994    0.0928   27.1621 O.2     1  UNL1       -0.2724
      9 N           2.1793    0.5624   24.7809 N.am    1  UNL1       -0.1907
     10 C           2.4536    0.1202   23.3740 C.2     1  UNL1        0.3219
     11 O           1.6739    0.5195   22.1565 O.2     1  UNL1       -0.2512
     12 N           3.6446   -0.7913   23.3984 N.am    1  UNL1       -0.2222
     13 C           4.2650   -1.4636   22.2097 C.ar    1  UNL1        0.1453
     14 C           3.8581   -2.8592   21.8403 C.ar    1  UNL1        0.0922
     15 C           4.4785   -3.5315   20.6515 C.ar    1  UNL1        0.2259
     16 O           4.0717   -4.9272   20.2821 O.3     1  UNL1       -0.4919
     17 N           5.5058   -2.8080   19.8321 N.ar    1  UNL1       -0.1894
     18 C           5.9126   -1.4123   20.2015 C.ar    1  UNL1        0.2027
     19 N           5.2922   -0.7401   21.3903 N.ar    1  UNL1       -0.2084
     20 H           3.4300   -5.3791   20.7939 H       1  UNL1        0.2938
     21 C           1.0770    1.4814   25.2172 C.ar    1  UNL1        0.0622
     22 C           0.1334    1.0580   26.3035 C.ar    1  UNL1        0.0154
     23 C          -0.9688    1.9771   26.7398 C.ar    1  UNL1        0.0013
     24 C          -1.1275    3.3195   26.0898 C.ar    1  UNL1        0.0001
     25 C          -0.1838    3.7430   25.0034 C.ar    1  UNL1        0.0013
     26 C           0.9185    2.8239   24.5671 C.ar    1  UNL1        0.0154
     27 C          -2.2297    4.2386   26.5261 C.ar    1  UNL1        0.0000
     28 C          -3.6614    3.8557   26.2941 C.ar    1  UNL1        0.0000
     29 C          -4.7636    4.7748   26.7304 C.ar    1  UNL1        0.0000
     30 C          -4.4342    6.0767   27.3988 C.ar    1  UNL1        0.0000
     31 C          -3.0026    6.4595   27.6307 C.ar    1  UNL1        0.0000
     32 C          -1.9003    5.5404   27.1944 C.ar    1  UNL1        0.0000
     33 C           7.5960   -3.3568   26.2690 C.3     1  UNL1        0.1183
     34 C           6.2630   -5.4735   27.9252 C.3     1  UNL1        0.0323
     35 C           7.0479   -5.8586   26.7063 C.ar    1  UNL1       -0.0069
     36 C           7.1664   -7.3019   26.3154 C.ar    1  UNL1       -0.0015
     37 C           7.9513   -7.6869   25.0965 C.ar    1  UNL1        0.0203
     38 C           8.6177   -6.6286   24.2685 C.ar    1  UNL1        0.0985
     39 N           8.4994   -5.1852   24.6593 N.ar    1  UNL1       -0.2471
     40 C           7.7144   -4.8002   25.8782 C.ar    1  UNL1        0.0712
@<TRIPOS>BOND
     1    34    35    1
     2    35    36   ar
     3    36    37   ar
     4    37    38   ar
     5    38    39   ar
     6    39    40   ar
     7    40    33    1
     8    33     1    1
     9     1     2    1
    10     2     3    1
    11     3     4    1
    12     4     5    1
    13     5     6    1
    14     4     7    1
    15     7     8    2
    16     7     9   am
    17     9    21    1
    18    21    22   ar
    19    22    23   ar
    20    23    24   ar
    21    24    27    1
    22    27    28   ar
    23    28    29   ar
    24    29    30   ar
    25    30    31   ar
    26    31    32   ar
    27    24    25   ar
    28    25    26   ar
    29     9    10   am
    30    10    11    2
    31    10    12   am
    32    12    13    1
    33    13    14   ar
    34    14    15   ar
    35    15    16    1
    36    15    17   ar
    37    17    18   ar
    38    18    19   ar
    39    40    35   ar
    40     6     1    1
    41    26    21   ar
    42    19    13   ar
    43    12     4    1
    44    32    27   ar
    45    16    20    1
@<TRIPOS>MOLECULE
*****
 40 45 0 0 0
SMALL
GASTEIGER

@<TRIPOS>ATOM
      1 N           3.6778   -1.1797   18.9522 N.3     1  UNL1       -0.2676
      2 C           4.2576    0.1994   18.8439 C.3     1  UNL1        0.0746
      3 C           3.4642    1.3850   19.3073 C.3     1  UNL1        0.0449
      4 C           2.0910    1.1915   19.8790 C.3     1  UNL1        0.1391
      5 C           1.5111   -0.1876   19.9873 C.3     1  UNL1        0.0449
      6 C           2.3045   -1.3732   19.5239 C.3     1  UNL1        0.0746
      7 C           0.7124    1.1539   20.4689 C.2     1  UNL1        0.2529
      8 O          -0.1149   -0.0760   20.6991 O.2     1  UNL1       -0.2724
      9 N           0.3062    2.5622   20.7884 N.am    1  UNL1       -0.1907
     10 C           1.4339    3.4702   20.3958 C.2     1  UNL1        0.3219
     11 O           1.4548    4.9630   20.5399 O.2     1  UNL1       -0.2512
     12 N           2.5369    2.6231   19.8337 N.am    1  UNL1       -0.2222
     13 C           3.8544    3.1202   19.3172 C.ar    1  UNL1        0.1453
     14 C           3.9667    3.6213   17.9079 C.ar    1  UNL1        0.0922
     15 C           5.2843    4.1184   17.3914 C.ar    1  UNL1        0.2259
     16 O           5.3966    4.6196   15.9821 O.3     1  UNL1       -0.4919
     17 N           6.4897    4.1143   18.2842 N.ar    1  UNL1       -0.1894
     18 C           6.3775    3.6132   19.6935 C.ar    1  UNL1        0.2027
     19 N           5.0598    3.1161   20.2100 N.ar    1  UNL1       -0.2084
     20 H           4.6437    4.6221   15.4243 H       1  UNL1        0.2938
     21 C          -0.9984    2.9877   21.3940 C.ar    1  UNL1        0.0622
     22 C          -1.1005    3.2127   22.8734 C.ar    1  UNL1        0.0154
     23 C          -2.4052    3.6383   23.4790 C.ar    1  UNL1        0.0013
     24 C          -3.6077    3.8387   22.6053 C.ar    1  UNL1        0.0001
     25 C          -3.5056    3.6137   21.1257 C.ar    1  UNL1        0.0013
     26 C          -2.2010    3.1882   20.5201 C.ar    1  UNL1        0.0154
     27 C          -4.9123    4.2643   23.2109 C.ar    1  UNL1        0.0000
     28 C          -6.2007    3.9651   22.5033 C.ar    1  UNL1        0.0000
     29 C          -7.5053    4.3906   23.1089 C.ar    1  UNL1        0.0000
     30 C          -7.5217    5.1154   24.4222 C.ar    1  UNL1        0.0000
     31 C          -6.2333    5.4145   25.1298 C.ar    1  UNL1        0.0000
     32 C          -4.9286    4.9890   24.5241 C.ar    1  UNL1        0.0000
     33 C           4.4712   -2.3654   18.4888 C.3     1  UNL1        0.1183
     34 C           4.7041   -3.9239   21.0416 C.3     1  UNL1        0.0323
     35 C           5.9390   -3.4199   20.3553 C.ar    1  UNL1       -0.0069
     36 C           7.2903   -3.6951   20.9453 C.ar    1  UNL1       -0.0015
     37 C           8.5252   -3.1911   20.2589 C.ar    1  UNL1        0.0203
     38 C           8.4087   -2.4118   18.9826 C.ar    1  UNL1        0.0985
     39 N           7.0573   -2.1366   18.3925 N.ar    1  UNL1       -0.2471
     40 C           5.8225   -2.6406   19.0788 C.ar    1  UNL1        0.0712
@<TRIPOS>BOND
     1    34    35    1
     2    35    36   ar
     3    36    37   ar
     4    37    38   ar
     5    38    39   ar
     6    39    40   ar
     7    40    33    1
     8    33     1    1
     9     1     2    1
    10     2     3    1
    11     3     4    1
    12     4     5    1
    13     5     6    1
    14     4     7    1
    15     7     8    2
    16     7     9   am
    17     9    21    1
    18    21    22   ar
    19    22    23   ar
    20    23    24   ar
    21    24    27    1
    22    27    28   ar
    23    28    29   ar
    24    29    30   ar
    25    30    31   ar
    26    31    32   ar
    27    24    25   ar
    28    25    26   ar
    29     9    10   am
    30    10    11    2
    31    10    12   am
    32    12    13    1
    33    13    14   ar
    34    14    15   ar
    35    15    16    1
    36    15    17   ar
    37    17    18   ar
    38    18    19   ar
    39    40    35   ar
    40     6     1    1
    41    26    21   ar
    42    19    13   ar
    43    12     4    1
    44    32    27   ar
    45    16    20    1
@<TRIPOS>MOLECULE
*****
 40 45 0 0 0
SMALL
GASTEIGER

@<TRIPOS>ATOM
      1 N           2.5838   -0.4719   20.9738 N.3     1  UNL1       -0.2676
      2 C           1.8132    0.7881   21.2355 C.3     1  UNL1        0.0746
      3 C           1.6658    1.2995   22.6379 C.3     1  UNL1        0.0449
      4 C           2.2890    0.5509   23.7786 C.3     1  UNL1        0.1391
      5 C           3.0597   -0.7091   23.5169 C.3     1  UNL1        0.0449
      6 C           3.2071   -1.2205   22.1145 C.3     1  UNL1        0.0746
      7 C           2.8534   -0.0867   25.0135 C.2     1  UNL1        0.2529
      8 O           3.6644   -1.3476   25.0628 O.2     1  UNL1       -0.2724
      9 N           2.4645    0.7581   26.1905 N.am    1  UNL1       -0.1907
     10 C           1.6598    1.9178   25.6829 C.2     1  UNL1        0.3219
     11 O           1.0675    3.0131   26.5191 O.2     1  UNL1       -0.2512
     12 N           1.5513    1.7898   24.1924 N.am    1  UNL1       -0.2222
     13 C           0.8315    2.7346   23.2763 C.ar    1  UNL1        0.1453
     14 C          -0.6089    2.4951   22.9329 C.ar    1  UNL1        0.0922
     15 C          -1.3286    3.4400   22.0169 C.ar    1  UNL1        0.2259
     16 O          -2.7689    3.2005   21.6735 O.3     1  UNL1       -0.4919
     17 N          -0.6079    4.6244   21.4441 N.ar    1  UNL1       -0.1894
     18 C           0.8324    4.8639   21.7875 C.ar    1  UNL1        0.2027
     19 N           1.5521    3.9190   22.7036 N.ar    1  UNL1       -0.2084
     20 H          -3.2191    2.4607   22.0312 H       1  UNL1        0.2938
     21 C           2.8183    0.4902   27.6233 C.ar    1  UNL1        0.0622
     22 C           4.1387    0.9481   28.1681 C.ar    1  UNL1        0.0154
     23 C           4.4924    0.6802   29.6009 C.ar    1  UNL1        0.0013
     24 C           3.5258   -0.0455   30.4890 C.ar    1  UNL1        0.0001
     25 C           2.2053   -0.5035   29.9443 C.ar    1  UNL1        0.0013
     26 C           1.8516   -0.2356   28.5114 C.ar    1  UNL1        0.0154
     27 C           3.8795   -0.3134   31.9219 C.ar    1  UNL1        0.0000
     28 C           3.8543    0.8041   32.9222 C.ar    1  UNL1        0.0000
     29 C           4.2080    0.5362   34.3550 C.ar    1  UNL1        0.0000
     30 C           4.5871   -0.8493   34.7876 C.ar    1  UNL1        0.0000
     31 C           4.6123   -1.9667   33.7873 C.ar    1  UNL1        0.0000
     32 C           4.2586   -1.6988   32.3544 C.ar    1  UNL1        0.0000
     33 C           2.7313   -0.9833   19.5714 C.3     1  UNL1        0.1183
     34 C           3.4146   -3.8813   19.2040 C.3     1  UNL1        0.0323
     35 C           4.4254   -2.8243   18.8706 C.ar    1  UNL1       -0.0069
     36 C           5.7777   -3.2162   18.3535 C.ar    1  UNL1       -0.0015
     37 C           6.7885   -2.1592   18.0201 C.ar    1  UNL1        0.0203
     38 C           6.4468   -0.7103   18.2038 C.ar    1  UNL1        0.0985
     39 N           5.0944   -0.3183   18.7209 N.ar    1  UNL1       -0.2471
     40 C           4.0837   -1.3753   19.0543 C.ar    1  UNL1        0.0712
@<TRIPOS>BOND
     1    34    35    1
     2    35    36   ar
     3    36    37   ar
     4    37    38   ar
     5    38    39   ar
     6    39    40   ar
     7    40    33    1
     8    33     1    1
     9     1     2    1
    10     2     3    1
    11     3     4    1
    12     4     5    1
    13     5     6    1
    14     4     7    1
    15     7     8    2
    16     7     9   am
    17     9    21    1
    18    21    22   ar
    19    22    23   ar
    20    23    24   ar
    21    24    27    1
    22    27    28   ar
    23    28    29   ar
    24    29    30   ar
    25    30    31   ar
    26    31    32   ar
    27    24    25   ar
    28    25    26   ar
    29     9    10   am
    30    10    11    2
    31    10    12   am
    32    12    13    1
    33    13    14   ar
    34    14    15   ar
    35    15    16    1
    36    15    17   ar
    37    17    18   ar
    38    18    19   ar
    39    40    35   ar
    40     6     1    1
    41    26    21   ar
    42    19    13   ar
    43    12     4    1
    44    32    27   ar
    45    16    20    1
