@<TRIPOS>MOLECULE
*****
 26 29 0 0 0
SMALL
GASTEIGER

@<TRIPOS>ATOM
      1 C          -5.1501  -14.7404   26.1556 C.3     1  UNL1        0.0899
      2 N          -5.5376  -15.6782   25.0508 N.3     1  UNL1       -0.2671
      3 C          -4.4877  -16.4942   24.3568 C.3     1  UNL1        0.0989
      4 C          -4.8753  -17.4320   23.2520 C.ar    1  UNL1       -0.0085
      5 C          -3.8253  -18.2481   22.5580 C.ar    1  UNL1        0.0111
      6 C          -4.2129  -19.1857   21.4533 C.ar    1  UNL1        0.0444
      7 C          -5.6505  -19.3073   21.0425 C.ar    1  UNL1        0.0140
      8 C          -6.7004  -18.4913   21.7365 C.ar    1  UNL1       -0.0029
      9 C          -6.3128  -17.5536   22.8412 C.ar    1  UNL1       -0.0196
     10 C          -7.3628  -16.7375   23.5353 C.3     1  UNL1        0.0602
     11 C          -6.9752  -15.7998   24.6400 C.3     1  UNL1        0.0811
     12 C          -8.8003  -16.8591   23.1245 C.ar    1  UNL1       -0.0170
     13 C          -9.2699  -16.2341   21.8443 C.ar    1  UNL1       -0.0034
     14 C         -10.7075  -16.3557   21.4335 C.ar    1  UNL1        0.0062
     15 C         -11.6753  -17.1023   22.3030 C.ar    1  UNL1        0.0295
     16 S         -13.1412  -17.3859   22.1592 S.2     1  UNL1       -0.0864
     17 C         -13.5775  -18.1862   23.3505 C.ar    1  UNL1        0.0354
     18 C         -12.3813  -18.3971   24.2305 C.ar    1  UNL1        0.0075
     19 C         -11.2057  -17.7273   23.5831 C.ar    1  UNL1        0.0062
     20 C          -9.7681  -17.6057   23.9939 C.ar    1  UNL1       -0.0034
     21 N          -3.1630  -20.0019   20.7593 N.pl3   1  UNL1       -0.3306
     22 H          -3.2907  -20.9709   20.6418 H       1  UNL1        0.1469
     23 C          -1.9185  -19.3414   20.2443 C.3     1  UNL1        0.1193
     24 C          -2.0200  -18.2157   19.2583 C.3     1  UNL1        0.1583
     25 O          -0.8396  -17.8575   18.4048 O.3     1  UNL1       -0.3802
     26 H          -0.1257  -17.5174   18.9666 H       1  UNL1        0.2105
@<TRIPOS>BOND
     1     1     2    1
     2     2     3    1
     3     3     4    1
     4     4     5   ar
     5     5     6   ar
     6     6    21    1
     7    21    23    1
     8    23    24    1
     9    24    25    1
    10     6     7   ar
    11     7     8   ar
    12     8     9   ar
    13     9    10    1
    14    10    12    1
    15    12    13   ar
    16    13    14   ar
    17    14    15   ar
    18    15    16   ar
    19    16    17   ar
    20    17    18   ar
    21    18    19   ar
    22    19    20   ar
    23    10    11    1
    24    11     2    1
    25     9     4   ar
    26    20    12   ar
    27    19    15   ar
    28    21    22    1
    29    25    26    1
@<TRIPOS>MOLECULE
*****
 26 29 0 0 0
SMALL
GASTEIGER

@<TRIPOS>ATOM
      1 C          -6.0281  -14.3705   27.2088 C.3     1  UNL1        0.0899
      2 N          -6.1226  -15.2868   26.0249 N.3     1  UNL1       -0.2671
      3 C          -4.8822  -15.9136   25.4607 C.3     1  UNL1        0.0989
      4 C          -4.9767  -16.8299   24.2768 C.ar    1  UNL1       -0.0085
      5 C          -3.7363  -17.4567   23.7126 C.ar    1  UNL1        0.0111
      6 C          -3.8308  -18.3729   22.5287 C.ar    1  UNL1        0.0444
      7 C          -5.1658  -18.6623   21.9090 C.ar    1  UNL1        0.0140
      8 C          -6.4063  -18.0355   22.4732 C.ar    1  UNL1       -0.0029
      9 C          -6.3117  -17.1193   23.6571 C.ar    1  UNL1       -0.0196
     10 C          -7.5522  -16.4924   24.2213 C.3     1  UNL1        0.0602
     11 C          -7.4576  -15.5762   25.4052 C.3     1  UNL1        0.0811
     12 C          -8.8872  -16.7818   23.6017 C.ar    1  UNL1       -0.0170
     13 C          -9.8425  -17.7176   24.2813 C.ar    1  UNL1       -0.0034
     14 C         -11.1775  -18.0070   23.6616 C.ar    1  UNL1        0.0062
     15 C         -11.5572  -17.3606   22.3623 C.ar    1  UNL1        0.0295
     16 S         -12.7940  -17.4538   21.5187 S.2     1  UNL1       -0.0864
     17 C         -12.6031  -16.5756   20.3177 C.ar    1  UNL1        0.0354
     18 C         -11.2483  -15.9397   20.4191 C.ar    1  UNL1        0.0075
     19 C         -10.6020  -16.4249   21.6828 C.ar    1  UNL1        0.0062
     20 C          -9.2670  -16.1355   22.3024 C.ar    1  UNL1       -0.0034
     21 N          -2.5903  -18.9998   21.9645 N.pl3   1  UNL1       -0.3306
     22 H          -2.1032  -19.6804   22.4829 H       1  UNL1        0.1469
     23 C          -2.0921  -18.5897   20.6104 C.3     1  UNL1        0.1193
     24 C          -2.8911  -18.9216   19.3851 C.3     1  UNL1        0.1583
     25 O          -3.5816  -20.2488   19.2767 O.3     1  UNL1       -0.3802
     26 H          -2.9187  -20.9557   19.2346 H       1  UNL1        0.2105
@<TRIPOS>BOND
     1     1     2    1
     2     2     3    1
     3     3     4    1
     4     4     5   ar
     5     5     6   ar
     6     6    21    1
     7    21    23    1
     8    23    24    1
     9    24    25    1
    10     6     7   ar
    11     7     8   ar
    12     8     9   ar
    13     9    10    1
    14    10    12    1
    15    12    13   ar
    16    13    14   ar
    17    14    15   ar
    18    15    16   ar
    19    16    17   ar
    20    17    18   ar
    21    18    19   ar
    22    19    20   ar
    23    10    11    1
    24    11     2    1
    25     9     4   ar
    26    20    12   ar
    27    19    15   ar
    28    21    22    1
    29    25    26    1
@<TRIPOS>MOLECULE
*****
 26 29 0 0 0
SMALL
GASTEIGER

@<TRIPOS>ATOM
      1 C           4.6628   -5.0427   18.6064 C.3     1  UNL1        0.0899
      2 N           4.3818   -4.0144   19.6618 N.3     1  UNL1       -0.2671
      3 C           4.9309   -4.1914   21.0464 C.3     1  UNL1        0.0989
      4 C           4.6500   -3.1632   22.1018 C.ar    1  UNL1       -0.0085
      5 C           5.1990   -3.3402   23.4864 C.ar    1  UNL1        0.0111
      6 C           4.9181   -2.3119   24.5417 C.ar    1  UNL1        0.0444
      7 C           4.0880   -1.1067   24.2124 C.ar    1  UNL1        0.0140
      8 C           3.5389   -0.9297   22.8279 C.ar    1  UNL1       -0.0029
      9 C           3.8199   -1.9579   21.7725 C.ar    1  UNL1       -0.0196
     10 C           3.2708   -1.7810   20.3879 C.3     1  UNL1        0.0602
     11 C           3.5518   -2.8092   19.3325 C.3     1  UNL1        0.0811
     12 C           2.4407   -0.5758   20.0586 C.ar    1  UNL1       -0.0170
     13 C           0.9902   -0.5375   20.4387 C.ar    1  UNL1       -0.0034
     14 C           0.1601    0.6677   20.1094 C.ar    1  UNL1        0.0062
     15 C           0.7806    1.8347   19.4000 C.ar    1  UNL1        0.0295
     16 S           0.2172    3.1490   18.9472 S.2     1  UNL1       -0.0864
     17 C           1.3196    3.9231   18.2872 C.ar    1  UNL1        0.0354
     18 C           2.5642    3.0871   18.3322 C.ar    1  UNL1        0.0075
     19 C           2.2311    1.7964   19.0199 C.ar    1  UNL1        0.0062
     20 C           3.0612    0.5912   19.3492 C.ar    1  UNL1       -0.0034
     21 N           5.4672   -2.4889   25.9264 N.pl3   1  UNL1       -0.3306
     22 H           4.8857   -2.3480   26.7082 H       1  UNL1        0.1469
     23 C           6.9021   -2.8806   26.1198 C.3     1  UNL1        0.1193
     24 C           7.2429   -4.2386   26.6578 C.3     1  UNL1        0.1583
     25 O           6.1608   -5.2567   26.8645 O.3     1  UNL1       -0.3802
     26 H           5.5592   -4.9521   27.5617 H       1  UNL1        0.2105
@<TRIPOS>BOND
     1     1     2    1
     2     2     3    1
     3     3     4    1
     4     4     5   ar
     5     5     6   ar
     6     6    21    1
     7    21    23    1
     8    23    24    1
     9    24    25    1
    10     6     7   ar
    11     7     8   ar
    12     8     9   ar
    13     9    10    1
    14    10    12    1
    15    12    13   ar
    16    13    14   ar
    17    14    15   ar
    18    15    16   ar
    19    16    17   ar
    20    17    18   ar
    21    18    19   ar
    22    19    20   ar
    23    10    11    1
    24    11     2    1
    25     9     4   ar
    26    20    12   ar
    27    19    15   ar
    28    21    22    1
    29    25    26    1
@<TRIPOS>MOLECULE
*****
 26 29 0 0 0
SMALL
GASTEIGER

@<TRIPOS>ATOM
      1 C         -16.6548  -11.6428   18.9545 C.3     1  UNL1        0.0899
      2 N         -16.5822  -10.1451   18.9137 N.3     1  UNL1       -0.2671
      3 C         -17.7650   -9.3250   19.3359 C.3     1  UNL1        0.0989
      4 C         -17.6924   -7.8273   19.2951 C.ar    1  UNL1       -0.0085
      5 C         -18.8753   -7.0073   19.7173 C.ar    1  UNL1        0.0111
      6 C         -18.8026   -5.5096   19.6765 C.ar    1  UNL1        0.0444
      7 C         -17.5471   -4.8320   19.2134 C.ar    1  UNL1        0.0140
      8 C         -16.3642   -5.6520   18.7911 C.ar    1  UNL1       -0.0029
      9 C         -16.4369   -7.1497   18.8320 C.ar    1  UNL1       -0.0196
     10 C         -15.2540   -7.9698   18.4097 C.3     1  UNL1        0.0602
     11 C         -15.3267   -9.4674   18.4506 C.3     1  UNL1        0.0811
     12 C         -13.9985   -7.2922   17.9466 C.ar    1  UNL1       -0.0170
     13 C         -13.5780   -7.3927   16.5102 C.ar    1  UNL1       -0.0034
     14 C         -12.3225   -6.7151   16.0471 C.ar    1  UNL1        0.0062
     15 C         -11.4874   -5.9369   17.0204 C.ar    1  UNL1        0.0295
     16 S         -10.2096   -5.1687   16.8566 S.2     1  UNL1       -0.0864
     17 C          -9.8403   -4.5933   18.1917 C.ar    1  UNL1        0.0354
     18 C         -10.8899   -5.0060   19.1806 C.ar    1  UNL1        0.0075
     19 C         -11.9079   -5.8364   18.4567 C.ar    1  UNL1        0.0062
     20 C         -13.1634   -6.5141   18.9198 C.ar    1  UNL1       -0.0034
     21 N         -19.9855   -4.6895   20.0987 N.pl3   1  UNL1       -0.3306
     22 H         -20.6748   -5.0832   20.6811 H       1  UNL1        0.1469
     23 C         -20.1181   -3.2696   19.6337 C.3     1  UNL1        0.1193
     24 C         -19.8411   -2.1409   20.5820 C.3     1  UNL1        0.1583
     25 O         -20.0489   -2.3310   22.0553 O.3     1  UNL1       -0.3802
     26 H         -20.9927   -2.4652   22.2341 H       1  UNL1        0.2105
@<TRIPOS>BOND
     1     1     2    1
     2     2     3    1
     3     3     4    1
     4     4     5   ar
     5     5     6   ar
     6     6    21    1
     7    21    23    1
     8    23    24    1
     9    24    25    1
    10     6     7   ar
    11     7     8   ar
    12     8     9   ar
    13     9    10    1
    14    10    12    1
    15    12    13   ar
    16    13    14   ar
    17    14    15   ar
    18    15    16   ar
    19    16    17   ar
    20    17    18   ar
    21    18    19   ar
    22    19    20   ar
    23    10    11    1
    24    11     2    1
    25     9     4   ar
    26    20    12   ar
    27    19    15   ar
    28    21    22    1
    29    25    26    1
@<TRIPOS>MOLECULE
*****
 26 29 0 0 0
SMALL
GASTEIGER

@<TRIPOS>ATOM
      1 C          -2.2427    3.6705   20.4254 C.3     1  UNL1        0.0899
      2 N          -1.1757    2.7922   21.0088 N.3     1  UNL1       -0.2671
      3 C          -0.4573    1.8051   20.1374 C.3     1  UNL1        0.0989
      4 C           0.6097    0.9269   20.7209 C.ar    1  UNL1       -0.0085
      5 C           1.3281   -0.0602   19.8494 C.ar    1  UNL1        0.0111
      6 C           2.3950   -0.9384   20.4329 C.ar    1  UNL1        0.0444
      7 C           2.7434   -0.8295   21.8878 C.ar    1  UNL1        0.0140
      8 C           2.0250    0.1575   22.7592 C.ar    1  UNL1       -0.0029
      9 C           0.9581    1.0357   22.1758 C.ar    1  UNL1       -0.0196
     10 C           0.2396    2.0229   23.0472 C.3     1  UNL1        0.0602
     11 C          -0.8273    2.9011   22.4638 C.3     1  UNL1        0.0811
     12 C           0.5880    2.1318   24.5021 C.ar    1  UNL1       -0.0170
     13 C           1.6692    3.0721   24.9461 C.ar    1  UNL1       -0.0034
     14 C           2.0176    3.1809   26.4010 C.ar    1  UNL1        0.0062
     15 C           1.2849    2.3496   27.4119 C.ar    1  UNL1        0.0295
     16 S           1.4080    2.2435   28.9031 S.2     1  UNL1       -0.0864
     17 C           0.4029    1.2376   29.3807 C.ar    1  UNL1        0.0354
     18 C          -0.3413    0.7221   28.1847 C.ar    1  UNL1        0.0075
     19 C           0.2038    1.4094   26.9680 C.ar    1  UNL1        0.0062
     20 C          -0.1447    1.3005   25.5131 C.ar    1  UNL1       -0.0034
     21 N           3.1135   -1.9256   19.5615 N.pl3   1  UNL1       -0.3306
     22 H           2.8530   -2.8749   19.5747 H       1  UNL1        0.1469
     23 C           4.2289   -1.4663   18.6699 C.3     1  UNL1        0.1193
     24 C           3.9221   -0.6861   17.4261 C.3     1  UNL1        0.1583
     25 O           3.7156   -1.4013   16.1239 O.3     1  UNL1       -0.3802
     26 H           4.5459   -1.8220   15.8509 H       1  UNL1        0.2105
@<TRIPOS>BOND
     1     1     2    1
     2     2     3    1
     3     3     4    1
     4     4     5   ar
     5     5     6   ar
     6     6    21    1
     7    21    23    1
     8    23    24    1
     9    24    25    1
    10     6     7   ar
    11     7     8   ar
    12     8     9   ar
    13     9    10    1
    14    10    12    1
    15    12    13   ar
    16    13    14   ar
    17    14    15   ar
    18    15    16   ar
    19    16    17   ar
    20    17    18   ar
    21    18    19   ar
    22    19    20   ar
    23    10    11    1
    24    11     2    1
    25     9     4   ar
    26    20    12   ar
    27    19    15   ar
    28    21    22    1
    29    25    26    1
@<TRIPOS>MOLECULE
*****
 26 29 0 0 0
SMALL
GASTEIGER

@<TRIPOS>ATOM
      1 C          -1.2933    3.2262   19.9583 C.3     1  UNL1        0.0899
      2 N          -0.3454    2.4491   20.8231 N.3     1  UNL1       -0.2671
      3 C          -0.4365    2.5525   22.3167 C.3     1  UNL1        0.0989
      4 C           0.5114    1.7754   23.1815 C.ar    1  UNL1       -0.0085
      5 C           0.4203    1.8788   24.6752 C.ar    1  UNL1        0.0111
      6 C           1.3681    1.1018   25.5399 C.ar    1  UNL1        0.0444
      7 C           2.4070    0.2213   24.9109 C.ar    1  UNL1        0.0140
      8 C           2.4981    0.1180   23.4173 C.ar    1  UNL1       -0.0029
      9 C           1.5503    0.8950   22.5526 C.ar    1  UNL1       -0.0196
     10 C           1.6413    0.7917   21.0589 C.3     1  UNL1        0.0602
     11 C           0.6935    1.5687   20.1942 C.3     1  UNL1        0.0811
     12 C           2.6802   -0.0888   20.4300 C.ar    1  UNL1       -0.0170
     13 C           3.9970    0.4907   20.0051 C.ar    1  UNL1       -0.0034
     14 C           5.0359   -0.3897   19.3762 C.ar    1  UNL1        0.0062
     15 C           4.7580   -1.8496   19.1721 C.ar    1  UNL1        0.0295
     16 S           5.5828   -2.9555   18.5835 S.2     1  UNL1       -0.0864
     17 C           4.7759   -4.2185   18.6445 C.ar    1  UNL1        0.0354
     18 C           3.4523   -3.8931   19.2709 C.ar    1  UNL1        0.0075
     19 C           3.4413   -2.4290   19.5970 C.ar    1  UNL1        0.0062
     20 C           2.4024   -1.5486   20.2259 C.ar    1  UNL1       -0.0034
     21 N           1.2771    1.2051   27.0336 N.pl3   1  UNL1       -0.3306
     22 H           2.0952    1.1703   27.5802 H       1  UNL1        0.1469
     23 C          -0.0604    1.3616   27.6944 C.3     1  UNL1        0.1193
     24 C          -0.7034    0.1887   28.3732 C.3     1  UNL1        0.1583
     25 O           0.0396   -0.5609   29.4391 O.3     1  UNL1       -0.3802
     26 H           0.8094   -1.0021   29.0473 H       1  UNL1        0.2105
@<TRIPOS>BOND
     1     1     2    1
     2     2     3    1
     3     3     4    1
     4     4     5   ar
     5     5     6   ar
     6     6    21    1
     7    21    23    1
     8    23    24    1
     9    24    25    1
    10     6     7   ar
    11     7     8   ar
    12     8     9   ar
    13     9    10    1
    14    10    12    1
    15    12    13   ar
    16    13    14   ar
    17    14    15   ar
    18    15    16   ar
    19    16    17   ar
    20    17    18   ar
    21    18    19   ar
    22    19    20   ar
    23    10    11    1
    24    11     2    1
    25     9     4   ar
    26    20    12   ar
    27    19    15   ar
    28    21    22    1
    29    25    26    1
@<TRIPOS>MOLECULE
*****
 26 29 0 0 0
SMALL
GASTEIGER

@<TRIPOS>ATOM
      1 C           0.4627    7.1814   29.0778 C.3     1  UNL1        0.0899
      2 N           0.1147    5.7960   28.6197 N.3     1  UNL1       -0.2671
      3 C           0.8150    4.6110   29.2158 C.3     1  UNL1        0.0989
      4 C           0.4670    3.2256   28.7577 C.ar    1  UNL1       -0.0085
      5 C           1.1673    2.0406   29.3538 C.ar    1  UNL1        0.0111
      6 C           0.8192    0.6553   28.8958 C.ar    1  UNL1        0.0444
      7 C          -0.2291    0.4551   27.8417 C.ar    1  UNL1        0.0140
      8 C          -0.9293    1.6401   27.2457 C.ar    1  UNL1       -0.0029
      9 C          -0.5813    3.0254   27.7037 C.ar    1  UNL1       -0.0196
     10 C          -1.2816    4.2105   27.1077 C.3     1  UNL1        0.0602
     11 C          -0.9336    5.5958   27.5657 C.3     1  UNL1        0.0811
     12 C          -2.3299    4.0102   26.0536 C.ar    1  UNL1       -0.0170
     13 C          -3.7748    3.9069   26.4430 C.ar    1  UNL1       -0.0034
     14 C          -4.8231    3.7067   25.3890 C.ar    1  UNL1        0.0062
     15 C          -4.4264    3.6097   23.9456 C.ar    1  UNL1        0.0295
     16 S          -5.2308    3.4146   22.6946 S.2     1  UNL1       -0.0864
     17 C          -4.2830    3.3973   21.5321 C.ar    1  UNL1        0.0354
     18 C          -2.8929    3.5817   22.0647 C.ar    1  UNL1        0.0075
     19 C          -2.9816    3.7130   23.5563 C.ar    1  UNL1        0.0062
     20 C          -1.9333    3.9133   24.6103 C.ar    1  UNL1       -0.0034
     21 N           1.5195   -0.5298   29.4918 N.pl3   1  UNL1       -0.3306
     22 H           0.9953   -1.2769   29.8611 H       1  UNL1        0.1469
     23 C           3.0184   -0.5766   29.5251 C.3     1  UNL1        0.1193
     24 C           3.7844   -0.9605   28.2939 C.3     1  UNL1        0.1583
     25 O           3.1540   -1.8531   27.2663 O.3     1  UNL1       -0.3802
     26 H           3.0086   -2.7329   27.6479 H       1  UNL1        0.2105
@<TRIPOS>BOND
     1     1     2    1
     2     2     3    1
     3     3     4    1
     4     4     5   ar
     5     5     6   ar
     6     6    21    1
     7    21    23    1
     8    23    24    1
     9    24    25    1
    10     6     7   ar
    11     7     8   ar
    12     8     9   ar
    13     9    10    1
    14    10    12    1
    15    12    13   ar
    16    13    14   ar
    17    14    15   ar
    18    15    16   ar
    19    16    17   ar
    20    17    18   ar
    21    18    19   ar
    22    19    20   ar
    23    10    11    1
    24    11     2    1
    25     9     4   ar
    26    20    12   ar
    27    19    15   ar
    28    21    22    1
    29    25    26    1
@<TRIPOS>MOLECULE
*****
 26 29 0 0 0
SMALL
GASTEIGER

@<TRIPOS>ATOM
      1 C           0.3201    2.4600   22.0095 C.3     1  UNL1        0.0899
      2 N          -0.5319    2.7644   23.2060 N.3     1  UNL1       -0.2671
      3 C          -1.8788    3.3994   23.0256 C.3     1  UNL1        0.0989
      4 C          -2.7309    3.7039   24.2220 C.ar    1  UNL1       -0.0085
      5 C          -4.0777    4.3389   24.0416 C.ar    1  UNL1        0.0111
      6 C          -4.9297    4.6434   25.2380 C.ar    1  UNL1        0.0444
      7 C          -4.4347    4.3128   26.6148 C.ar    1  UNL1        0.0140
      8 C          -3.0879    3.6778   26.7953 C.ar    1  UNL1       -0.0029
      9 C          -2.2359    3.3733   25.5989 C.ar    1  UNL1       -0.0196
     10 C          -0.8889    2.7383   25.7793 C.3     1  UNL1        0.0602
     11 C          -0.0370    2.4338   24.5829 C.3     1  UNL1        0.0811
     12 C          -0.3940    2.4077   27.1561 C.ar    1  UNL1       -0.0170
     13 C          -0.6281    1.0414   27.7293 C.ar    1  UNL1       -0.0034
     14 C          -0.1332    0.7108   29.1062 C.ar    1  UNL1        0.0062
     15 C           0.5959    1.7465   29.9099 C.ar    1  UNL1        0.0295
     16 S           1.1956    1.7114   31.2843 S.2     1  UNL1       -0.0864
     17 C           1.8004    3.0560   31.5605 C.ar    1  UNL1        0.0354
     18 C           1.5744    3.9221   30.3568 C.ar    1  UNL1        0.0075
     19 C           0.8300    3.1127   29.3367 C.ar    1  UNL1        0.0062
     20 C           0.3350    3.4433   27.9598 C.ar    1  UNL1       -0.0034
     21 N          -6.2766    5.2784   25.0576 N.pl3   1  UNL1       -0.3306
     22 H          -6.7971    5.5607   25.8441 H       1  UNL1        0.1469
     23 C          -6.8305    5.4834   23.6787 C.3     1  UNL1        0.1193
     24 C          -7.4568    4.3356   22.9438 C.3     1  UNL1        0.1583
     25 O          -8.6982    3.6882   23.4819 O.3     1  UNL1       -0.3802
     26 H          -8.4959    3.2508   24.3238 H       1  UNL1        0.2105
@<TRIPOS>BOND
     1     1     2    1
     2     2     3    1
     3     3     4    1
     4     4     5   ar
     5     5     6   ar
     6     6    21    1
     7    21    23    1
     8    23    24    1
     9    24    25    1
    10     6     7   ar
    11     7     8   ar
    12     8     9   ar
    13     9    10    1
    14    10    12    1
    15    12    13   ar
    16    13    14   ar
    17    14    15   ar
    18    15    16   ar
    19    16    17   ar
    20    17    18   ar
    21    18    19   ar
    22    19    20   ar
    23    10    11    1
    24    11     2    1
    25     9     4   ar
    26    20    12   ar
    27    19    15   ar
    28    21    22    1
    29    25    26    1
@<TRIPOS>MOLECULE
*****
 26 29 0 0 0
SMALL
GASTEIGER

@<TRIPOS>ATOM
      1 C           2.1128    5.7917   17.8001 C.3     1  UNL1        0.0899
      2 N           1.6053    4.5523   18.4758 N.3     1  UNL1       -0.2671
      3 C           2.3847    3.2742   18.3816 C.3     1  UNL1        0.0989
      4 C           1.8772    2.0348   19.0572 C.ar    1  UNL1       -0.0085
      5 C           2.6566    0.7566   18.9630 C.ar    1  UNL1        0.0111
      6 C           2.1491   -0.4827   19.6387 C.ar    1  UNL1        0.0444
      7 C           0.8623   -0.4439   20.4085 C.ar    1  UNL1        0.0140
      8 C           0.0829    0.8343   20.5027 C.ar    1  UNL1       -0.0029
      9 C           0.5904    2.0736   19.8271 C.ar    1  UNL1       -0.0196
     10 C          -0.1889    3.3519   19.9212 C.3     1  UNL1        0.0602
     11 C           0.3185    4.5912   19.2456 C.3     1  UNL1        0.0811
     12 C          -1.4757    3.3907   20.6910 C.ar    1  UNL1       -0.0170
     13 C          -2.7848    3.2563   19.9710 C.ar    1  UNL1       -0.0034
     14 C          -4.0716    3.2951   20.7408 C.ar    1  UNL1        0.0062
     15 C          -4.0493    3.4684   22.2307 C.ar    1  UNL1        0.0295
     16 S          -5.1482    3.5433   23.2489 S.2     1  UNL1       -0.0864
     17 C          -4.5183    3.7240   24.5982 C.ar    1  UNL1        0.0354
     18 C          -3.0302    3.7607   24.4138 C.ar    1  UNL1        0.0075
     19 C          -2.7403    3.6028   22.9506 C.ar    1  UNL1        0.0062
     20 C          -1.4535    3.5639   22.1808 C.ar    1  UNL1       -0.0034
     21 N           2.9284   -1.7609   19.5445 N.pl3   1  UNL1       -0.3306
     22 H           2.4559   -2.6207   19.4620 H       1  UNL1        0.1469
     23 C           4.4278   -1.7292   19.5761 C.3     1  UNL1        0.1193
     24 C           5.2103   -2.0085   18.3273 C.3     1  UNL1        0.1583
     25 O           4.5395   -1.9280   16.9881 O.3     1  UNL1       -0.3802
     26 H           3.8697   -2.6264   16.9195 H       1  UNL1        0.2105
@<TRIPOS>BOND
     1     1     2    1
     2     2     3    1
     3     3     4    1
     4     4     5   ar
     5     5     6   ar
     6     6    21    1
     7    21    23    1
     8    23    24    1
     9    24    25    1
    10     6     7   ar
    11     7     8   ar
    12     8     9   ar
    13     9    10    1
    14    10    12    1
    15    12    13   ar
    16    13    14   ar
    17    14    15   ar
    18    15    16   ar
    19    16    17   ar
    20    17    18   ar
    21    18    19   ar
    22    19    20   ar
    23    10    11    1
    24    11     2    1
    25     9     4   ar
    26    20    12   ar
    27    19    15   ar
    28    21    22    1
    29    25    26    1
