@<TRIPOS>MOLECULE
*****
 19 20 0 0 0
SMALL
GASTEIGER

@<TRIPOS>ATOM
      1 C          -8.7530  -18.8735   21.4455 C.2     1  UNL1        0.0873
      2 C          -8.5668  -19.6558   22.7118 C.2     1  UNL1        0.0596
      3 C          -9.6567  -19.6861   23.7418 C.2     1  UNL1        0.1971
      4 O          -9.4705  -20.4684   25.0080 O.2     1  UNL1       -0.2865
      5 C         -10.9330  -18.9341   23.5056 C.ar    1  UNL1        0.0421
      6 C         -12.0229  -18.9644   24.5357 C.ar    1  UNL1        0.0033
      7 C         -13.2991  -18.2124   24.2995 C.ar    1  UNL1        0.0001
      8 C         -13.4854  -17.4301   23.0332 C.ar    1  UNL1        0.0001
      9 C         -12.3954  -17.3998   22.0032 C.ar    1  UNL1        0.0033
     10 C         -11.1192  -18.1518   22.2394 C.ar    1  UNL1        0.0433
     11 C         -10.0292  -18.1215   21.2093 C.2     1  UNL1        0.2087
     12 O         -10.2154  -17.3392   19.9431 O.2     1  UNL1       -0.2853
     13 N          -7.6629  -18.8432   20.4155 N.pl3   1  UNL1       -0.3301
     14 H          -7.3196  -17.9808   20.0873 H       1  UNL1        0.1469
     15 C          -7.0960  -20.1268   19.8855 C.3     1  UNL1        0.0871
     16 C          -5.8148  -20.6690   20.4463 C.3     1  UNL1        0.0212
     17 C          -3.7751  -19.2020   19.7848 C.3     1  UNL1        0.0001
     18 C          -4.7091  -19.7318   20.8322 C.3     1  UNL1        0.0017
     19 C          -4.5373  -19.3242   22.2655 C.3     1  UNL1        0.0001
@<TRIPOS>BOND
     1    17    18    1
     2    18    19    1
     3    18    16    1
     4    16    15    1
     5    15    13    1
     6    13     1    1
     7     1     2    2
     8     2     3    1
     9     3     4    2
    10     3     5    1
    11     5     6   ar
    12     6     7   ar
    13     7     8   ar
    14     8     9   ar
    15     9    10   ar
    16    10    11    1
    17    11    12    2
    18    11     1    1
    19    10     5   ar
    20    13    14    1
@<TRIPOS>MOLECULE
*****
 19 20 0 0 0
SMALL
GASTEIGER

@<TRIPOS>ATOM
      1 C          -7.7509  -18.2658   22.3183 C.2     1  UNL1        0.0873
      2 C          -8.2933  -19.5067   22.9632 C.2     1  UNL1        0.0596
      3 C          -9.7456  -19.5881   23.3293 C.2     1  UNL1        0.1971
      4 O         -10.2881  -20.8291   23.9742 O.2     1  UNL1       -0.2865
      5 C         -10.6556  -18.4287   23.0505 C.ar    1  UNL1        0.0421
      6 C         -12.1079  -18.5101   23.4166 C.ar    1  UNL1        0.0033
      7 C         -13.0178  -17.3507   23.1379 C.ar    1  UNL1        0.0001
      8 C         -12.4754  -16.1098   22.4930 C.ar    1  UNL1        0.0001
      9 C         -11.0230  -16.0283   22.1269 C.ar    1  UNL1        0.0033
     10 C         -10.1132  -17.1877   22.4056 C.ar    1  UNL1        0.0433
     11 C          -8.6608  -17.1063   22.0395 C.2     1  UNL1        0.2087
     12 O          -8.1183  -15.8654   21.3946 O.2     1  UNL1       -0.2853
     13 N          -6.2985  -18.1843   21.9522 N.pl3   1  UNL1       -0.3301
     14 H          -5.8386  -17.3138   21.9532 H       1  UNL1        0.1469
     15 C          -5.5468  -19.4292   21.5844 C.3     1  UNL1        0.0871
     16 C          -4.7487  -19.4761   20.3153 C.3     1  UNL1        0.0212
     17 C          -2.4663  -19.6660   21.5418 C.3     1  UNL1        0.0001
     18 C          -3.2688  -19.2340   20.3505 C.3     1  UNL1        0.0017
     19 C          -2.5914  -18.5598   19.1944 C.3     1  UNL1        0.0001
@<TRIPOS>BOND
     1    17    18    1
     2    18    19    1
     3    18    16    1
     4    16    15    1
     5    15    13    1
     6    13     1    1
     7     1     2    2
     8     2     3    1
     9     3     4    2
    10     3     5    1
    11     5     6   ar
    12     6     7   ar
    13     7     8   ar
    14     8     9   ar
    15     9    10   ar
    16    10    11    1
    17    11    12    2
    18    11     1    1
    19    10     5   ar
    20    13    14    1
@<TRIPOS>MOLECULE
*****
 19 20 0 0 0
SMALL
GASTEIGER

@<TRIPOS>ATOM
      1 C          -9.1578  -17.9080   22.7341 C.2     1  UNL1        0.0873
      2 C          -8.1402  -16.9115   22.2635 C.2     1  UNL1        0.0596
      3 C          -7.4331  -16.0361   23.2552 C.2     1  UNL1        0.1971
      4 O          -6.4156  -15.0396   22.7846 O.2     1  UNL1       -0.2865
      5 C          -7.7437  -16.1571   24.7178 C.ar    1  UNL1        0.0421
      6 C          -7.0366  -15.2817   25.7096 C.ar    1  UNL1        0.0033
      7 C          -7.3472  -15.4028   27.1721 C.ar    1  UNL1        0.0001
      8 C          -8.3647  -16.3993   27.6427 C.ar    1  UNL1        0.0001
      9 C          -9.0718  -17.2747   26.6509 C.ar    1  UNL1        0.0033
     10 C          -8.7612  -17.1536   25.1885 C.ar    1  UNL1        0.0433
     11 C          -9.4683  -18.0290   24.1966 C.2     1  UNL1        0.2087
     12 O         -10.4859  -19.0255   24.6673 O.2     1  UNL1       -0.2853
     13 N          -9.8648  -18.7834   21.7422 N.pl3   1  UNL1       -0.3301
     14 H          -9.5972  -19.7251   21.6382 H       1  UNL1        0.1469
     15 C         -10.9796  -18.2240   20.9089 C.3     1  UNL1        0.0871
     16 C         -12.3852  -18.2344   21.4323 C.3     1  UNL1        0.0212
     17 C         -12.3077  -15.9150   22.6003 C.3     1  UNL1        0.0001
     18 C         -12.7660  -17.3431   22.5771 C.3     1  UNL1        0.0017
     19 C         -13.6050  -17.8797   23.6986 C.3     1  UNL1        0.0001
@<TRIPOS>BOND
     1    17    18    1
     2    18    19    1
     3    18    16    1
     4    16    15    1
     5    15    13    1
     6    13     1    1
     7     1     2    2
     8     2     3    1
     9     3     4    2
    10     3     5    1
    11     5     6   ar
    12     6     7   ar
    13     7     8   ar
    14     8     9   ar
    15     9    10   ar
    16    10    11    1
    17    11    12    2
    18    11     1    1
    19    10     5   ar
    20    13    14    1
@<TRIPOS>MOLECULE
*****
 19 20 0 0 0
SMALL
GASTEIGER

@<TRIPOS>ATOM
      1 C          -7.3187  -18.0808   22.0414 C.2     1  UNL1        0.0873
      2 C          -7.6791  -18.9559   20.8777 C.2     1  UNL1        0.0596
      3 C          -9.1125  -19.0915   20.4569 C.2     1  UNL1        0.1971
      4 O          -9.4729  -19.9666   19.2932 O.2     1  UNL1       -0.2865
      5 C         -10.1854  -18.3519   21.1999 C.ar    1  UNL1        0.0421
      6 C         -11.6188  -18.4875   20.7791 C.ar    1  UNL1        0.0033
      7 C         -12.6916  -17.7480   21.5221 C.ar    1  UNL1        0.0001
      8 C         -12.3312  -16.8729   22.6858 C.ar    1  UNL1        0.0001
      9 C         -10.8978  -16.7373   23.1066 C.ar    1  UNL1        0.0033
     10 C          -9.8250  -17.4768   22.3636 C.ar    1  UNL1        0.0433
     11 C          -8.3915  -17.3413   22.7844 C.2     1  UNL1        0.2087
     12 O          -8.0311  -16.4662   23.9481 O.2     1  UNL1       -0.2853
     13 N          -5.8852  -17.9452   22.4622 N.pl3   1  UNL1       -0.3301
     14 H          -5.5425  -17.0748   22.7693 H       1  UNL1        0.1469
     15 C          -4.9740  -19.1357   22.4151 C.3     1  UNL1        0.0871
     16 C          -3.6321  -19.0274   21.7536 C.3     1  UNL1        0.0212
     17 C          -4.1519  -20.6751   19.8133 C.3     1  UNL1        0.0001
     18 C          -3.4662  -19.4417   20.3215 C.3     1  UNL1        0.0017
     19 C          -2.6146  -18.6225   19.3976 C.3     1  UNL1        0.0001
@<TRIPOS>BOND
     1    17    18    1
     2    18    19    1
     3    18    16    1
     4    16    15    1
     5    15    13    1
     6    13     1    1
     7     1     2    2
     8     2     3    1
     9     3     4    2
    10     3     5    1
    11     5     6   ar
    12     6     7   ar
    13     7     8   ar
    14     8     9   ar
    15     9    10   ar
    16    10    11    1
    17    11    12    2
    18    11     1    1
    19    10     5   ar
    20    13    14    1
@<TRIPOS>MOLECULE
*****
 19 20 0 0 0
SMALL
GASTEIGER

@<TRIPOS>ATOM
      1 C          -7.6228  -17.0689   22.8126 C.2     1  UNL1        0.0873
      2 C          -8.0649  -18.3503   23.4548 C.2     1  UNL1        0.0596
      3 C          -9.4731  -18.8337   23.2726 C.2     1  UNL1        0.1971
      4 O          -9.9152  -20.1152   23.9148 O.2     1  UNL1       -0.2865
      5 C         -10.4393  -18.0357   22.4481 C.ar    1  UNL1        0.0421
      6 C         -11.8475  -18.5191   22.2659 C.ar    1  UNL1        0.0033
      7 C         -12.8136  -17.7211   21.4415 C.ar    1  UNL1        0.0001
      8 C         -12.3715  -16.4396   20.7993 C.ar    1  UNL1        0.0001
      9 C         -10.9633  -15.9562   20.9815 C.ar    1  UNL1        0.0033
     10 C          -9.9972  -16.7542   21.8059 C.ar    1  UNL1        0.0433
     11 C          -8.5889  -16.2708   21.9882 C.2     1  UNL1        0.2087
     12 O          -8.1468  -14.9894   21.3460 O.2     1  UNL1       -0.2853
     13 N          -6.2145  -16.5855   22.9949 N.pl3   1  UNL1       -0.3301
     14 H          -5.4722  -17.0515   22.5466 H       1  UNL1        0.1469
     15 C          -5.9373  -15.3920   23.8603 C.3     1  UNL1        0.0871
     16 C          -5.8451  -15.5503   25.3490 C.3     1  UNL1        0.0212
     17 C          -8.4186  -15.2619   25.5583 C.3     1  UNL1        0.0001
     18 C          -7.0950  -15.6020   26.1767 C.3     1  UNL1        0.0017
     19 C          -7.0214  -15.9939   27.6227 C.3     1  UNL1        0.0001
@<TRIPOS>BOND
     1    17    18    1
     2    18    19    1
     3    18    16    1
     4    16    15    1
     5    15    13    1
     6    13     1    1
     7     1     2    2
     8     2     3    1
     9     3     4    2
    10     3     5    1
    11     5     6   ar
    12     6     7   ar
    13     7     8   ar
    14     8     9   ar
    15     9    10   ar
    16    10    11    1
    17    11    12    2
    18    11     1    1
    19    10     5   ar
    20    13    14    1
@<TRIPOS>MOLECULE
*****
 19 20 0 0 0
SMALL
GASTEIGER

@<TRIPOS>ATOM
      1 C          -7.7102  -15.8909   23.2719 C.2     1  UNL1        0.0873
      2 C          -8.1509  -16.7996   24.3810 C.2     1  UNL1        0.0596
      3 C          -9.4997  -17.4534   24.3238 C.2     1  UNL1        0.1971
      4 O          -9.9404  -18.3621   25.4329 O.2     1  UNL1       -0.2865
      5 C         -10.4079  -17.1984   23.1574 C.ar    1  UNL1        0.0421
      6 C         -11.7567  -17.8522   23.1002 C.ar    1  UNL1        0.0033
      7 C         -12.6647  -17.5973   21.9339 C.ar    1  UNL1        0.0001
      8 C         -12.2241  -16.6886   20.8248 C.ar    1  UNL1        0.0001
      9 C         -10.8753  -16.0348   20.8820 C.ar    1  UNL1        0.0033
     10 C          -9.9672  -16.2897   22.0483 C.ar    1  UNL1        0.0433
     11 C          -8.6183  -15.6359   22.1056 C.2     1  UNL1        0.2087
     12 O          -8.1776  -14.7272   20.9966 O.2     1  UNL1       -0.2853
     13 N          -6.3614  -15.2371   23.3292 N.pl3   1  UNL1       -0.3301
     14 H          -6.2258  -14.3515   22.9210 H       1  UNL1        0.1469
     15 C          -5.2190  -15.9326   24.0084 C.3     1  UNL1        0.0871
     16 C          -3.9732  -16.2560   23.2383 C.3     1  UNL1        0.0212
     17 C          -2.2800  -18.1259   22.6167 C.3     1  UNL1        0.0001
     18 C          -3.6940  -17.6701   22.8228 C.3     1  UNL1        0.0017
     19 C          -4.8290  -18.6282   22.6136 C.3     1  UNL1        0.0001
@<TRIPOS>BOND
     1    17    18    1
     2    18    19    1
     3    18    16    1
     4    16    15    1
     5    15    13    1
     6    13     1    1
     7     1     2    2
     8     2     3    1
     9     3     4    2
    10     3     5    1
    11     5     6   ar
    12     6     7   ar
    13     7     8   ar
    14     8     9   ar
    15     9    10   ar
    16    10    11    1
    17    11    12    2
    18    11     1    1
    19    10     5   ar
    20    13    14    1
@<TRIPOS>MOLECULE
*****
 19 20 0 0 0
SMALL
GASTEIGER

@<TRIPOS>ATOM
      1 C          -7.7706  -19.1291   20.8956 C.2     1  UNL1        0.0873
      2 C          -7.3365  -18.2906   22.0612 C.2     1  UNL1        0.0596
      3 C          -8.3275  -17.4085   22.7609 C.2     1  UNL1        0.1971
      4 O          -7.8934  -16.5700   23.9264 O.2     1  UNL1       -0.2865
      5 C          -9.7527  -17.3647   22.2950 C.ar    1  UNL1        0.0421
      6 C         -10.7438  -16.4826   22.9948 C.ar    1  UNL1        0.0033
      7 C         -12.1689  -16.4389   22.5289 C.ar    1  UNL1        0.0001
      8 C         -12.6030  -17.2774   21.3634 C.ar    1  UNL1        0.0001
      9 C         -11.6120  -18.1595   20.6636 C.ar    1  UNL1        0.0033
     10 C         -10.1868  -18.2032   21.1295 C.ar    1  UNL1        0.0433
     11 C          -9.1957  -19.0854   20.4298 C.2     1  UNL1        0.2087
     12 O          -9.6298  -19.9239   19.2642 O.2     1  UNL1       -0.2853
     13 N          -6.7795  -20.0112   20.1959 N.pl3   1  UNL1       -0.3301
     14 H          -7.0840  -20.6407   19.5029 H       1  UNL1        0.1469
     15 C          -5.3244  -19.9343   20.5520 C.3     1  UNL1        0.0871
     16 C          -4.3855  -19.1313   19.7014 C.3     1  UNL1        0.0212
     17 C          -1.9812  -18.2966   19.1792 C.3     1  UNL1        0.0001
     18 C          -2.9351  -19.0341   20.0715 C.3     1  UNL1        0.0017
     19 C          -2.4387  -19.6743   21.3338 C.3     1  UNL1        0.0001
@<TRIPOS>BOND
     1    17    18    1
     2    18    19    1
     3    18    16    1
     4    16    15    1
     5    15    13    1
     6    13     1    1
     7     1     2    2
     8     2     3    1
     9     3     4    2
    10     3     5    1
    11     5     6   ar
    12     6     7   ar
    13     7     8   ar
    14     8     9   ar
    15     9    10   ar
    16    10    11    1
    17    11    12    2
    18    11     1    1
    19    10     5   ar
    20    13    14    1
@<TRIPOS>MOLECULE
*****
 19 20 0 0 0
SMALL
GASTEIGER

@<TRIPOS>ATOM
      1 C          -7.0035  -18.3933   21.6722 C.2     1  UNL1        0.0873
      2 C          -7.4669  -19.2290   20.5159 C.2     1  UNL1        0.0596
      3 C          -8.9166  -19.2392   20.1313 C.2     1  UNL1        0.1971
      4 O          -9.3800  -20.0749   18.9751 O.2     1  UNL1       -0.2865
      5 C          -9.9032  -18.4137   20.9030 C.ar    1  UNL1        0.0421
      6 C         -11.3530  -18.4239   20.5184 C.ar    1  UNL1        0.0033
      7 C         -12.3394  -17.5985   21.2901 C.ar    1  UNL1        0.0001
      8 C         -11.8761  -16.7628   22.4463 C.ar    1  UNL1        0.0001
      9 C         -10.4263  -16.7526   22.8309 C.ar    1  UNL1        0.0033
     10 C          -9.4398  -17.5780   22.0593 C.ar    1  UNL1        0.0433
     11 C          -7.9900  -17.5678   22.4439 C.2     1  UNL1        0.2087
     12 O          -7.5266  -16.7321   23.6001 O.2     1  UNL1       -0.2853
     13 N          -5.5536  -18.3831   22.0568 N.pl3   1  UNL1       -0.3301
     14 H          -5.2623  -17.9032   22.8655 H       1  UNL1        0.1469
     15 C          -4.5478  -19.1041   21.2092 C.3     1  UNL1        0.0871
     16 C          -3.1011  -19.1115   21.6051 C.3     1  UNL1        0.0212
     17 C          -1.2158  -18.3793   19.9742 C.3     1  UNL1        0.0001
     18 C          -2.1746  -18.0546   21.0811 C.3     1  UNL1        0.0017
     19 C          -2.2069  -16.6729   21.6640 C.3     1  UNL1        0.0001
@<TRIPOS>BOND
     1    17    18    1
     2    18    19    1
     3    18    16    1
     4    16    15    1
     5    15    13    1
     6    13     1    1
     7     1     2    2
     8     2     3    1
     9     3     4    2
    10     3     5    1
    11     5     6   ar
    12     6     7   ar
    13     7     8   ar
    14     8     9   ar
    15     9    10   ar
    16    10    11    1
    17    11    12    2
    18    11     1    1
    19    10     5   ar
    20    13    14    1
@<TRIPOS>MOLECULE
*****
 19 20 0 0 0
SMALL
GASTEIGER

@<TRIPOS>ATOM
      1 C          -8.6115  -18.2677   21.1589 C.2     1  UNL1        0.0873
      2 C          -8.1618  -17.4107   22.3049 C.2     1  UNL1        0.0596
      3 C          -6.7430  -17.4856   22.7858 C.2     1  UNL1        0.1971
      4 O          -6.2933  -16.6286   23.9318 O.2     1  UNL1       -0.2865
      5 C          -5.7739  -18.4176   22.1208 C.ar    1  UNL1        0.0421
      6 C          -4.3551  -18.4926   22.6018 C.ar    1  UNL1        0.0033
      7 C          -3.3860  -19.4246   21.9367 C.ar    1  UNL1        0.0001
      8 C          -3.8357  -20.2816   20.7907 C.ar    1  UNL1        0.0001
      9 C          -5.2545  -20.2066   20.3098 C.ar    1  UNL1        0.0033
     10 C          -6.2236  -19.2746   20.9748 C.ar    1  UNL1        0.0433
     11 C          -7.6425  -19.1996   20.4938 C.2     1  UNL1        0.2087
     12 O          -8.0922  -20.0566   19.3479 O.2     1  UNL1       -0.2853
     13 N         -10.0304  -18.1926   20.6779 N.pl3   1  UNL1       -0.3301
     14 H         -10.3234  -17.4321   20.1257 H       1  UNL1        0.1469
     15 C         -11.0028  -19.2764   21.0384 C.3     1  UNL1        0.0871
     16 C         -10.8175  -20.0596   22.3042 C.3     1  UNL1        0.0212
     17 C         -12.0940  -18.3564   23.7941 C.3     1  UNL1        0.0001
     18 C         -11.0253  -19.3966   23.6336 C.3     1  UNL1        0.0017
     19 C         -10.1644  -19.7739   24.8025 C.3     1  UNL1        0.0001
@<TRIPOS>BOND
     1    17    18    1
     2    18    19    1
     3    18    16    1
     4    16    15    1
     5    15    13    1
     6    13     1    1
     7     1     2    2
     8     2     3    1
     9     3     4    2
    10     3     5    1
    11     5     6   ar
    12     6     7   ar
    13     7     8   ar
    14     8     9   ar
    15     9    10   ar
    16    10    11    1
    17    11    12    2
    18    11     1    1
    19    10     5   ar
    20    13    14    1
