@<TRIPOS>MOLECULE
*****
 19 22 0 0 0
SMALL
GASTEIGER

@<TRIPOS>ATOM
      1 C          -9.3922  -16.7567   22.8130 C.ar    1  UNL1       -0.0215
      2 C          -8.2551  -15.9213   22.3041 C.ar    1  UNL1       -0.0042
      3 C          -7.2496  -15.3583   23.2643 C.ar    1  UNL1       -0.0003
      4 C          -7.3813  -15.6307   24.7335 C.ar    1  UNL1       -0.0000
      5 C          -6.3758  -15.0677   25.6937 C.ar    1  UNL1       -0.0000
      6 C          -6.5075  -15.3401   27.1629 C.ar    1  UNL1       -0.0000
      7 C          -7.6446  -16.1756   27.6718 C.ar    1  UNL1       -0.0000
      8 C          -8.6501  -16.7385   26.7116 C.ar    1  UNL1       -0.0000
      9 C          -8.5184  -16.4661   25.2424 C.ar    1  UNL1       -0.0003
     10 C          -9.5239  -17.0291   24.2821 C.ar    1  UNL1       -0.0042
     11 C          -8.1407  -19.5693   19.6368 C.3     1  UNL1        0.0896
     12 N          -9.2277  -18.7941   20.3205 N.3     1  UNL1       -0.2712
     13 C         -10.6801  -18.7938   19.9455 C.3     1  UNL1        0.0725
     14 C         -11.4032  -17.8826   20.8925 C.3     1  UNL1        0.0210
     15 C         -12.7477  -17.3193   21.2460 C.3     1  UNL1        0.0018
     16 C         -12.5731  -16.4082   22.4248 C.3     1  UNL1        0.0004
     17 C         -11.1208  -16.4084   22.7998 C.3     1  UNL1        0.0054
     18 C         -10.3977  -17.3197   21.8527 C.3     1  UNL1        0.0349
     19 C          -9.0532  -17.8829   21.4992 C.3     1  UNL1        0.0762
@<TRIPOS>BOND
     1    11    12    1
     2    12    13    1
     3    14    13    1
     4    14    15    1
     5    15    16    1
     6    16    17    1
     7    17    18    1
     8    18     1    1
     9     1     2   ar
    10     2     3   ar
    11     3     4   ar
    12     4     5   ar
    13     5     6   ar
    14     6     7   ar
    15     7     8   ar
    16     8     9   ar
    17     9    10   ar
    18    18    19    1
    19    19    12    1
    20    18    14    1
    21    10     1   ar
    22     9     4   ar
@<TRIPOS>MOLECULE
*****
 19 22 0 0 0
SMALL
GASTEIGER

@<TRIPOS>ATOM
      1 C          -9.2772  -17.1434   22.9864 C.ar    1  UNL1       -0.0215
      2 C          -8.7993  -15.9516   23.7618 C.ar    1  UNL1       -0.0042
      3 C          -7.3324  -15.7542   24.0052 C.ar    1  UNL1       -0.0003
      4 C          -6.3434  -16.7487   23.4731 C.ar    1  UNL1       -0.0000
      5 C          -4.8765  -16.5513   23.7164 C.ar    1  UNL1       -0.0000
      6 C          -3.8876  -17.5457   23.1844 C.ar    1  UNL1       -0.0000
      7 C          -4.3655  -18.7375   22.4090 C.ar    1  UNL1       -0.0000
      8 C          -5.8324  -18.9349   22.1656 C.ar    1  UNL1       -0.0000
      9 C          -6.8213  -17.9404   22.6977 C.ar    1  UNL1       -0.0003
     10 C          -8.2883  -18.1378   22.4543 C.ar    1  UNL1       -0.0042
     11 C         -11.1997  -15.4879   19.3630 C.3     1  UNL1        0.0896
     12 N         -11.3092  -16.2566   20.6465 N.3     1  UNL1       -0.2712
     13 C         -12.5602  -16.8680   21.2040 C.3     1  UNL1        0.0725
     14 C         -12.2111  -17.5380   22.4998 C.3     1  UNL1        0.0210
     15 C         -12.7684  -18.3300   23.6452 C.3     1  UNL1        0.0018
     16 C         -11.6460  -18.6222   24.5965 C.3     1  UNL1        0.0004
     17 C         -10.3949  -18.0108   24.0389 C.3     1  UNL1        0.0054
     18 C         -10.7442  -17.3407   22.7431 C.3     1  UNL1        0.0349
     19 C         -10.1867  -16.5487   21.5977 C.3     1  UNL1        0.0762
@<TRIPOS>BOND
     1    11    12    1
     2    12    13    1
     3    14    13    1
     4    14    15    1
     5    15    16    1
     6    16    17    1
     7    17    18    1
     8    18     1    1
     9     1     2   ar
    10     2     3   ar
    11     3     4   ar
    12     4     5   ar
    13     5     6   ar
    14     6     7   ar
    15     7     8   ar
    16     8     9   ar
    17     9    10   ar
    18    18    19    1
    19    19    12    1
    20    18    14    1
    21    10     1   ar
    22     9     4   ar
@<TRIPOS>MOLECULE
*****
 19 22 0 0 0
SMALL
GASTEIGER

@<TRIPOS>ATOM
      1 C          -8.7675  -18.8425   21.8349 C.ar    1  UNL1       -0.0215
      2 C          -8.7349  -19.5005   20.4873 C.ar    1  UNL1       -0.0042
      3 C          -7.4205  -19.8541   19.8570 C.ar    1  UNL1       -0.0003
      4 C          -6.1387  -19.5497   20.5742 C.ar    1  UNL1       -0.0000
      5 C          -4.8243  -19.9032   19.9438 C.ar    1  UNL1       -0.0000
      6 C          -3.5426  -19.5988   20.6611 C.ar    1  UNL1       -0.0000
      7 C          -3.5753  -18.9409   22.0087 C.ar    1  UNL1       -0.0000
      8 C          -4.8896  -18.5873   22.6390 C.ar    1  UNL1       -0.0000
      9 C          -6.1713  -18.8917   21.9218 C.ar    1  UNL1       -0.0003
     10 C          -7.4858  -18.5381   22.5522 C.ar    1  UNL1       -0.0042
     11 C         -11.5076  -15.9797   19.8698 C.3     1  UNL1        0.0896
     12 N         -11.2049  -16.8985   21.0163 N.3     1  UNL1       -0.2712
     13 C         -12.0904  -17.1525   22.2001 C.3     1  UNL1        0.0725
     14 C         -11.3963  -18.1355   23.0957 C.3     1  UNL1        0.0210
     15 C         -11.5146  -18.9000   24.3808 C.3     1  UNL1        0.0018
     16 C         -10.2733  -19.7260   24.5447 C.3     1  UNL1        0.0004
     17 C          -9.3878  -19.4720   23.3608 C.3     1  UNL1        0.0054
     18 C         -10.0820  -18.4890   22.4653 C.3     1  UNL1        0.0349
     19 C          -9.9636  -17.7245   21.1802 C.3     1  UNL1        0.0762
@<TRIPOS>BOND
     1    11    12    1
     2    12    13    1
     3    14    13    1
     4    14    15    1
     5    15    16    1
     6    16    17    1
     7    17    18    1
     8    18     1    1
     9     1     2   ar
    10     2     3   ar
    11     3     4   ar
    12     4     5   ar
    13     5     6   ar
    14     6     7   ar
    15     7     8   ar
    16     8     9   ar
    17     9    10   ar
    18    18    19    1
    19    19    12    1
    20    18    14    1
    21    10     1   ar
    22     9     4   ar
@<TRIPOS>MOLECULE
*****
 19 22 0 0 0
SMALL
GASTEIGER

@<TRIPOS>ATOM
      1 C          -7.6852  -18.9440   22.1770 C.ar    1  UNL1       -0.0215
      2 C          -8.3809  -20.0552   22.9058 C.ar    1  UNL1       -0.0042
      3 C          -9.8312  -19.9239   23.2653 C.ar    1  UNL1       -0.0003
      4 C         -10.5859  -18.6812   22.8959 C.ar    1  UNL1       -0.0000
      5 C         -12.0363  -18.5499   23.2554 C.ar    1  UNL1       -0.0000
      6 C         -12.7909  -17.3073   22.8861 C.ar    1  UNL1       -0.0000
      7 C         -12.0952  -16.1961   22.1573 C.ar    1  UNL1       -0.0000
      8 C         -10.6449  -16.3274   21.7978 C.ar    1  UNL1       -0.0000
      9 C          -9.8902  -17.5700   22.1671 C.ar    1  UNL1       -0.0003
     10 C          -8.4398  -17.7014   21.8077 C.ar    1  UNL1       -0.0042
     11 C          -4.6764  -16.2169   23.9308 C.3     1  UNL1        0.0896
     12 N          -5.0046  -17.3687   23.0276 N.3     1  UNL1       -0.2712
     13 C          -4.0242  -18.1520   22.2059 C.3     1  UNL1        0.0725
     14 C          -4.7845  -19.2068   21.4581 C.3     1  UNL1        0.0210
     15 C          -4.6485  -20.3428   20.4880 C.3     1  UNL1        0.0018
     16 C          -6.0148  -20.9135   20.2480 C.3     1  UNL1        0.0004
     17 C          -6.9952  -20.1302   21.0697 C.3     1  UNL1        0.0054
     18 C          -6.2348  -19.0754   21.8175 C.3     1  UNL1        0.0349
     19 C          -6.3709  -17.9394   22.7876 C.3     1  UNL1        0.0762
@<TRIPOS>BOND
     1    11    12    1
     2    12    13    1
     3    14    13    1
     4    14    15    1
     5    15    16    1
     6    16    17    1
     7    17    18    1
     8    18     1    1
     9     1     2   ar
    10     2     3   ar
    11     3     4   ar
    12     4     5   ar
    13     5     6   ar
    14     6     7   ar
    15     7     8   ar
    16     8     9   ar
    17     9    10   ar
    18    18    19    1
    19    19    12    1
    20    18    14    1
    21    10     1   ar
    22     9     4   ar
@<TRIPOS>MOLECULE
*****
 19 22 0 0 0
SMALL
GASTEIGER

@<TRIPOS>ATOM
      1 C          -8.1795  -16.8990   23.1662 C.ar    1  UNL1       -0.0215
      2 C          -8.7772  -16.0892   22.0540 C.ar    1  UNL1       -0.0042
      3 C         -10.2577  -16.1207   21.8152 C.ar    1  UNL1       -0.0003
      4 C         -11.1406  -16.9621   22.6885 C.ar    1  UNL1       -0.0000
      5 C         -12.6211  -16.9936   22.4497 C.ar    1  UNL1       -0.0000
      6 C         -13.5039  -17.8350   23.3230 C.ar    1  UNL1       -0.0000
      7 C         -12.9062  -18.6448   24.4352 C.ar    1  UNL1       -0.0000
      8 C         -11.4257  -18.6133   24.6740 C.ar    1  UNL1       -0.0000
      9 C         -10.5429  -17.7719   23.8007 C.ar    1  UNL1       -0.0003
     10 C          -9.0623  -17.7404   24.0395 C.ar    1  UNL1       -0.0042
     11 C          -5.4953  -19.6890   21.0269 C.3     1  UNL1        0.0896
     12 N          -5.6778  -18.5714   22.0107 N.3     1  UNL1       -0.2712
     13 C          -4.5873  -17.8889   22.7821 C.3     1  UNL1        0.0725
     14 C          -5.2184  -16.8358   23.6438 C.3     1  UNL1        0.0210
     15 C          -4.9346  -15.7632   24.6532 C.3     1  UNL1        0.0018
     16 C          -6.2396  -15.1318   25.0382 C.3     1  UNL1        0.0004
     17 C          -7.3301  -15.8143   24.2668 C.3     1  UNL1        0.0054
     18 C          -6.6989  -16.8674   23.4050 C.3     1  UNL1        0.0349
     19 C          -6.9829  -17.9400   22.3957 C.3     1  UNL1        0.0762
@<TRIPOS>BOND
     1    11    12    1
     2    12    13    1
     3    14    13    1
     4    14    15    1
     5    15    16    1
     6    16    17    1
     7    17    18    1
     8    18     1    1
     9     1     2   ar
    10     2     3   ar
    11     3     4   ar
    12     4     5   ar
    13     5     6   ar
    14     6     7   ar
    15     7     8   ar
    16     8     9   ar
    17     9    10   ar
    18    18    19    1
    19    19    12    1
    20    18    14    1
    21    10     1   ar
    22     9     4   ar
@<TRIPOS>MOLECULE
*****
 19 22 0 0 0
SMALL
GASTEIGER

@<TRIPOS>ATOM
      1 C          -6.1051  -19.2012   21.1705 C.ar    1  UNL1       -0.0215
      2 C          -6.5515  -19.1970   19.7385 C.ar    1  UNL1       -0.0042
      3 C          -8.0050  -19.3593   19.4055 C.ar    1  UNL1       -0.0003
      4 C          -9.0122  -19.5258   20.5045 C.ar    1  UNL1       -0.0000
      5 C         -10.4657  -19.6880   20.1715 C.ar    1  UNL1       -0.0000
      6 C         -11.4729  -19.8545   21.2706 C.ar    1  UNL1       -0.0000
      7 C         -11.0265  -19.8587   22.7026 C.ar    1  UNL1       -0.0000
      8 C          -9.5730  -19.6965   23.0356 C.ar    1  UNL1       -0.0000
      9 C          -8.5659  -19.5300   21.9366 C.ar    1  UNL1       -0.0003
     10 C          -7.1123  -19.3677   22.2695 C.ar    1  UNL1       -0.0042
     11 C          -4.8047  -16.2379   24.1860 C.3     1  UNL1        0.0896
     12 N          -4.4581  -17.3092   23.1949 N.3     1  UNL1       -0.2712
     13 C          -3.0784  -17.8077   22.8818 C.3     1  UNL1        0.0725
     14 C          -3.1980  -18.8767   21.8364 C.3     1  UNL1        0.0210
     15 C          -2.4192  -19.8455   20.9967 C.3     1  UNL1        0.0018
     16 C          -3.3915  -20.6065   20.1449 C.3     1  UNL1        0.0004
     17 C          -4.7711  -20.1080   20.4580 C.3     1  UNL1        0.0054
     18 C          -4.6515  -19.0390   21.5035 C.3     1  UNL1        0.0349
     19 C          -5.4303  -18.0702   22.3430 C.3     1  UNL1        0.0762
@<TRIPOS>BOND
     1    11    12    1
     2    12    13    1
     3    14    13    1
     4    14    15    1
     5    15    16    1
     6    16    17    1
     7    17    18    1
     8    18     1    1
     9     1     2   ar
    10     2     3   ar
    11     3     4   ar
    12     4     5   ar
    13     5     6   ar
    14     6     7   ar
    15     7     8   ar
    16     8     9   ar
    17     9    10   ar
    18    18    19    1
    19    19    12    1
    20    18    14    1
    21    10     1   ar
    22     9     4   ar
@<TRIPOS>MOLECULE
*****
 19 22 0 0 0
SMALL
GASTEIGER

@<TRIPOS>ATOM
      1 C          -9.1608  -17.7288   22.8846 C.ar    1  UNL1       -0.0215
      2 C         -10.0106  -18.1549   24.0448 C.ar    1  UNL1       -0.0042
      3 C          -9.6802  -17.6831   25.4298 C.ar    1  UNL1       -0.0003
      4 C          -8.4998  -16.7850   25.6545 C.ar    1  UNL1       -0.0000
      5 C          -8.1694  -16.3131   27.0394 C.ar    1  UNL1       -0.0000
      6 C          -6.9891  -15.4151   27.2641 C.ar    1  UNL1       -0.0000
      7 C          -6.1393  -14.9890   26.1038 C.ar    1  UNL1       -0.0000
      8 C          -6.4697  -15.4609   24.7189 C.ar    1  UNL1       -0.0000
      9 C          -7.6500  -16.3589   24.4942 C.ar    1  UNL1       -0.0003
     10 C          -7.9805  -16.8308   23.1092 C.ar    1  UNL1       -0.0042
     11 C          -6.3411  -20.3041   20.6523 C.3     1  UNL1        0.0896
     12 N          -7.6470  -19.5685   20.7132 N.3     1  UNL1       -0.2712
     13 C          -8.6820  -19.5180   19.6287 C.3     1  UNL1        0.0725
     14 C          -9.8218  -18.6726   20.1147 C.3     1  UNL1        0.0210
     15 C         -11.1658  -18.1189   19.7448 C.3     1  UNL1        0.0018
     16 C         -11.6660  -17.3048   20.9011 C.3     1  UNL1        0.0004
     17 C         -10.6311  -17.3554   21.9856 C.3     1  UNL1        0.0054
     18 C          -9.4913  -18.2008   21.4996 C.3     1  UNL1        0.0349
     19 C          -8.1472  -18.7544   21.8696 C.3     1  UNL1        0.0762
@<TRIPOS>BOND
     1    11    12    1
     2    12    13    1
     3    14    13    1
     4    14    15    1
     5    15    16    1
     6    16    17    1
     7    17    18    1
     8    18     1    1
     9     1     2   ar
    10     2     3   ar
    11     3     4   ar
    12     4     5   ar
    13     5     6   ar
    14     6     7   ar
    15     7     8   ar
    16     8     9   ar
    17     9    10   ar
    18    18    19    1
    19    19    12    1
    20    18    14    1
    21    10     1   ar
    22     9     4   ar
@<TRIPOS>MOLECULE
*****
 19 22 0 0 0
SMALL
GASTEIGER

@<TRIPOS>ATOM
      1 C          -8.9156  -17.6730   22.9414 C.ar    1  UNL1       -0.0215
      2 C          -9.8265  -18.0143   24.0833 C.ar    1  UNL1       -0.0042
      3 C          -9.5255  -17.5039   25.4612 C.ar    1  UNL1       -0.0003
      4 C          -8.3136  -16.6520   25.6974 C.ar    1  UNL1       -0.0000
      5 C          -8.0127  -16.1415   27.0753 C.ar    1  UNL1       -0.0000
      6 C          -6.8008  -15.2896   27.3114 C.ar    1  UNL1       -0.0000
      7 C          -5.8900  -14.9483   26.1696 C.ar    1  UNL1       -0.0000
      8 C          -6.1909  -15.4588   24.7916 C.ar    1  UNL1       -0.0000
      9 C          -7.4028  -16.3106   24.5555 C.ar    1  UNL1       -0.0003
     10 C          -7.7038  -16.8211   23.1775 C.ar    1  UNL1       -0.0042
     11 C         -12.6119  -16.4454   20.8447 C.3     1  UNL1        0.0896
     12 N         -11.3338  -17.2306   20.8564 N.3     1  UNL1       -0.2712
     13 C         -10.8261  -18.1051   19.7486 C.3     1  UNL1        0.0725
     14 C          -9.5176  -18.6940   20.1855 C.3     1  UNL1        0.0210
     15 C          -8.3951  -19.5985   19.7709 C.3     1  UNL1        0.0018
     16 C          -7.4004  -19.6470   20.8926 C.3     1  UNL1        0.0004
     17 C          -7.9081  -18.7725   22.0005 C.3     1  UNL1        0.0054
     18 C          -9.2166  -18.1835   21.5634 C.3     1  UNL1        0.0349
     19 C         -10.3391  -17.2790   21.9781 C.3     1  UNL1        0.0762
@<TRIPOS>BOND
     1    11    12    1
     2    12    13    1
     3    14    13    1
     4    14    15    1
     5    15    16    1
     6    16    17    1
     7    17    18    1
     8    18     1    1
     9     1     2   ar
    10     2     3   ar
    11     3     4   ar
    12     4     5   ar
    13     5     6   ar
    14     6     7   ar
    15     7     8   ar
    16     8     9   ar
    17     9    10   ar
    18    18    19    1
    19    19    12    1
    20    18    14    1
    21    10     1   ar
    22     9     4   ar
@<TRIPOS>MOLECULE
*****
 19 22 0 0 0
SMALL
GASTEIGER

@<TRIPOS>ATOM
      1 C          -7.3735  -18.9901   21.7798 C.ar    1  UNL1       -0.0215
      2 C          -7.0820  -17.8552   22.7163 C.ar    1  UNL1       -0.0042
      3 C          -5.6619  -17.4844   23.0261 C.ar    1  UNL1       -0.0003
      4 C          -4.5334  -18.2486   22.3995 C.ar    1  UNL1       -0.0000
      5 C          -3.1134  -17.8778   22.7093 C.ar    1  UNL1       -0.0000
      6 C          -1.9850  -18.6419   22.0827 C.ar    1  UNL1       -0.0000
      7 C          -2.2766  -19.7768   21.1463 C.ar    1  UNL1       -0.0000
      8 C          -3.6966  -20.1476   20.8364 C.ar    1  UNL1       -0.0000
      9 C          -4.8250  -19.3835   21.4630 C.ar    1  UNL1       -0.0003
     10 C          -6.2451  -19.7543   21.1532 C.ar    1  UNL1       -0.0042
     11 C         -10.2783  -19.6925   25.0409 C.3     1  UNL1        0.0896
     12 N          -9.9732  -19.6349   23.5733 N.3     1  UNL1       -0.2712
     13 C         -10.9427  -19.9010   22.4601 C.3     1  UNL1        0.0725
     14 C         -10.2137  -19.7317   21.1602 C.3     1  UNL1        0.0210
     15 C         -10.3622  -19.7915   19.6688 C.3     1  UNL1        0.0018
     16 C          -9.0340  -19.4577   19.0569 C.3     1  UNL1        0.0004
     17 C          -8.0645  -19.1915   20.1701 C.3     1  UNL1        0.0054
     18 C          -8.7936  -19.3609   21.4700 C.3     1  UNL1        0.0349
     19 C          -8.6450  -19.3011   22.9614 C.3     1  UNL1        0.0762
@<TRIPOS>BOND
     1    11    12    1
     2    12    13    1
     3    14    13    1
     4    14    15    1
     5    15    16    1
     6    16    17    1
     7    17    18    1
     8    18     1    1
     9     1     2   ar
    10     2     3   ar
    11     3     4   ar
    12     4     5   ar
    13     5     6   ar
    14     6     7   ar
    15     7     8   ar
    16     8     9   ar
    17     9    10   ar
    18    18    19    1
    19    19    12    1
    20    18    14    1
    21    10     1   ar
    22     9     4   ar
