@<TRIPOS>MOLECULE
*****
 25 26 0 0 0
SMALL
GASTEIGER

@<TRIPOS>ATOM
      1 O          -7.3176  -18.0609   20.8487 O.2     1  UNL1       -0.1499
      2 S          -7.7517  -19.0621   21.8778 S.O2    1  UNL1        0.0736
      3 O          -7.9843  -19.9523   22.6713 O.2     1  UNL1       -0.1499
      4 C          -8.9302  -18.1995   22.2201 C.ar    1  UNL1        0.1290
      5 C          -8.8438  -17.2303   23.3616 C.ar    1  UNL1        0.0201
      6 C         -10.0223  -16.3677   23.7039 C.ar    1  UNL1        0.0014
      7 C         -11.2870  -16.4743   22.9046 C.ar    1  UNL1        0.0000
      8 C         -11.3734  -17.4435   21.7630 C.ar    1  UNL1        0.0052
      9 C         -10.1950  -18.3061   21.4208 C.ar    1  UNL1        0.0902
     10 C         -10.2814  -19.2753   20.2792 C.3     1  UNL1        0.4198
     11 F         -10.3677  -20.2445   19.1376 F       1  UNL1       -0.1658
     12 F         -10.7846  -20.3335   21.2157 F       1  UNL1       -0.1658
     13 F          -9.8853  -18.5203   19.4136 F       1  UNL1       -0.1658
     14 N          -6.5733  -19.9248   21.5356 N.pl3   1  UNL1       -0.2135
     15 H          -6.6766  -20.9026   21.4872 H       1  UNL1        0.1738
     16 C          -5.2374  -19.2975   21.2672 C.ar    1  UNL1        0.0839
     17 C          -4.5629  -19.5067   19.9439 C.ar    1  UNL1        0.0189
     18 C          -3.2271  -18.8794   19.6755 C.ar    1  UNL1        0.0244
     19 C          -2.5657  -18.0430   20.7305 C.ar    1  UNL1        0.1527
     20 N          -3.2402  -17.8338   22.0538 N.ar    1  UNL1       -0.2385
     21 C          -4.5760  -18.4610   22.3222 C.ar    1  UNL1        0.1145
     22 C          -1.2298  -17.4157   20.4621 C.3     1  UNL1        0.4348
     23 F           0.1060  -16.7885   20.1937 F       1  UNL1       -0.1644
     24 F          -0.8203  -18.6248   19.6745 F       1  UNL1       -0.1644
     25 F          -1.6393  -16.2066   21.2496 F       1  UNL1       -0.1644
@<TRIPOS>BOND
     1     1     2    2
     2     2     3    2
     3     2    14    1
     4    14    16    1
     5    16    17   ar
     6    17    18   ar
     7    18    19   ar
     8    19    22    1
     9    22    23    1
    10    22    24    1
    11    22    25    1
    12    19    20   ar
    13    20    21   ar
    14     2     4    1
    15     4     5   ar
    16     5     6   ar
    17     6     7   ar
    18     7     8   ar
    19     8     9   ar
    20     9    10    1
    21    10    11    1
    22    10    12    1
    23    10    13    1
    24    21    16   ar
    25     9     4   ar
    26    14    15    1
@<TRIPOS>MOLECULE
*****
 25 26 0 0 0
SMALL
GASTEIGER

@<TRIPOS>ATOM
      1 O          -7.6478  -18.6946   20.5606 O.2     1  UNL1       -0.1499
      2 S          -8.0455  -19.3597   21.8449 S.O2    1  UNL1        0.0736
      3 O          -8.2384  -19.9710   22.8770 O.2     1  UNL1       -0.1499
      4 C          -9.3297  -18.5846   21.8488 C.ar    1  UNL1        0.1290
      5 C         -10.5166  -19.0960   21.0873 C.ar    1  UNL1        0.0201
      6 C         -11.8008  -18.3209   21.0912 C.ar    1  UNL1        0.0014
      7 C         -11.8982  -17.0345   21.8564 C.ar    1  UNL1        0.0000
      8 C         -10.7112  -16.5232   22.6179 C.ar    1  UNL1        0.0052
      9 C          -9.4270  -17.2982   22.6140 C.ar    1  UNL1        0.0902
     10 C          -8.2401  -16.7869   23.3755 C.3     1  UNL1        0.4198
     11 F          -7.0532  -16.2755   24.1369 F       1  UNL1       -0.1658
     12 F          -8.7778  -17.4077   24.6306 F       1  UNL1       -0.1658
     13 F          -7.6907  -16.2372   22.4416 F       1  UNL1       -0.1658
     14 N          -6.7613  -20.1348   21.8411 N.pl3   1  UNL1       -0.2135
     15 H          -6.7667  -21.0974   22.0476 H       1  UNL1        0.1738
     16 C          -5.4688  -19.4433   21.5225 C.ar    1  UNL1        0.0839
     17 C          -4.7246  -19.7862   20.2661 C.ar    1  UNL1        0.0189
     18 C          -3.4322  -19.0947   19.9476 C.ar    1  UNL1        0.0244
     19 C          -2.8840  -18.0604   20.8855 C.ar    1  UNL1        0.1527
     20 N          -3.6282  -17.7175   22.1419 N.ar    1  UNL1       -0.2385
     21 C          -4.9206  -18.4090   22.4604 C.ar    1  UNL1        0.1145
     22 C          -1.5915  -17.3689   20.5669 C.3     1  UNL1        0.4348
     23 F          -0.2991  -16.6774   20.2484 F       1  UNL1       -0.1644
     24 F          -1.1684  -18.5430   19.7348 F       1  UNL1       -0.1644
     25 F          -2.0146  -16.1948   21.3991 F       1  UNL1       -0.1644
@<TRIPOS>BOND
     1     1     2    2
     2     2     3    2
     3     2    14    1
     4    14    16    1
     5    16    17   ar
     6    17    18   ar
     7    18    19   ar
     8    19    22    1
     9    22    23    1
    10    22    24    1
    11    22    25    1
    12    19    20   ar
    13    20    21   ar
    14     2     4    1
    15     4     5   ar
    16     5     6   ar
    17     6     7   ar
    18     7     8   ar
    19     8     9   ar
    20     9    10    1
    21    10    11    1
    22    10    12    1
    23    10    13    1
    24    21    16   ar
    25     9     4   ar
    26    14    15    1
@<TRIPOS>MOLECULE
*****
 25 26 0 0 0
SMALL
GASTEIGER

@<TRIPOS>ATOM
      1 O         -10.3283  -20.0559   20.1569 O.2     1  UNL1       -0.1499
      2 S          -9.4745  -18.8915   20.5634 S.O2    1  UNL1        0.0736
      3 O          -8.6745  -18.0121   20.8140 O.2     1  UNL1       -0.1499
      4 C         -10.6253  -18.3171   21.3352 C.ar    1  UNL1        0.1290
      5 C         -11.5483  -17.3310   20.6827 C.ar    1  UNL1        0.0201
      6 C         -12.6991  -16.7566   21.4545 C.ar    1  UNL1        0.0014
      7 C         -12.9269  -17.1683   22.8788 C.ar    1  UNL1        0.0000
      8 C         -12.0039  -18.1543   23.5313 C.ar    1  UNL1        0.0052
      9 C         -10.8532  -18.7288   22.7595 C.ar    1  UNL1        0.0902
     10 C          -9.9302  -19.7148   23.4120 C.3     1  UNL1        0.4198
     11 F          -9.0072  -20.7009   24.0645 F       1  UNL1       -0.1658
     12 F          -9.0251  -18.5930   23.8271 F       1  UNL1       -0.1658
     13 F         -10.5667  -20.7141   23.1428 F       1  UNL1       -0.1658
     14 N          -8.3237  -19.4659   19.7916 N.pl3   1  UNL1       -0.2135
     15 H          -8.4838  -19.9144   18.9299 H       1  UNL1        0.1738
     16 C          -6.9289  -19.3569   20.3326 C.ar    1  UNL1        0.0839
     17 C          -6.6385  -19.7664   21.7461 C.ar    1  UNL1        0.0189
     18 C          -5.2438  -19.6574   22.2870 C.ar    1  UNL1        0.0244
     19 C          -4.1393  -19.1389   21.4145 C.ar    1  UNL1        0.1527
     20 N          -4.4296  -18.7294   20.0010 N.ar    1  UNL1       -0.2385
     21 C          -5.8244  -18.8384   19.4601 C.ar    1  UNL1        0.1145
     22 C          -2.7445  -19.0299   21.9555 C.3     1  UNL1        0.4348
     23 F          -1.3497  -18.9210   22.4965 F       1  UNL1       -0.1644
     24 F          -3.2559  -18.2223   23.1114 F       1  UNL1       -0.1644
     25 F          -2.2331  -19.8375   20.7996 F       1  UNL1       -0.1644
@<TRIPOS>BOND
     1     1     2    2
     2     2     3    2
     3     2    14    1
     4    14    16    1
     5    16    17   ar
     6    17    18   ar
     7    18    19   ar
     8    19    22    1
     9    22    23    1
    10    22    24    1
    11    22    25    1
    12    19    20   ar
    13    20    21   ar
    14     2     4    1
    15     4     5   ar
    16     5     6   ar
    17     6     7   ar
    18     7     8   ar
    19     8     9   ar
    20     9    10    1
    21    10    11    1
    22    10    12    1
    23    10    13    1
    24    21    16   ar
    25     9     4   ar
    26    14    15    1
@<TRIPOS>MOLECULE
*****
 25 26 0 0 0
SMALL
GASTEIGER

@<TRIPOS>ATOM
      1 O         -10.3135  -19.9638   20.3837 O.2     1  UNL1       -0.1499
      2 S          -9.5213  -18.7845   20.8650 S.O2    1  UNL1        0.0736
      3 O          -8.7734  -17.8740   21.1614 O.2     1  UNL1       -0.1499
      4 C         -10.6460  -18.4029   21.7814 C.ar    1  UNL1        0.1290
      5 C         -10.8844  -19.1820   23.0408 C.ar    1  UNL1        0.0201
      6 C         -12.0089  -18.8005   23.9572 C.ar    1  UNL1        0.0014
      7 C         -12.8950  -17.6399   23.6142 C.ar    1  UNL1        0.0000
      8 C         -12.6566  -16.8608   22.3547 C.ar    1  UNL1        0.0052
      9 C         -11.5321  -17.2423   21.4383 C.ar    1  UNL1        0.0902
     10 C         -11.2937  -16.4632   20.1789 C.3     1  UNL1        0.4198
     11 F         -11.0553  -15.6842   18.9195 F       1  UNL1       -0.1658
     12 F         -10.6036  -15.3930   20.9716 F       1  UNL1       -0.1658
     13 F         -11.8250  -17.2467   19.4173 F       1  UNL1       -0.1658
     14 N          -8.3968  -19.1660   19.9486 N.pl3   1  UNL1       -0.2135
     15 H          -8.5879  -19.4413   19.0230 H       1  UNL1        0.1738
     16 C          -6.9809  -19.1280   20.4427 C.ar    1  UNL1        0.0839
     17 C          -6.6795  -19.4343   21.8798 C.ar    1  UNL1        0.0189
     18 C          -5.2638  -19.3963   22.3738 C.ar    1  UNL1        0.0244
     19 C          -4.1493  -19.0520   21.4306 C.ar    1  UNL1        0.1527
     20 N          -4.4507  -18.7457   19.9935 N.ar    1  UNL1       -0.2385
     21 C          -5.8665  -18.7837   19.4996 C.ar    1  UNL1        0.1145
     22 C          -2.7335  -19.0140   21.9247 C.3     1  UNL1        0.4348
     23 F          -1.3177  -18.9760   22.4187 F       1  UNL1       -0.1644
     24 F          -3.0628  -17.8246   22.7772 F       1  UNL1       -0.1644
     25 F          -2.4041  -20.2033   21.0721 F       1  UNL1       -0.1644
@<TRIPOS>BOND
     1     1     2    2
     2     2     3    2
     3     2    14    1
     4    14    16    1
     5    16    17   ar
     6    17    18   ar
     7    18    19   ar
     8    19    22    1
     9    22    23    1
    10    22    24    1
    11    22    25    1
    12    19    20   ar
    13    20    21   ar
    14     2     4    1
    15     4     5   ar
    16     5     6   ar
    17     6     7   ar
    18     7     8   ar
    19     8     9   ar
    20     9    10    1
    21    10    11    1
    22    10    12    1
    23    10    13    1
    24    21    16   ar
    25     9     4   ar
    26    14    15    1
@<TRIPOS>MOLECULE
*****
 25 26 0 0 0
SMALL
GASTEIGER

@<TRIPOS>ATOM
      1 O          -8.4366  -18.9785   20.4602 O.2     1  UNL1       -0.1499
      2 S          -8.2883  -18.8788   21.9495 S.O2    1  UNL1        0.0736
      3 O          -8.0501  -18.8866   23.1409 O.2     1  UNL1       -0.1499
      4 C          -9.4934  -17.9876   22.0099 C.ar    1  UNL1        0.1290
      5 C          -9.4686  -16.6462   21.3391 C.ar    1  UNL1        0.0201
      6 C         -10.6736  -15.7550   21.3995 C.ar    1  UNL1        0.0014
      7 C         -11.9035  -16.2052   22.1307 C.ar    1  UNL1        0.0000
      8 C         -11.9283  -17.5466   22.8015 C.ar    1  UNL1        0.0052
      9 C         -10.7233  -18.4378   22.7411 C.ar    1  UNL1        0.0902
     10 C         -10.7481  -19.7792   23.4119 C.3     1  UNL1        0.4198
     11 F         -10.7729  -21.1206   24.0828 F       1  UNL1       -0.1658
     12 F         -11.0231  -20.4347   22.0911 F       1  UNL1       -0.1658
     13 F         -10.5295  -19.3847   24.5401 F       1  UNL1       -0.1658
     14 N          -7.0833  -19.7699   21.8891 N.pl3   1  UNL1       -0.2135
     15 H          -7.1683  -20.7278   22.0999 H       1  UNL1        0.1738
     16 C          -5.7485  -19.2015   21.5077 C.ar    1  UNL1        0.0839
     17 C          -5.1895  -19.4538   20.1388 C.ar    1  UNL1        0.0189
     18 C          -3.8548  -18.8854   19.7574 C.ar    1  UNL1        0.0244
     19 C          -3.0791  -18.0649   20.7448 C.ar    1  UNL1        0.1527
     20 N          -3.6381  -17.8127   22.1137 N.ar    1  UNL1       -0.2385
     21 C          -4.9728  -18.3810   22.4951 C.ar    1  UNL1        0.1145
     22 C          -1.7443  -17.4966   20.3633 C.3     1  UNL1        0.4348
     23 F          -0.4096  -16.9282   19.9819 F       1  UNL1       -0.1644
     24 F          -1.5476  -18.6157   19.3842 F       1  UNL1       -0.1644
     25 F          -1.9410  -16.3774   21.3425 F       1  UNL1       -0.1644
@<TRIPOS>BOND
     1     1     2    2
     2     2     3    2
     3     2    14    1
     4    14    16    1
     5    16    17   ar
     6    17    18   ar
     7    18    19   ar
     8    19    22    1
     9    22    23    1
    10    22    24    1
    11    22    25    1
    12    19    20   ar
    13    20    21   ar
    14     2     4    1
    15     4     5   ar
    16     5     6   ar
    17     6     7   ar
    18     7     8   ar
    19     8     9   ar
    20     9    10    1
    21    10    11    1
    22    10    12    1
    23    10    13    1
    24    21    16   ar
    25     9     4   ar
    26    14    15    1
@<TRIPOS>MOLECULE
*****
 25 26 0 0 0
SMALL
GASTEIGER

@<TRIPOS>ATOM
      1 O          -8.1948  -18.8315   23.1862 O.2     1  UNL1       -0.1499
      2 S          -7.8171  -17.7975   22.1673 S.O2    1  UNL1        0.0736
      3 O          -7.6051  -16.8692   21.4126 O.2     1  UNL1       -0.1499
      4 C          -6.8893  -18.7791   21.5149 C.ar    1  UNL1        0.1290
      5 C          -5.4564  -18.8605   21.9509 C.ar    1  UNL1        0.0201
      6 C          -4.5286  -19.8421   21.2985 C.ar    1  UNL1        0.0014
      7 C          -5.0337  -20.7423   20.2102 C.ar    1  UNL1        0.0000
      8 C          -6.4666  -20.6609   19.7743 C.ar    1  UNL1        0.0052
      9 C          -7.3944  -19.6793   20.4266 C.ar    1  UNL1        0.0902
     10 C          -8.8274  -19.5979   19.9907 C.3     1  UNL1        0.4198
     11 F         -10.2603  -19.5165   19.5547 F       1  UNL1       -0.1658
     12 F          -8.3892  -19.1101   18.6416 F       1  UNL1       -0.1658
     13 F          -9.3211  -19.9820   21.0322 F       1  UNL1       -0.1658
     14 N          -8.7449  -16.8158   22.8197 N.pl3   1  UNL1       -0.2135
     15 H          -8.4342  -15.9034   23.0204 H       1  UNL1        0.1738
     16 C         -10.1460  -17.2243   23.1663 C.ar    1  UNL1        0.0839
     17 C         -10.3882  -18.2139   24.2671 C.ar    1  UNL1        0.0189
     18 C         -11.7893  -18.6223   24.6136 C.ar    1  UNL1        0.0244
     19 C         -12.9482  -18.0411   23.8593 C.ar    1  UNL1        0.1527
     20 N         -12.7060  -17.0514   22.7584 N.ar    1  UNL1       -0.2385
     21 C         -11.3050  -16.6430   22.4119 C.ar    1  UNL1        0.1145
     22 C         -14.3493  -18.4496   24.2058 C.3     1  UNL1        0.4348
     23 F         -15.7504  -18.8580   24.5524 F       1  UNL1       -0.1644
     24 F         -14.7177  -18.4195   22.7521 F       1  UNL1       -0.1644
     25 F         -13.9810  -18.4797   25.6595 F       1  UNL1       -0.1644
@<TRIPOS>BOND
     1     1     2    2
     2     2     3    2
     3     2    14    1
     4    14    16    1
     5    16    17   ar
     6    17    18   ar
     7    18    19   ar
     8    19    22    1
     9    22    23    1
    10    22    24    1
    11    22    25    1
    12    19    20   ar
    13    20    21   ar
    14     2     4    1
    15     4     5   ar
    16     5     6   ar
    17     6     7   ar
    18     7     8   ar
    19     8     9   ar
    20     9    10    1
    21    10    11    1
    22    10    12    1
    23    10    13    1
    24    21    16   ar
    25     9     4   ar
    26    14    15    1
@<TRIPOS>MOLECULE
*****
 25 26 0 0 0
SMALL
GASTEIGER

@<TRIPOS>ATOM
      1 O         -10.0208  -15.4912   24.3402 O.2     1  UNL1       -0.1499
      2 S          -9.5595  -16.9011   24.5622 S.O2    1  UNL1        0.0736
      3 O          -9.2975  -18.0840   24.6530 O.2     1  UNL1       -0.1499
      4 C          -8.4582  -16.4012   25.4494 C.ar    1  UNL1        0.1290
      5 C          -8.5054  -16.6658   26.9251 C.ar    1  UNL1        0.0201
      6 C          -7.4041  -16.1659   27.8123 C.ar    1  UNL1        0.0014
      7 C          -6.2556  -15.4014   27.2238 C.ar    1  UNL1        0.0000
      8 C          -6.2083  -15.1368   25.7481 C.ar    1  UNL1        0.0052
      9 C          -7.3096  -15.6366   24.8609 C.ar    1  UNL1        0.0902
     10 C          -7.2624  -15.3720   23.3852 C.3     1  UNL1        0.4198
     11 F          -7.2152  -15.1073   21.9095 F       1  UNL1       -0.1658
     12 F          -6.6218  -16.7104   23.1656 F       1  UNL1       -0.1658
     13 F          -7.7728  -14.2698   23.4160 F       1  UNL1       -0.1658
     14 N         -10.6608  -17.4010   23.6750 N.pl3   1  UNL1       -0.2135
     15 H         -11.6011  -17.2541   23.9271 H       1  UNL1        0.1738
     16 C         -10.3296  -18.1250   22.4036 C.ar    1  UNL1        0.0839
     17 C         -11.1914  -19.2625   21.9419 C.ar    1  UNL1        0.0189
     18 C         -10.8601  -19.9863   20.6706 C.ar    1  UNL1        0.0244
     19 C          -9.6670  -19.5727   19.8610 C.ar    1  UNL1        0.1527
     20 N          -8.8052  -18.4351   20.3228 N.ar    1  UNL1       -0.2385
     21 C          -9.1365  -17.7113   21.5941 C.ar    1  UNL1        0.1145
     22 C          -9.3358  -20.2966   18.5897 C.3     1  UNL1        0.4348
     23 F          -9.0045  -21.0205   17.3184 F       1  UNL1       -0.1644
     24 F         -10.7191  -20.0275   18.0759 F       1  UNL1       -0.1644
     25 F          -7.9525  -20.5657   19.1034 F       1  UNL1       -0.1644
@<TRIPOS>BOND
     1     1     2    2
     2     2     3    2
     3     2    14    1
     4    14    16    1
     5    16    17   ar
     6    17    18   ar
     7    18    19   ar
     8    19    22    1
     9    22    23    1
    10    22    24    1
    11    22    25    1
    12    19    20   ar
    13    20    21   ar
    14     2     4    1
    15     4     5   ar
    16     5     6   ar
    17     6     7   ar
    18     7     8   ar
    19     8     9   ar
    20     9    10    1
    21    10    11    1
    22    10    12    1
    23    10    13    1
    24    21    16   ar
    25     9     4   ar
    26    14    15    1
@<TRIPOS>MOLECULE
*****
 25 26 0 0 0
SMALL
GASTEIGER

@<TRIPOS>ATOM
      1 O          -9.4108  -15.3005   24.4138 O.2     1  UNL1       -0.1499
      2 S          -8.7158  -16.6294   24.3830 S.O2    1  UNL1        0.0736
      3 O          -8.2782  -17.7597   24.2996 O.2     1  UNL1       -0.1499
      4 C          -7.4895  -16.0019   24.9769 C.ar    1  UNL1        0.1290
      5 C          -6.3836  -15.5244   24.0831 C.ar    1  UNL1        0.0201
      6 C          -5.1574  -14.8969   24.6769 C.ar    1  UNL1        0.0014
      7 C          -5.0371  -14.7469   26.1645 C.ar    1  UNL1        0.0000
      8 C          -6.1431  -15.2244   27.0583 C.ar    1  UNL1        0.0052
      9 C          -7.3693  -15.8519   26.4645 C.ar    1  UNL1        0.0902
     10 C          -8.4753  -16.3293   27.3583 C.3     1  UNL1        0.4198
     11 F          -9.5812  -16.8068   28.2521 F       1  UNL1       -0.1658
     12 F          -8.8787  -14.9082   27.6182 F       1  UNL1       -0.1658
     13 F          -8.2601  -17.5190   27.2375 F       1  UNL1       -0.1658
     14 N          -9.9420  -17.2569   23.7891 N.pl3   1  UNL1       -0.2135
     15 H         -10.8085  -17.1758   24.2493 H       1  UNL1        0.1738
     16 C          -9.8479  -18.0080   22.4941 C.ar    1  UNL1        0.0839
     17 C         -10.9188  -18.9878   22.1159 C.ar    1  UNL1        0.0189
     18 C         -10.8247  -19.7389   20.8209 C.ar    1  UNL1        0.0244
     19 C          -9.6597  -19.5101   19.9042 C.ar    1  UNL1        0.1527
     20 N          -8.5888  -18.5302   20.2824 N.ar    1  UNL1       -0.2385
     21 C          -8.6829  -17.7792   21.5773 C.ar    1  UNL1        0.1145
     22 C          -9.5656  -20.2612   18.6091 C.3     1  UNL1        0.4348
     23 F          -9.4715  -21.0123   17.3142 F       1  UNL1       -0.1644
     24 F         -10.9462  -19.8032   18.2431 F       1  UNL1       -0.1644
     25 F          -8.1849  -20.7192   18.9751 F       1  UNL1       -0.1644
@<TRIPOS>BOND
     1     1     2    2
     2     2     3    2
     3     2    14    1
     4    14    16    1
     5    16    17   ar
     6    17    18   ar
     7    18    19   ar
     8    19    22    1
     9    22    23    1
    10    22    24    1
    11    22    25    1
    12    19    20   ar
    13    20    21   ar
    14     2     4    1
    15     4     5   ar
    16     5     6   ar
    17     6     7   ar
    18     7     8   ar
    19     8     9   ar
    20     9    10    1
    21    10    11    1
    22    10    12    1
    23    10    13    1
    24    21    16   ar
    25     9     4   ar
    26    14    15    1
@<TRIPOS>MOLECULE
*****
 25 26 0 0 0
SMALL
GASTEIGER

@<TRIPOS>ATOM
      1 O           5.2918   -4.8112   19.8064 O.2     1  UNL1       -0.1499
      2 S           6.0023   -3.4906   19.8410 S.O2    1  UNL1        0.0736
      3 O           6.4996   -2.3860   19.7480 O.2     1  UNL1       -0.1499
      4 C           6.7515   -3.9258   21.0656 C.ar    1  UNL1        0.1290
      5 C           8.0658   -4.6355   20.9280 C.ar    1  UNL1        0.0201
      6 C           8.8150   -5.0707   22.1524 C.ar    1  UNL1        0.0014
      7 C           8.2498   -4.7961   23.5145 C.ar    1  UNL1        0.0000
      8 C           6.9355   -4.0864   23.6521 C.ar    1  UNL1        0.0052
      9 C           6.1864   -3.6513   22.4276 C.ar    1  UNL1        0.0902
     10 C           4.8721   -2.9416   22.5652 C.3     1  UNL1        0.4198
     11 F           3.5577   -2.2319   22.7028 F       1  UNL1       -0.1658
     12 F           5.5871   -1.6233   22.5954 F       1  UNL1       -0.1658
     13 F           4.1675   -3.9313   22.5545 F       1  UNL1       -0.1658
     14 N           5.2532   -3.0554   18.6165 N.pl3   1  UNL1       -0.2135
     15 H           5.4620   -3.4581   17.7427 H       1  UNL1        0.1738
     16 C           4.1860   -2.0067   18.7234 C.ar    1  UNL1        0.0839
     17 C           3.1169   -2.1284   19.7684 C.ar    1  UNL1        0.0189
     18 C           2.0497   -1.0797   19.8752 C.ar    1  UNL1        0.0244
     19 C           2.0518    0.0906   18.9369 C.ar    1  UNL1        0.1527
     20 N           3.1209    0.2123   17.8920 N.ar    1  UNL1       -0.2385
     21 C           4.1880   -0.8363   17.7852 C.ar    1  UNL1        0.1145
     22 C           0.9845    1.1393   19.0438 C.3     1  UNL1        0.4348
     23 F          -0.0826    2.1880   19.1506 F       1  UNL1       -0.1644
     24 F           0.1474    0.2038   19.8647 F       1  UNL1       -0.1644
     25 F           1.8217    2.0748   18.2229 F       1  UNL1       -0.1644
@<TRIPOS>BOND
     1     1     2    2
     2     2     3    2
     3     2    14    1
     4    14    16    1
     5    16    17   ar
     6    17    18   ar
     7    18    19   ar
     8    19    22    1
     9    22    23    1
    10    22    24    1
    11    22    25    1
    12    19    20   ar
    13    20    21   ar
    14     2     4    1
    15     4     5   ar
    16     5     6   ar
    17     6     7   ar
    18     7     8   ar
    19     8     9   ar
    20     9    10    1
    21    10    11    1
    22    10    12    1
    23    10    13    1
    24    21    16   ar
    25     9     4   ar
    26    14    15    1
