@<TRIPOS>MOLECULE
*****
 45 48 0 0 0
SMALL
GASTEIGER

@<TRIPOS>ATOM
      1 N           4.2739    0.7570   29.6726 N.am    1  UNL1       -0.2724
      2 C           5.6896    0.8140   30.1652 C.2     1  UNL1        0.2491
      3 O           6.7402    1.5072   29.3493 O.2     1  UNL1       -0.2727
      4 C           3.2232    0.0638   30.4885 C.3     1  UNL1        0.1111
      5 C           2.0266   -0.5389   29.8143 C.3     1  UNL1        0.0939
      6 N           0.8013    0.2931   29.5767 N.3     1  UNL1       -0.2712
      7 C           0.6109    2.8801   29.4292 C.3     1  UNL1        0.0188
      8 C           0.6574    1.6257   30.2503 C.3     1  UNL1        0.0722
      9 C          -0.2799   -0.2072   28.6654 C.3     1  UNL1        0.0722
     10 C          -1.7128   -0.1635   29.1070 C.3     1  UNL1        0.0188
     11 C           3.9089    1.3931   28.3641 C.3     1  UNL1        0.1202
     12 C           3.9710    0.5919   27.0975 C.ar    1  UNL1       -0.0023
     13 C           3.1015    0.9620   25.9326 C.ar    1  UNL1       -0.0026
     14 C           3.1636    0.1607   24.6660 C.ar    1  UNL1       -0.0003
     15 C           4.0951   -1.0106   24.5644 C.ar    1  UNL1       -0.0000
     16 C           4.9645   -1.3807   25.7293 C.ar    1  UNL1       -0.0003
     17 C           4.9025   -0.5794   26.9958 C.ar    1  UNL1       -0.0026
     18 C           4.1571   -1.8118   23.2978 C.ar    1  UNL1       -0.0000
     19 C           4.9026   -3.1131   23.2693 C.ar    1  UNL1       -0.0001
     20 C           4.9646   -3.9143   22.0026 C.ar    1  UNL1        0.0039
     21 C           4.2812   -3.4142   20.7646 C.ar    1  UNL1        0.0714
     22 C           3.5357   -2.1128   20.7932 C.ar    1  UNL1        0.0039
     23 C           3.4737   -1.3116   22.0597 C.ar    1  UNL1       -0.0001
     24 C           4.3432   -4.2153   19.4980 C.3     1  UNL1        0.4186
     25 F           4.4052   -5.0165   18.2314 F       1  UNL1       -0.1659
     26 F           5.8033   -4.4688   19.7298 F       1  UNL1       -0.1659
     27 F           2.8831   -3.9619   19.2662 F       1  UNL1       -0.1659
     28 C           6.0546    0.1779   31.4737 C.3     1  UNL1        0.1934
     29 N           6.3227   -1.2963   31.5419 N.ar    1  UNL1       -0.2972
     30 C           7.2725   -1.9317   30.5701 C.ar    1  UNL1        0.0894
     31 C           7.5407   -3.4059   30.6383 C.ar    1  UNL1        0.1095
     32 BR          8.4903   -4.0412   29.6665 Br      1  UNL1       -0.0424
     33 C           6.8591   -4.2449   31.6784 C.ar    1  UNL1        0.2886
     34 O           7.1273   -5.7191   31.7467 O.2     1  UNL1       -0.2645
     35 N           5.9094   -3.6095   32.6502 N.ar    1  UNL1       -0.1840
     36 C           5.6412   -2.1353   32.5820 C.ar    1  UNL1        0.1751
     37 S           4.6916   -1.5000   33.5538 S.3     1  UNL1       -0.0724
     38 C           5.2169   -0.8465   34.7976 C.3     1  UNL1        0.0913
     39 C           4.4091    0.2131   35.4866 C.ar    1  UNL1       -0.0108
     40 C           4.3240    0.2362   36.9839 C.ar    1  UNL1       -0.0011
     41 C           3.5162    1.2958   37.6730 C.ar    1  UNL1        0.0293
     42 C           2.7935    2.3323   36.8646 C.ar    1  UNL1        0.1401
     43 F           1.9858    3.3919   37.5535 F       1  UNL1       -0.2042
     44 C           2.8788    2.3092   35.3671 C.ar    1  UNL1        0.0293
     45 C           3.6865    1.2496   34.6782 C.ar    1  UNL1       -0.0011
@<TRIPOS>BOND
     1     7     8    1
     2     8     6    1
     3     6     9    1
     4     9    10    1
     5     6     5    1
     6     5     4    1
     7     4     1    1
     8     1    11    1
     9    11    12    1
    10    12    13   ar
    11    13    14   ar
    12    14    15   ar
    13    15    18    1
    14    18    19   ar
    15    19    20   ar
    16    20    21   ar
    17    21    24    1
    18    24    25    1
    19    24    26    1
    20    24    27    1
    21    21    22   ar
    22    22    23   ar
    23    15    16   ar
    24    16    17   ar
    25     1     2   am
    26     2     3    2
    27     2    28    1
    28    28    29    1
    29    29    30   ar
    30    30    31   ar
    31    31    32    1
    32    31    33   ar
    33    33    34    2
    34    33    35   ar
    35    35    36   ar
    36    36    37    1
    37    37    38    1
    38    38    39    1
    39    39    40   ar
    40    40    41   ar
    41    41    42   ar
    42    42    43    1
    43    42    44   ar
    44    44    45   ar
    45    17    12   ar
    46    36    29   ar
    47    45    39   ar
    48    23    18   ar
@<TRIPOS>MOLECULE
*****
 45 48 0 0 0
SMALL
GASTEIGER

@<TRIPOS>ATOM
      1 N          -0.9363    3.3713   25.4447 N.am    1  UNL1       -0.2724
      2 C          -2.0526    4.3677   25.5502 C.2     1  UNL1        0.2491
      3 O          -2.0288    5.6120   24.7128 O.2     1  UNL1       -0.2727
      4 C          -0.9601    2.1270   26.2821 C.3     1  UNL1        0.1111
      5 C          -0.1569    2.0588   27.5470 C.3     1  UNL1        0.0939
      6 N           0.3661    0.7397   28.0331 N.3     1  UNL1       -0.2712
      7 C           2.4111   -0.4603   29.0953 C.3     1  UNL1        0.0188
      8 C           1.8447    0.4918   28.0840 C.3     1  UNL1        0.0722
      9 C          -0.5894   -0.3316   28.4684 C.3     1  UNL1        0.0722
     10 C          -1.7794    0.0218   29.3105 C.3     1  UNL1        0.0188
     11 C           0.2036    3.6191   24.5018 C.3     1  UNL1        0.1202
     12 C           0.8260    2.4735   23.7599 C.ar    1  UNL1       -0.0023
     13 C           0.2996    2.0783   22.4121 C.ar    1  UNL1       -0.0026
     14 C           0.9220    0.9327   21.6703 C.ar    1  UNL1       -0.0003
     15 C           2.0707    0.1823   22.2764 C.ar    1  UNL1       -0.0000
     16 C           2.5971    0.5775   23.6242 C.ar    1  UNL1       -0.0003
     17 C           1.9747    1.7231   24.3660 C.ar    1  UNL1       -0.0026
     18 C           2.6931   -0.9633   21.5345 C.ar    1  UNL1       -0.0000
     19 C           2.2937   -1.2439   20.1162 C.ar    1  UNL1       -0.0001
     20 C           2.9161   -2.3895   19.3744 C.ar    1  UNL1        0.0039
     21 C           3.9379   -3.2545   20.0509 C.ar    1  UNL1        0.0714
     22 C           4.3372   -2.9739   21.4693 C.ar    1  UNL1        0.0039
     23 C           3.7149   -1.8283   22.2111 C.ar    1  UNL1       -0.0001
     24 C           4.5602   -4.4001   19.3092 C.3     1  UNL1        0.4186
     25 F           5.1826   -5.5457   18.5674 F       1  UNL1       -0.1659
     26 F           5.8986   -3.7282   19.3943 F       1  UNL1       -0.1659
     27 F           3.2219   -5.0720   19.2240 F       1  UNL1       -0.1659
     28 C          -3.1926    4.1198   26.4931 C.3     1  UNL1        0.1934
     29 N          -4.5396    4.7184   26.2150 N.ar    1  UNL1       -0.2972
     30 C          -5.1299    5.7130   27.1701 C.ar    1  UNL1        0.0894
     31 C          -6.4769    6.3116   26.8921 C.ar    1  UNL1        0.1095
     32 BR         -7.0673    7.3062   27.8471 Br      1  UNL1       -0.0424
     33 C          -7.2335    5.9155   25.6588 C.ar    1  UNL1        0.2886
     34 O          -8.5805    6.5141   25.3808 O.2     1  UNL1       -0.2645
     35 N          -6.6432    4.9209   24.7038 N.ar    1  UNL1       -0.1840
     36 C          -5.2962    4.3224   24.9819 C.ar    1  UNL1        0.1751
     37 S          -4.7058    3.3278   24.0268 S.3     1  UNL1       -0.0724
     38 C          -5.3003    3.1559   22.6604 C.3     1  UNL1        0.0913
     39 C          -4.4711    3.4326   21.4415 C.ar    1  UNL1       -0.0108
     40 C          -5.1220    3.5040   20.0920 C.ar    1  UNL1       -0.0011
     41 C          -4.2928    3.7808   18.8730 C.ar    1  UNL1        0.0293
     42 C          -2.8127    3.9860   19.0035 C.ar    1  UNL1        0.1401
     43 F          -1.9834    4.2627   17.7846 F       1  UNL1       -0.2042
     44 C          -2.1617    3.9146   20.3531 C.ar    1  UNL1        0.0293
     45 C          -2.9909    3.6378   21.5720 C.ar    1  UNL1       -0.0011
@<TRIPOS>BOND
     1     7     8    1
     2     8     6    1
     3     6     9    1
     4     9    10    1
     5     6     5    1
     6     5     4    1
     7     4     1    1
     8     1    11    1
     9    11    12    1
    10    12    13   ar
    11    13    14   ar
    12    14    15   ar
    13    15    18    1
    14    18    19   ar
    15    19    20   ar
    16    20    21   ar
    17    21    24    1
    18    24    25    1
    19    24    26    1
    20    24    27    1
    21    21    22   ar
    22    22    23   ar
    23    15    16   ar
    24    16    17   ar
    25     1     2   am
    26     2     3    2
    27     2    28    1
    28    28    29    1
    29    29    30   ar
    30    30    31   ar
    31    31    32    1
    32    31    33   ar
    33    33    34    2
    34    33    35   ar
    35    35    36   ar
    36    36    37    1
    37    37    38    1
    38    38    39    1
    39    39    40   ar
    40    40    41   ar
    41    41    42   ar
    42    42    43    1
    43    42    44   ar
    44    44    45   ar
    45    17    12   ar
    46    36    29   ar
    47    45    39   ar
    48    23    18   ar
@<TRIPOS>MOLECULE
*****
 45 48 0 0 0
SMALL
GASTEIGER

@<TRIPOS>ATOM
      1 N           2.0217    2.9811   30.9586 N.am    1  UNL1       -0.2724
      2 C           2.2748    4.1868   31.8142 C.2     1  UNL1        0.2491
      3 O           2.6565    5.4908   31.1785 O.2     1  UNL1       -0.2727
      4 C           1.6400    1.6771   31.5943 C.3     1  UNL1        0.1111
      5 C           2.6783    0.6170   31.8130 C.3     1  UNL1        0.0939
      6 N           3.2852   -0.0919   30.6386 N.3     1  UNL1       -0.2712
      7 C           2.8682   -0.6067   28.1264 C.3     1  UNL1        0.0188
      8 C           2.4041   -0.6341   29.5525 C.3     1  UNL1        0.0722
      9 C           4.7733   -0.2586   30.5504 C.3     1  UNL1        0.0722
     10 C           5.4048   -1.5673   30.9228 C.3     1  UNL1        0.0188
     11 C           2.1502    3.0792   29.4673 C.3     1  UNL1        0.1202
     12 C           0.9245    3.2405   28.6178 C.ar    1  UNL1       -0.0023
     13 C           0.2094    2.0299   28.0954 C.ar    1  UNL1       -0.0026
     14 C          -1.0163    2.1912   27.2460 C.ar    1  UNL1       -0.0003
     15 C          -1.5269    3.5632   26.9190 C.ar    1  UNL1       -0.0000
     16 C          -0.8119    4.7738   27.4414 C.ar    1  UNL1       -0.0003
     17 C           0.4138    4.6125   28.2908 C.ar    1  UNL1       -0.0026
     18 C          -2.7527    3.7245   26.0695 C.ar    1  UNL1       -0.0000
     19 C          -4.0453    4.1604   26.6931 C.ar    1  UNL1       -0.0001
     20 C          -5.2711    4.3217   25.8436 C.ar    1  UNL1        0.0039
     21 C          -5.2041    4.0471   24.3705 C.ar    1  UNL1        0.0714
     22 C          -3.9113    3.6112   23.7468 C.ar    1  UNL1        0.0039
     23 C          -2.6857    3.4499   24.5963 C.ar    1  UNL1       -0.0001
     24 C          -6.4298    4.2084   23.5210 C.3     1  UNL1        0.4186
     25 F          -7.6554    4.3697   22.6715 F       1  UNL1       -0.1659
     26 F          -5.8057    3.3534   22.4582 F       1  UNL1       -0.1659
     27 F          -7.0539    5.0633   24.5838 F       1  UNL1       -0.1659
     28 C           2.1462    4.0887   33.3055 C.3     1  UNL1        0.1934
     29 N           1.1781    4.9725   34.0346 N.ar    1  UNL1       -0.2972
     30 C          -0.0296    5.5084   33.3244 C.ar    1  UNL1        0.0894
     31 C          -0.9977    6.3923   34.0535 C.ar    1  UNL1        0.1095
     32 BR         -2.2053    6.9281   33.3433 Br      1  UNL1       -0.0424
     33 C          -0.7580    6.7403   35.4928 C.ar    1  UNL1        0.2886
     34 O          -1.7261    7.6242   36.2219 O.2     1  UNL1       -0.2645
     35 N           0.4497    6.2045   36.2029 N.ar    1  UNL1       -0.1840
     36 C           1.4178    5.3206   35.4738 C.ar    1  UNL1        0.1751
     37 S           2.6254    4.7847   36.1839 S.3     1  UNL1       -0.0724
     38 C           2.5845    4.5572   37.6660 C.3     1  UNL1        0.0913
     39 C           2.1836    3.2174   38.2084 C.ar    1  UNL1       -0.0108
     40 C           3.1654    2.0834   38.2070 C.ar    1  UNL1       -0.0011
     41 C           2.7645    0.7436   38.7493 C.ar    1  UNL1        0.0293
     42 C           1.3818    0.5378   39.2931 C.ar    1  UNL1        0.1401
     43 F           0.9809   -0.8020   39.8354 F       1  UNL1       -0.2042
     44 C           0.3999    1.6718   39.2945 C.ar    1  UNL1        0.0293
     45 C           0.8009    3.0116   38.7521 C.ar    1  UNL1       -0.0011
@<TRIPOS>BOND
     1     7     8    1
     2     8     6    1
     3     6     9    1
     4     9    10    1
     5     6     5    1
     6     5     4    1
     7     4     1    1
     8     1    11    1
     9    11    12    1
    10    12    13   ar
    11    13    14   ar
    12    14    15   ar
    13    15    18    1
    14    18    19   ar
    15    19    20   ar
    16    20    21   ar
    17    21    24    1
    18    24    25    1
    19    24    26    1
    20    24    27    1
    21    21    22   ar
    22    22    23   ar
    23    15    16   ar
    24    16    17   ar
    25     1     2   am
    26     2     3    2
    27     2    28    1
    28    28    29    1
    29    29    30   ar
    30    30    31   ar
    31    31    32    1
    32    31    33   ar
    33    33    34    2
    34    33    35   ar
    35    35    36   ar
    36    36    37    1
    37    37    38    1
    38    38    39    1
    39    39    40   ar
    40    40    41   ar
    41    41    42   ar
    42    42    43    1
    43    42    44   ar
    44    44    45   ar
    45    17    12   ar
    46    36    29   ar
    47    45    39   ar
    48    23    18   ar
@<TRIPOS>MOLECULE
*****
 45 48 0 0 0
SMALL
GASTEIGER

@<TRIPOS>ATOM
      1 N           2.8080    0.9524   29.3783 N.am    1  UNL1       -0.2724
      2 C           3.6495    0.2931   30.4305 C.2     1  UNL1        0.2491
      3 O           5.1381    0.2178   30.2620 O.2     1  UNL1       -0.2727
      4 C           1.3193    1.0276   29.5468 C.3     1  UNL1        0.1111
      5 C           0.4394    1.2469   28.3520 C.3     1  UNL1        0.0939
      6 N           0.0957    2.6414   27.9195 N.3     1  UNL1       -0.2712
      7 C          -2.0229    3.2350   26.5377 C.3     1  UNL1        0.0188
      8 C          -0.5682    2.8736   26.5946 C.3     1  UNL1        0.0722
      9 C           0.4158    3.8038   28.8120 C.3     1  UNL1        0.0722
     10 C           1.5430    4.7297   28.4623 C.3     1  UNL1        0.0188
     11 C           3.4551    1.5365   28.1576 C.3     1  UNL1        0.1202
     12 C           3.5890    0.7113   26.9121 C.ar    1  UNL1       -0.0023
     13 C           2.9555    1.1746   25.6338 C.ar    1  UNL1       -0.0026
     14 C           3.0894    0.3494   24.3884 C.ar    1  UNL1       -0.0003
     15 C           3.8568   -0.9390   24.4212 C.ar    1  UNL1       -0.0000
     16 C           4.4903   -1.4023   25.6995 C.ar    1  UNL1       -0.0003
     17 C           4.3564   -0.5771   26.9449 C.ar    1  UNL1       -0.0026
     18 C           3.9907   -1.7642   23.1757 C.ar    1  UNL1       -0.0000
     19 C           3.3854   -1.2848   21.8898 C.ar    1  UNL1       -0.0001
     20 C           3.5193   -2.1100   20.6442 C.ar    1  UNL1        0.0039
     21 C           4.2586   -3.4145   20.6848 C.ar    1  UNL1        0.0714
     22 C           4.8639   -3.8939   21.9708 C.ar    1  UNL1        0.0039
     23 C           4.7300   -3.0688   23.2163 C.ar    1  UNL1       -0.0001
     24 C           4.3925   -4.2397   19.4394 C.3     1  UNL1        0.4186
     25 F           4.5264   -5.0649   18.1939 F       1  UNL1       -0.1659
     26 F           2.9077   -4.1745   19.2365 F       1  UNL1       -0.1659
     27 F           5.8772   -4.3049   19.6422 F       1  UNL1       -0.1659
     28 C           3.0024   -0.2910   31.6512 C.3     1  UNL1        0.1934
     29 N           3.5105    0.0709   33.0153 N.ar    1  UNL1       -0.2972
     30 C           3.1031    1.3688   33.6474 C.ar    1  UNL1        0.0894
     31 C           3.6112    1.7307   35.0116 C.ar    1  UNL1        0.1095
     32 BR          3.2038    3.0286   35.6437 Br      1  UNL1       -0.0424
     33 C           4.5267    0.7947   35.7436 C.ar    1  UNL1        0.2886
     34 O           5.0348    1.1566   37.1077 O.2     1  UNL1       -0.2645
     35 N           4.9340   -0.5032   35.1115 N.ar    1  UNL1       -0.1840
     36 C           4.4259   -0.8651   33.7474 C.ar    1  UNL1        0.1751
     37 S           4.8333   -2.1629   33.1153 S.3     1  UNL1       -0.0724
     38 C           6.2107   -2.3181   32.5418 C.3     1  UNL1        0.0913
     39 C           6.4668   -3.3369   31.4711 C.ar    1  UNL1       -0.0108
     40 C           6.8009   -4.7505   31.8455 C.ar    1  UNL1       -0.0011
     41 C           7.0571   -5.7694   30.7748 C.ar    1  UNL1        0.0293
     42 C           6.9793   -5.3746   29.3297 C.ar    1  UNL1        0.1401
     43 F           7.2354   -6.3934   28.2591 F       1  UNL1       -0.2042
     44 C           6.6452   -3.9610   28.9554 C.ar    1  UNL1        0.0293
     45 C           6.3890   -2.9422   30.0261 C.ar    1  UNL1       -0.0011
@<TRIPOS>BOND
     1     7     8    1
     2     8     6    1
     3     6     9    1
     4     9    10    1
     5     6     5    1
     6     5     4    1
     7     4     1    1
     8     1    11    1
     9    11    12    1
    10    12    13   ar
    11    13    14   ar
    12    14    15   ar
    13    15    18    1
    14    18    19   ar
    15    19    20   ar
    16    20    21   ar
    17    21    24    1
    18    24    25    1
    19    24    26    1
    20    24    27    1
    21    21    22   ar
    22    22    23   ar
    23    15    16   ar
    24    16    17   ar
    25     1     2   am
    26     2     3    2
    27     2    28    1
    28    28    29    1
    29    29    30   ar
    30    30    31   ar
    31    31    32    1
    32    31    33   ar
    33    33    34    2
    34    33    35   ar
    35    35    36   ar
    36    36    37    1
    37    37    38    1
    38    38    39    1
    39    39    40   ar
    40    40    41   ar
    41    41    42   ar
    42    42    43    1
    43    42    44   ar
    44    44    45   ar
    45    17    12   ar
    46    36    29   ar
    47    45    39   ar
    48    23    18   ar
@<TRIPOS>MOLECULE
*****
 45 48 0 0 0
SMALL
GASTEIGER

@<TRIPOS>ATOM
      1 N           0.3884    3.1538   19.2499 N.am    1  UNL1       -0.2724
      2 C          -0.5848    2.9672   20.3760 C.2     1  UNL1        0.2491
      3 O          -1.1785    1.6148   20.6378 O.2     1  UNL1       -0.2727
      4 C           0.9820    4.5063   18.9881 C.3     1  UNL1        0.1111
      5 C           2.2767    4.8956   19.6378 C.3     1  UNL1        0.0939
      6 N           3.5641    4.7718   18.8780 N.3     1  UNL1       -0.2712
      7 C           5.9138    3.7275   19.2500 C.3     1  UNL1        0.0188
      8 C           4.8701    4.7410   19.6153 C.3     1  UNL1        0.0722
      9 C           3.5455    4.6788   17.3810 C.3     1  UNL1        0.0722
     10 C           4.1286    5.7858   16.5535 C.3     1  UNL1        0.0188
     11 C           0.7679    1.9881   18.3856 C.3     1  UNL1        0.1202
     12 C           1.8247    1.0272   18.8440 C.ar    1  UNL1       -0.0023
     13 C           3.2489    1.2174   18.4136 C.ar    1  UNL1       -0.0026
     14 C           4.3056    0.2566   18.8720 C.ar    1  UNL1       -0.0003
     15 C           3.9380   -0.8945   19.7608 C.ar    1  UNL1       -0.0000
     16 C           2.5137   -1.0847   20.1911 C.ar    1  UNL1       -0.0003
     17 C           1.4571   -0.1239   19.7327 C.ar    1  UNL1       -0.0026
     18 C           4.9947   -1.8554   20.2192 C.ar    1  UNL1       -0.0000
     19 C           6.2950   -1.9501   19.4774 C.ar    1  UNL1       -0.0001
     20 C           7.3518   -2.9109   19.9358 C.ar    1  UNL1        0.0039
     21 C           7.1081   -3.7772   21.1359 C.ar    1  UNL1        0.0714
     22 C           5.8077   -3.6825   21.8777 C.ar    1  UNL1        0.0039
     23 C           4.7511   -2.7216   21.4193 C.ar    1  UNL1       -0.0001
     24 C           8.1648   -4.7380   21.5943 C.3     1  UNL1        0.4186
     25 F           9.2215   -5.6989   22.0527 F       1  UNL1       -0.1659
     26 F           7.3650   -5.0282   22.8297 F       1  UNL1       -0.1659
     27 F           8.9646   -4.4478   20.3590 F       1  UNL1       -0.1659
     28 C          -0.9643    4.1330   21.2403 C.3     1  UNL1        0.1934
     29 N          -2.0122    3.9703   22.3012 N.ar    1  UNL1       -0.2972
     30 C          -3.4488    4.2676   21.9883 C.ar    1  UNL1        0.0894
     31 C          -4.4966    4.1049   23.0492 C.ar    1  UNL1        0.1095
     32 BR         -5.9332    4.4022   22.7364 Br      1  UNL1       -0.0424
     33 C          -4.1078    3.6450   24.4231 C.ar    1  UNL1        0.2886
     34 O          -5.1556    3.4823   25.4840 O.2     1  UNL1       -0.2645
     35 N          -2.6713    3.3477   24.7359 N.ar    1  UNL1       -0.1840
     36 C          -1.6234    3.5104   23.6750 C.ar    1  UNL1        0.1751
     37 S          -0.1869    3.2131   23.9878 S.3     1  UNL1       -0.0724
     38 C           0.3199    1.8030   23.9170 C.3     1  UNL1        0.0913
     39 C           1.7259    1.5329   23.4695 C.ar    1  UNL1       -0.0108
     40 C           2.4590    0.3303   23.9852 C.ar    1  UNL1       -0.0011
     41 C           3.8651    0.0601   23.5378 C.ar    1  UNL1        0.0293
     42 C           4.5379    0.9927   22.5746 C.ar    1  UNL1        0.1401
     43 F           5.9438    0.7226   22.1272 F       1  UNL1       -0.2042
     44 C           3.8046    2.1954   22.0589 C.ar    1  UNL1        0.0293
     45 C           2.3986    2.4655   22.5064 C.ar    1  UNL1       -0.0011
@<TRIPOS>BOND
     1     7     8    1
     2     8     6    1
     3     6     9    1
     4     9    10    1
     5     6     5    1
     6     5     4    1
     7     4     1    1
     8     1    11    1
     9    11    12    1
    10    12    13   ar
    11    13    14   ar
    12    14    15   ar
    13    15    18    1
    14    18    19   ar
    15    19    20   ar
    16    20    21   ar
    17    21    24    1
    18    24    25    1
    19    24    26    1
    20    24    27    1
    21    21    22   ar
    22    22    23   ar
    23    15    16   ar
    24    16    17   ar
    25     1     2   am
    26     2     3    2
    27     2    28    1
    28    28    29    1
    29    29    30   ar
    30    30    31   ar
    31    31    32    1
    32    31    33   ar
    33    33    34    2
    34    33    35   ar
    35    35    36   ar
    36    36    37    1
    37    37    38    1
    38    38    39    1
    39    39    40   ar
    40    40    41   ar
    41    41    42   ar
    42    42    43    1
    43    42    44   ar
    44    44    45   ar
    45    17    12   ar
    46    36    29   ar
    47    45    39   ar
    48    23    18   ar
@<TRIPOS>MOLECULE
*****
 45 48 0 0 0
SMALL
GASTEIGER

@<TRIPOS>ATOM
      1 N           3.8089   -0.5029   29.8452 N.am    1  UNL1       -0.2724
      2 C           4.2119   -1.1742   28.5658 C.2     1  UNL1        0.2491
      3 O           3.1622   -1.6800   27.6213 O.2     1  UNL1       -0.2727
      4 C           4.8587    0.0029   30.7899 C.3     1  UNL1        0.1111
      5 C           4.5603    0.1082   32.2561 C.3     1  UNL1        0.0939
      6 N           5.0278   -0.9638   33.1954 N.3     1  UNL1       -0.2712
      7 C           6.0560   -3.1973   32.3562 C.3     1  UNL1        0.0188
      8 C           4.8690   -2.4083   32.8236 C.3     1  UNL1        0.0722
      9 C           5.6540   -0.5912   34.5065 C.3     1  UNL1        0.0722
     10 C           4.7958   -0.4131   35.7239 C.3     1  UNL1        0.0188
     11 C           2.3562   -0.3373   30.1801 C.3     1  UNL1        0.1202
     12 C           1.4478    0.3943   29.2369 C.ar    1  UNL1       -0.0023
     13 C           0.0973   -0.1693   28.9075 C.ar    1  UNL1       -0.0026
     14 C          -0.8110    0.5623   27.9643 C.ar    1  UNL1       -0.0003
     15 C          -0.3689    1.8576   27.3506 C.ar    1  UNL1       -0.0000
     16 C           0.9815    2.4213   27.6800 C.ar    1  UNL1       -0.0003
     17 C           1.8898    1.6897   28.6231 C.ar    1  UNL1       -0.0026
     18 C          -1.2773    2.5893   26.4073 C.ar    1  UNL1       -0.0000
     19 C          -0.9090    2.7170   24.9589 C.ar    1  UNL1       -0.0001
     20 C          -1.8174    3.4487   24.0157 C.ar    1  UNL1        0.0039
     21 C          -3.0942    4.0525   24.5210 C.ar    1  UNL1        0.0714
     22 C          -3.4625    3.9247   25.9695 C.ar    1  UNL1        0.0039
     23 C          -2.5541    3.1931   26.9126 C.ar    1  UNL1       -0.0001
     24 C          -4.0026    4.7841   23.5779 C.3     1  UNL1        0.4186
     25 F          -4.9110    5.5157   22.6348 F       1  UNL1       -0.1659
     26 F          -5.0582    3.7386   23.7837 F       1  UNL1       -0.1659
     27 F          -2.9469    5.8296   23.3721 F       1  UNL1       -0.1659
     28 C           5.6647   -1.3398   28.2310 C.3     1  UNL1        0.1934
     29 N           6.1758   -2.6629   27.7429 N.ar    1  UNL1       -0.2972
     30 C           6.6201   -3.7045   28.7267 C.ar    1  UNL1        0.0894
     31 C           7.1312   -5.0276   28.2385 C.ar    1  UNL1        0.1095
     32 BR          7.5755   -6.0692   29.2222 Br      1  UNL1       -0.0424
     33 C           7.1979   -5.3091   26.7666 C.ar    1  UNL1        0.2886
     34 O           7.7090   -6.6321   26.2785 O.2     1  UNL1       -0.2645
     35 N           6.7536   -4.2675   25.7830 N.ar    1  UNL1       -0.1840
     36 C           6.2425   -2.9444   26.2711 C.ar    1  UNL1        0.1751
     37 S           5.7982   -1.9028   25.2874 S.3     1  UNL1       -0.0724
     38 C           4.8654   -2.2734   24.1726 C.3     1  UNL1        0.0913
     39 C           3.8328   -1.2928   23.7014 C.ar    1  UNL1       -0.0108
     40 C           3.2059   -0.3385   24.6741 C.ar    1  UNL1       -0.0011
     41 C           2.1732    0.6422   24.2029 C.ar    1  UNL1        0.0293
     42 C           1.7676    0.6685   22.7591 C.ar    1  UNL1        0.1401
     43 F           0.7350    1.6491   22.2879 F       1  UNL1       -0.2042
     44 C           2.3946   -0.2859   21.7864 C.ar    1  UNL1        0.0293
     45 C           3.4272   -1.2665   22.2576 C.ar    1  UNL1       -0.0011
@<TRIPOS>BOND
     1     7     8    1
     2     8     6    1
     3     6     9    1
     4     9    10    1
     5     6     5    1
     6     5     4    1
     7     4     1    1
     8     1    11    1
     9    11    12    1
    10    12    13   ar
    11    13    14   ar
    12    14    15   ar
    13    15    18    1
    14    18    19   ar
    15    19    20   ar
    16    20    21   ar
    17    21    24    1
    18    24    25    1
    19    24    26    1
    20    24    27    1
    21    21    22   ar
    22    22    23   ar
    23    15    16   ar
    24    16    17   ar
    25     1     2   am
    26     2     3    2
    27     2    28    1
    28    28    29    1
    29    29    30   ar
    30    30    31   ar
    31    31    32    1
    32    31    33   ar
    33    33    34    2
    34    33    35   ar
    35    35    36   ar
    36    36    37    1
    37    37    38    1
    38    38    39    1
    39    39    40   ar
    40    40    41   ar
    41    41    42   ar
    42    42    43    1
    43    42    44   ar
    44    44    45   ar
    45    17    12   ar
    46    36    29   ar
    47    45    39   ar
    48    23    18   ar
@<TRIPOS>MOLECULE
*****
 45 48 0 0 0
SMALL
GASTEIGER

@<TRIPOS>ATOM
      1 N           0.1488    3.1630   19.1326 N.am    1  UNL1       -0.2724
      2 C          -0.6447    2.9541   20.3883 C.2     1  UNL1        0.2491
      3 O          -1.0609    1.5704   20.7910 O.2     1  UNL1       -0.2727
      4 C           0.5650    4.5468   18.7299 C.3     1  UNL1        0.1111
      5 C          -0.4721    5.5590   18.3426 C.3     1  UNL1        0.0939
      6 N          -1.7507    5.1134   17.6973 N.3     1  UNL1       -0.2712
      7 C          -3.1446    6.6177   19.2924 C.3     1  UNL1        0.0188
      8 C          -3.0690    5.4905   18.3056 C.3     1  UNL1        0.0722
      9 C          -1.7111    4.2907   16.4437 C.3     1  UNL1        0.0722
     10 C          -2.9413    3.5667   15.9825 C.3     1  UNL1        0.0188
     11 C           0.5262    1.9883   18.2797 C.3     1  UNL1        0.1202
     12 C           1.6057    1.0496   18.7311 C.ar    1  UNL1       -0.0023
     13 C           3.0202    1.2605   18.2790 C.ar    1  UNL1       -0.0026
     14 C           4.0996    0.3218   18.7304 C.ar    1  UNL1       -0.0003
     15 C           3.7644   -0.8277   19.6339 C.ar    1  UNL1       -0.0000
     16 C           2.3498   -1.0386   20.0859 C.ar    1  UNL1       -0.0003
     17 C           1.2705   -0.0999   19.6345 C.ar    1  UNL1       -0.0026
     18 C           4.8439   -1.7664   20.0853 C.ar    1  UNL1       -0.0000
     19 C           4.6009   -2.6871   21.2442 C.ar    1  UNL1       -0.0001
     20 C           5.6804   -3.6258   21.6956 C.ar    1  UNL1        0.0039
     21 C           7.0029   -3.6436   20.9880 C.ar    1  UNL1        0.0714
     22 C           7.2459   -2.7228   19.8290 C.ar    1  UNL1        0.0039
     23 C           6.1664   -1.7842   19.3777 C.ar    1  UNL1       -0.0001
     24 C           8.0823   -4.5822   21.4393 C.3     1  UNL1        0.4186
     25 F           9.1618   -5.5208   21.8907 F       1  UNL1       -0.1659
     26 F           8.8883   -4.2410   20.2212 F       1  UNL1       -0.1659
     27 F           7.2763   -4.9235   22.6575 F       1  UNL1       -0.1659
     28 C          -1.0221    4.1289   21.2413 C.3     1  UNL1        0.1934
     29 N          -2.0495    3.9713   22.3227 N.ar    1  UNL1       -0.2972
     30 C          -3.4935    4.2561   22.0326 C.ar    1  UNL1        0.0894
     31 C          -4.5209    4.0985   23.1140 C.ar    1  UNL1        0.1095
     32 BR         -5.9648    4.3833   22.8240 Br      1  UNL1       -0.0424
     33 C          -4.1045    3.6561   24.4855 C.ar    1  UNL1        0.2886
     34 O          -5.1319    3.4985   25.5670 O.2     1  UNL1       -0.2645
     35 N          -2.6606    3.3713   24.7755 N.ar    1  UNL1       -0.1840
     36 C          -1.6331    3.5289   23.6941 C.ar    1  UNL1        0.1751
     37 S          -0.1893    3.2441   23.9841 S.3     1  UNL1       -0.0724
     38 C           0.3046    1.8280   24.0140 C.3     1  UNL1        0.0913
     39 C           1.6948    1.5086   23.5503 C.ar    1  UNL1       -0.0108
     40 C           2.3598    2.3744   22.5216 C.ar    1  UNL1       -0.0011
     41 C           3.7501    2.0551   22.0579 C.ar    1  UNL1        0.0293
     42 C           4.4755    0.8699   22.6229 C.ar    1  UNL1        0.1401
     43 F           5.8658    0.5505   22.1592 F       1  UNL1       -0.2042
     44 C           3.8105    0.0041   23.6517 C.ar    1  UNL1        0.0293
     45 C           2.4202    0.3235   24.1153 C.ar    1  UNL1       -0.0011
@<TRIPOS>BOND
     1     7     8    1
     2     8     6    1
     3     6     9    1
     4     9    10    1
     5     6     5    1
     6     5     4    1
     7     4     1    1
     8     1    11    1
     9    11    12    1
    10    12    13   ar
    11    13    14   ar
    12    14    15   ar
    13    15    18    1
    14    18    19   ar
    15    19    20   ar
    16    20    21   ar
    17    21    24    1
    18    24    25    1
    19    24    26    1
    20    24    27    1
    21    21    22   ar
    22    22    23   ar
    23    15    16   ar
    24    16    17   ar
    25     1     2   am
    26     2     3    2
    27     2    28    1
    28    28    29    1
    29    29    30   ar
    30    30    31   ar
    31    31    32    1
    32    31    33   ar
    33    33    34    2
    34    33    35   ar
    35    35    36   ar
    36    36    37    1
    37    37    38    1
    38    38    39    1
    39    39    40   ar
    40    40    41   ar
    41    41    42   ar
    42    42    43    1
    43    42    44   ar
    44    44    45   ar
    45    17    12   ar
    46    36    29   ar
    47    45    39   ar
    48    23    18   ar
@<TRIPOS>MOLECULE
*****
 45 48 0 0 0
SMALL
GASTEIGER

@<TRIPOS>ATOM
      1 N           0.7594    2.9879   29.7455 N.am    1  UNL1       -0.2724
      2 C           1.0317    2.9542   31.2202 C.2     1  UNL1        0.2491
      3 O           0.7427    1.7109   32.0080 O.2     1  UNL1       -0.2727
      4 C           1.0483    4.2313   28.9577 C.3     1  UNL1        0.1111
      5 C          -0.0800    5.0263   28.3705 C.3     1  UNL1        0.0939
      6 N          -0.1193    5.2958   26.8955 N.3     1  UNL1       -0.2712
      7 C          -2.6591    4.7496   26.8553 C.3     1  UNL1        0.0188
      8 C          -1.4227    5.2312   26.1557 C.3     1  UNL1        0.0722
      9 C           1.1446    5.6300   26.1601 C.3     1  UNL1        0.0722
     10 C           1.8324    4.5821   25.3361 C.3     1  UNL1        0.0188
     11 C           0.1981    1.7783   29.0586 C.3     1  UNL1        0.1202
     12 C           0.5161    1.5202   27.6156 C.ar    1  UNL1       -0.0023
     13 C           1.9054    1.1232   27.2131 C.ar    1  UNL1       -0.0026
     14 C           2.2234    0.8651   25.7701 C.ar    1  UNL1       -0.0003
     15 C           1.1519    1.0039   24.7296 C.ar    1  UNL1       -0.0000
     16 C          -0.2375    1.4009   25.1321 C.ar    1  UNL1       -0.0003
     17 C          -0.5554    1.6590   26.5750 C.ar    1  UNL1       -0.0026
     18 C           1.4699    0.7457   23.2866 C.ar    1  UNL1       -0.0000
     19 C           0.6517    1.3956   22.2104 C.ar    1  UNL1       -0.0001
     20 C           0.9696    1.1374   20.7673 C.ar    1  UNL1        0.0039
     21 C           2.1059    0.2294   20.4005 C.ar    1  UNL1        0.0714
     22 C           2.9241   -0.4204   21.4768 C.ar    1  UNL1        0.0039
     23 C           2.6061   -0.1623   22.9198 C.ar    1  UNL1       -0.0001
     24 C           2.4239   -0.0288   18.9576 C.3     1  UNL1        0.4186
     25 F           2.7419   -0.2869   17.5146 F       1  UNL1       -0.1659
     26 F           3.8351   -0.3741   19.3304 F       1  UNL1       -0.1659
     27 F           1.0126    0.3166   18.5848 F       1  UNL1       -0.1659
     28 C           1.5930    4.1638   31.9071 C.3     1  UNL1        0.1934
     29 N           0.7312    4.9658   32.8368 N.ar    1  UNL1       -0.2972
     30 C          -0.4312    5.7453   32.2971 C.ar    1  UNL1        0.0894
     31 C          -1.2929    6.5472   33.2268 C.ar    1  UNL1        0.1095
     32 BR         -2.4552    7.3267   32.6871 Br      1  UNL1       -0.0424
     33 C          -0.9922    6.5697   34.6962 C.ar    1  UNL1        0.2886
     34 O          -1.8539    7.3716   35.6259 O.2     1  UNL1       -0.2645
     35 N           0.1701    5.7902   35.2359 N.ar    1  UNL1       -0.1840
     36 C           1.0318    4.9882   34.3062 C.ar    1  UNL1        0.1751
     37 S           2.1942    4.2087   34.8458 S.3     1  UNL1       -0.0724
     38 C           2.5738    4.3326   36.2918 C.3     1  UNL1        0.0913
     39 C           2.2932    3.2049   37.2401 C.ar    1  UNL1       -0.0108
     40 C           3.1842    1.9984   37.2553 C.ar    1  UNL1       -0.0011
     41 C           2.9036    0.8706   38.2037 C.ar    1  UNL1        0.0293
     42 C           1.7319    0.9494   39.1370 C.ar    1  UNL1        0.1401
     43 F           1.4512   -0.1782   40.0853 F       1  UNL1       -0.2042
     44 C           0.8408    2.1561   39.1218 C.ar    1  UNL1        0.0293
     45 C           1.1215    3.2838   38.1734 C.ar    1  UNL1       -0.0011
@<TRIPOS>BOND
     1     7     8    1
     2     8     6    1
     3     6     9    1
     4     9    10    1
     5     6     5    1
     6     5     4    1
     7     4     1    1
     8     1    11    1
     9    11    12    1
    10    12    13   ar
    11    13    14   ar
    12    14    15   ar
    13    15    18    1
    14    18    19   ar
    15    19    20   ar
    16    20    21   ar
    17    21    24    1
    18    24    25    1
    19    24    26    1
    20    24    27    1
    21    21    22   ar
    22    22    23   ar
    23    15    16   ar
    24    16    17   ar
    25     1     2   am
    26     2     3    2
    27     2    28    1
    28    28    29    1
    29    29    30   ar
    30    30    31   ar
    31    31    32    1
    32    31    33   ar
    33    33    34    2
    34    33    35   ar
    35    35    36   ar
    36    36    37    1
    37    37    38    1
    38    38    39    1
    39    39    40   ar
    40    40    41   ar
    41    41    42   ar
    42    42    43    1
    43    42    44   ar
    44    44    45   ar
    45    17    12   ar
    46    36    29   ar
    47    45    39   ar
    48    23    18   ar
@<TRIPOS>MOLECULE
*****
 45 48 0 0 0
SMALL
GASTEIGER

@<TRIPOS>ATOM
      1 N           3.3555    0.4369   26.4397 N.am    1  UNL1       -0.2724
      2 C           3.8862   -0.1406   25.1611 C.2     1  UNL1        0.2491
      3 O           4.0324    0.7302   23.9486 O.2     1  UNL1       -0.2727
      4 C           3.2093   -0.4339   27.6523 C.3     1  UNL1        0.1111
      5 C           2.9622    0.1861   28.9956 C.3     1  UNL1        0.0939
      6 N           1.5822    0.6395   29.3698 N.3     1  UNL1       -0.2712
      7 C           1.3301    1.7249   31.7168 C.3     1  UNL1        0.0188
      8 C           1.3993    1.8587   30.2244 C.3     1  UNL1        0.0722
      9 C           0.3851   -0.1261   28.8895 C.3     1  UNL1        0.0722
     10 C          -0.9690    0.5193   28.8932 C.3     1  UNL1        0.0188
     11 C           2.9708    1.8852   26.5057 C.3     1  UNL1        0.1202
     12 C           1.5546    2.2983   26.2338 C.ar    1  UNL1       -0.0023
     13 C           0.7716    1.6225   25.1475 C.ar    1  UNL1       -0.0026
     14 C          -0.6445    2.0355   24.8757 C.ar    1  UNL1       -0.0003
     15 C          -1.2776    3.1244   25.6902 C.ar    1  UNL1       -0.0000
     16 C          -0.4947    3.8002   26.7766 C.ar    1  UNL1       -0.0003
     17 C           0.9214    3.3872   27.0484 C.ar    1  UNL1       -0.0026
     18 C          -2.6938    3.5375   25.4183 C.ar    1  UNL1       -0.0000
     19 C          -3.2433    3.4601   24.0248 C.ar    1  UNL1       -0.0001
     20 C          -4.6595    3.8732   23.7529 C.ar    1  UNL1        0.0039
     21 C          -5.5262    4.3636   24.8747 C.ar    1  UNL1        0.0714
     22 C          -4.9767    4.4409   26.2683 C.ar    1  UNL1        0.0039
     23 C          -3.5605    4.0278   26.5401 C.ar    1  UNL1       -0.0001
     24 C          -6.9423    4.7766   24.6029 C.3     1  UNL1        0.4186
     25 F          -8.3584    5.1896   24.3311 F       1  UNL1       -0.1659
     26 F          -6.9338    3.9725   23.3367 F       1  UNL1       -0.1659
     27 F          -6.9508    5.5807   25.8691 F       1  UNL1       -0.1659
     28 C           4.2709   -1.5890   25.0952 C.3     1  UNL1        0.1934
     29 N           5.5750   -1.9910   24.4725 N.ar    1  UNL1       -0.2972
     30 C           6.8382   -1.9427   25.2801 C.ar    1  UNL1        0.0894
     31 C           8.1423   -2.3447   24.6575 C.ar    1  UNL1        0.1095
     32 BR          9.4054   -2.2963   25.4650 Br      1  UNL1       -0.0424
     33 C           8.1832   -2.7951   23.2273 C.ar    1  UNL1        0.2886
     34 O           9.4873   -3.1971   22.6046 O.2     1  UNL1       -0.2645
     35 N           6.9201   -2.8435   22.4197 N.ar    1  UNL1       -0.1840
     36 C           5.6160   -2.4414   23.0424 C.ar    1  UNL1        0.1751
     37 S           4.3529   -2.4898   22.2349 S.3     1  UNL1       -0.0724
     38 C           4.4074   -2.3153   20.7460 C.3     1  UNL1        0.0913
     39 C           3.4437   -1.3904   20.0635 C.ar    1  UNL1       -0.0108
     40 C           3.7553   -0.8586   18.6960 C.ar    1  UNL1       -0.0011
     41 C           2.7916    0.0664   18.0135 C.ar    1  UNL1        0.0293
     42 C           1.5163    0.4595   18.6984 C.ar    1  UNL1        0.1401
     43 F           0.5526    1.3844   18.0160 F       1  UNL1       -0.2042
     44 C           1.2048   -0.0724   20.0660 C.ar    1  UNL1        0.0293
     45 C           2.1684   -0.9973   20.7485 C.ar    1  UNL1       -0.0011
@<TRIPOS>BOND
     1     7     8    1
     2     8     6    1
     3     6     9    1
     4     9    10    1
     5     6     5    1
     6     5     4    1
     7     4     1    1
     8     1    11    1
     9    11    12    1
    10    12    13   ar
    11    13    14   ar
    12    14    15   ar
    13    15    18    1
    14    18    19   ar
    15    19    20   ar
    16    20    21   ar
    17    21    24    1
    18    24    25    1
    19    24    26    1
    20    24    27    1
    21    21    22   ar
    22    22    23   ar
    23    15    16   ar
    24    16    17   ar
    25     1     2   am
    26     2     3    2
    27     2    28    1
    28    28    29    1
    29    29    30   ar
    30    30    31   ar
    31    31    32    1
    32    31    33   ar
    33    33    34    2
    34    33    35   ar
    35    35    36   ar
    36    36    37    1
    37    37    38    1
    38    38    39    1
    39    39    40   ar
    40    40    41   ar
    41    41    42   ar
    42    42    43    1
    43    42    44   ar
    44    44    45   ar
    45    17    12   ar
    46    36    29   ar
    47    45    39   ar
    48    23    18   ar
