@<TRIPOS>MOLECULE
*****
 21 24 0 0 0
SMALL
GASTEIGER

@<TRIPOS>ATOM
      1 O          -7.0365  -18.0348   20.9304 O.2     1  UNL1       -0.2701
      2 C          -7.4706  -19.1292   21.8597 C.2     1  UNL1        0.2459
      3 N          -6.5641  -20.2956   22.1200 N.am    1  UNL1       -0.3011
      4 H          -6.7575  -21.0595   22.7103 H       1  UNL1        0.1497
      5 C          -8.8112  -19.0573   22.5288 C.ar    1  UNL1        0.0564
      6 C          -9.1606  -20.0312   23.6148 C.ar    1  UNL1        0.0047
      7 C         -10.5012  -19.9593   24.2839 C.ar    1  UNL1        0.0033
      8 C         -11.4924  -18.9135   23.8669 C.ar    1  UNL1        0.0377
      9 C         -12.8807  -18.6007   24.3409 C.ar    1  UNL1        0.0437
     10 C         -13.3893  -17.4335   23.5478 C.ar    1  UNL1        0.1796
     11 O         -12.3153  -17.0249   22.5836 O.2     1  UNL1       -0.4504
     12 C         -11.1429  -17.9396   22.7808 C.ar    1  UNL1        0.1456
     13 C          -9.8023  -18.0115   22.1118 C.ar    1  UNL1        0.0420
     14 C          -4.3271  -19.9320   20.6953 C.3     1  UNL1        0.0878
     15 C          -3.4325  -19.2846   21.4827 C.3     1  UNL1        0.0919
     16 N          -2.8569  -18.8929   21.9222 N.3     1  UNL1       -0.2713
     17 C          -2.4874  -19.2655   20.5170 C.3     1  UNL1        0.0722
     18 C          -3.4768  -19.9815   19.6461 C.3     1  UNL1        0.0191
     19 C          -4.8357  -20.3249   20.1805 C.3     1  UNL1        0.0221
     20 C          -5.2052  -19.9522   21.5857 C.3     1  UNL1        0.0191
     21 C          -4.2157  -19.2362   22.4566 C.3     1  UNL1        0.0722
@<TRIPOS>BOND
     1     1     2    2
     2     2     3   am
     3    14     3    1
     4    14    15    1
     5    15    16    1
     6    16    17    1
     7    17    18    1
     8    18    19    1
     9    19    20    1
    10    20    21    1
    11     2     5    1
    12     5     6   ar
    13     6     7   ar
    14     7     8   ar
    15     8     9   ar
    16     9    10   ar
    17    10    11   ar
    18    11    12   ar
    19    12    13   ar
    20    19    14    1
    21    13     5   ar
    22    21    16    1
    23    12     8   ar
    24     3     4    1
@<TRIPOS>MOLECULE
*****
 21 24 0 0 0
SMALL
GASTEIGER

@<TRIPOS>ATOM
      1 O          -8.6508  -17.2474   22.5702 O.2     1  UNL1       -0.2701
      2 C          -8.2984  -18.6535   22.1851 C.2     1  UNL1        0.2459
      3 N          -9.3614  -19.7113   22.1538 N.am    1  UNL1       -0.3011
      4 H          -9.2306  -20.6575   21.9153 H       1  UNL1        0.1497
      5 C          -6.8830  -19.0020   21.8311 C.ar    1  UNL1        0.0564
      6 C          -6.6055  -20.0376   20.7822 C.ar    1  UNL1        0.0047
      7 C          -5.1900  -20.3861   20.4282 C.ar    1  UNL1        0.0033
      8 C          -4.0522  -19.6988   21.1232 C.ar    1  UNL1        0.0377
      9 C          -2.5645  -19.8328   20.9863 C.ar    1  UNL1        0.0437
     10 C          -1.9227  -18.8798   21.9506 C.ar    1  UNL1        0.1796
     11 O          -3.0137  -18.1569   22.6835 O.2     1  UNL1       -0.4504
     12 C          -4.3298  -18.6631   22.1721 C.ar    1  UNL1        0.1456
     13 C          -5.7452  -18.3147   22.5260 C.ar    1  UNL1        0.0420
     14 C         -11.6773  -18.5704   22.8615 C.3     1  UNL1        0.0878
     15 C         -12.2412  -18.0454   21.7452 C.3     1  UNL1        0.0919
     16 N         -12.6219  -17.7111   21.0963 N.3     1  UNL1       -0.2713
     17 C         -13.3167  -17.5818   22.4193 C.3     1  UNL1        0.0722
     18 C         -12.6932  -18.1623   23.6538 C.3     1  UNL1        0.0191
     19 C         -11.3747  -18.8722   23.5653 C.3     1  UNL1        0.0221
     20 C         -10.6799  -19.0015   22.2423 C.3     1  UNL1        0.0191
     21 C         -11.3035  -18.4209   21.0077 C.3     1  UNL1        0.0722
@<TRIPOS>BOND
     1     1     2    2
     2     2     3   am
     3    14     3    1
     4    14    15    1
     5    15    16    1
     6    16    17    1
     7    17    18    1
     8    18    19    1
     9    19    20    1
    10    20    21    1
    11     2     5    1
    12     5     6   ar
    13     6     7   ar
    14     7     8   ar
    15     8     9   ar
    16     9    10   ar
    17    10    11   ar
    18    11    12   ar
    19    12    13   ar
    20    19    14    1
    21    13     5   ar
    22    21    16    1
    23    12     8   ar
    24     3     4    1
@<TRIPOS>MOLECULE
*****
 21 24 0 0 0
SMALL
GASTEIGER

@<TRIPOS>ATOM
      1 O          -8.9511  -16.4284   23.2228 O.2     1  UNL1       -0.2701
      2 C          -8.2839  -17.6897   22.7605 C.2     1  UNL1        0.2459
      3 N          -9.1135  -18.8556   22.3107 N.am    1  UNL1       -0.3011
      4 H          -8.7711  -19.7217   21.9914 H       1  UNL1        0.1497
      5 C          -6.7869  -17.7852   22.7480 C.ar    1  UNL1        0.0564
      6 C          -5.9658  -16.7965   23.5212 C.ar    1  UNL1        0.0047
      7 C          -4.4689  -16.8919   23.5087 C.ar    1  UNL1        0.0033
      8 C          -3.7931  -17.9762   22.7228 C.ar    1  UNL1        0.0377
      9 C          -2.3464  -18.3185   22.5233 C.ar    1  UNL1        0.0437
     10 C          -2.2734  -19.5188   21.6267 C.ar    1  UNL1        0.1796
     11 O          -3.6751  -19.9184   21.2721 O.2     1  UNL1       -0.4504
     12 C          -4.6143  -18.9650   21.9495 C.ar    1  UNL1        0.1456
     13 C          -6.1112  -18.8695   21.9621 C.ar    1  UNL1        0.0420
     14 C         -11.6902  -18.1640   22.5299 C.3     1  UNL1        0.0878
     15 C         -12.0848  -18.4251   23.8010 C.3     1  UNL1        0.0919
     16 N         -12.3702  -18.5665   24.5603 N.3     1  UNL1       -0.2713
     17 C         -13.3439  -17.9888   23.5764 C.3     1  UNL1        0.0722
     18 C         -12.9076  -17.7001   22.1707 C.3     1  UNL1        0.0191
     19 C         -11.4974  -17.9890   21.7488 C.3     1  UNL1        0.0221
     20 C         -10.5236  -18.5667   22.7326 C.3     1  UNL1        0.0191
     21 C         -10.9600  -18.8555   24.1385 C.3     1  UNL1        0.0722
@<TRIPOS>BOND
     1     1     2    2
     2     2     3   am
     3    14     3    1
     4    14    15    1
     5    15    16    1
     6    16    17    1
     7    17    18    1
     8    18    19    1
     9    19    20    1
    10    20    21    1
    11     2     5    1
    12     5     6   ar
    13     6     7   ar
    14     7     8   ar
    15     8     9   ar
    16     9    10   ar
    17    10    11   ar
    18    11    12   ar
    19    12    13   ar
    20    19    14    1
    21    13     5   ar
    22    21    16    1
    23    12     8   ar
    24     3     4    1
@<TRIPOS>MOLECULE
*****
 21 24 0 0 0
SMALL
GASTEIGER

@<TRIPOS>ATOM
      1 O          -6.6484  -17.0911   22.4366 O.2     1  UNL1       -0.2701
      2 C          -7.5709  -18.2626   22.2744 C.2     1  UNL1        0.2459
      3 N          -7.0178  -19.6072   21.9053 N.am    1  UNL1       -0.3011
      4 H          -7.5388  -20.4326   21.7764 H       1  UNL1        0.1497
      5 C          -9.0465  -18.0897   22.4812 C.ar    1  UNL1        0.0564
      6 C          -9.8640  -17.3466   21.4666 C.ar    1  UNL1        0.0047
      7 C         -11.3397  -17.1737   21.6734 C.ar    1  UNL1        0.0033
      8 C         -11.9976  -17.7438   22.8949 C.ar    1  UNL1        0.0377
      9 C         -13.4218  -17.7323   23.3656 C.ar    1  UNL1        0.0437
     10 C         -13.4844  -18.4683   24.6711 C.ar    1  UNL1        0.1796
     11 O         -12.0989  -18.9347   25.0072 O.2     1  UNL1       -0.4504
     12 C         -11.1800  -18.4869   23.9094 C.ar    1  UNL1        0.1456
     13 C          -9.7045  -18.6598   23.7026 C.ar    1  UNL1        0.0420
     14 C          -4.3633  -19.3647   21.6594 C.3     1  UNL1        0.0878
     15 C          -4.0859  -19.1298   20.3527 C.3     1  UNL1        0.0919
     16 N          -3.8685  -18.9855   19.5718 N.3     1  UNL1       -0.2713
     17 C          -2.7542  -19.0643   20.5727 C.3     1  UNL1        0.0722
     18 C          -3.0609  -19.3241   22.0178 C.3     1  UNL1        0.0191
     19 C          -4.4822  -19.5051   22.4620 C.3     1  UNL1        0.0221
     20 C          -5.5966  -19.4262   21.4611 C.3     1  UNL1        0.0191
     21 C          -5.2898  -19.1664   20.0159 C.3     1  UNL1        0.0722
@<TRIPOS>BOND
     1     1     2    2
     2     2     3   am
     3    14     3    1
     4    14    15    1
     5    15    16    1
     6    16    17    1
     7    17    18    1
     8    18    19    1
     9    19    20    1
    10    20    21    1
    11     2     5    1
    12     5     6   ar
    13     6     7   ar
    14     7     8   ar
    15     8     9   ar
    16     9    10   ar
    17    10    11   ar
    18    11    12   ar
    19    12    13   ar
    20    19    14    1
    21    13     5   ar
    22    21    16    1
    23    12     8   ar
    24     3     4    1
@<TRIPOS>MOLECULE
*****
 21 24 0 0 0
SMALL
GASTEIGER

@<TRIPOS>ATOM
      1 O          -7.1210  -17.5908   22.9805 O.2     1  UNL1       -0.2701
      2 C          -6.3080  -18.6953   22.3731 C.2     1  UNL1        0.2459
      3 N          -6.9276  -20.0410   22.1384 N.am    1  UNL1       -0.3011
      4 H          -6.4790  -20.8253   21.7474 H       1  UNL1        0.1497
      5 C          -4.8751  -18.4541   22.0002 C.ar    1  UNL1        0.0564
      6 C          -3.9079  -17.9466   23.0282 C.ar    1  UNL1        0.0047
      7 C          -2.4750  -17.7054   22.6553 C.ar    1  UNL1        0.0033
      8 C          -2.0096  -17.9717   21.2544 C.ar    1  UNL1        0.0377
      9 C          -0.6684  -17.8287   20.5982 C.ar    1  UNL1        0.0437
     10 C          -0.8069  -18.2478   19.1646 C.ar    1  UNL1        0.1796
     11 O          -2.2336  -18.6498   18.9348 O.2     1  UNL1       -0.4504
     12 C          -2.9770  -18.4792   20.2265 C.ar    1  UNL1        0.1456
     13 C          -4.4097  -18.7203   20.5993 C.ar    1  UNL1        0.0420
     14 C          -9.4694  -19.9318   22.9711 C.3     1  UNL1        0.0878
     15 C         -10.2096  -19.3794   21.9778 C.3     1  UNL1        0.0919
     16 N         -10.6996  -19.0491   21.4044 N.3     1  UNL1       -0.2713
     17 C         -11.3575  -19.4696   22.6851 C.3     1  UNL1        0.0722
     18 C         -10.5390  -20.0806   23.7835 C.3     1  UNL1        0.0191
     19 C          -9.0623  -20.2710   23.6013 C.3     1  UNL1        0.0221
     20 C          -8.4042  -19.8505   22.3206 C.3     1  UNL1        0.0191
     21 C          -9.2229  -19.2395   21.2221 C.3     1  UNL1        0.0722
@<TRIPOS>BOND
     1     1     2    2
     2     2     3   am
     3    14     3    1
     4    14    15    1
     5    15    16    1
     6    16    17    1
     7    17    18    1
     8    18    19    1
     9    19    20    1
    10    20    21    1
    11     2     5    1
    12     5     6   ar
    13     6     7   ar
    14     7     8   ar
    15     8     9   ar
    16     9    10   ar
    17    10    11   ar
    18    11    12   ar
    19    12    13   ar
    20    19    14    1
    21    13     5   ar
    22    21    16    1
    23    12     8   ar
    24     3     4    1
@<TRIPOS>MOLECULE
*****
 21 24 0 0 0
SMALL
GASTEIGER

@<TRIPOS>ATOM
      1 O         -13.6698   -6.8577   16.7411 O.2     1  UNL1       -0.2701
      2 C         -14.0722   -7.7423   17.8835 C.2     1  UNL1        0.2459
      3 N         -13.1569   -7.9112   19.0599 N.am    1  UNL1       -0.3011
      4 H         -13.3303   -8.4668   19.8539 H       1  UNL1        0.1497
      5 C         -15.3900   -8.4582   17.8498 C.ar    1  UNL1        0.0564
      6 C         -15.5032   -9.8475   18.4036 C.ar    1  UNL1        0.0047
      7 C         -16.8210  -10.5634   18.3698 C.ar    1  UNL1        0.0033
      8 C         -18.0255   -9.8898   17.7822 C.ar    1  UNL1        0.0377
      9 C         -19.4455  -10.3423   17.6122 C.ar    1  UNL1        0.0437
     10 C         -20.2098   -9.2325   16.9533 C.ar    1  UNL1        0.1796
     11 O         -19.2623   -8.0942   16.7161 O.2     1  UNL1       -0.4504
     12 C         -17.9123   -8.5003   17.2284 C.ar    1  UNL1        0.1456
     13 C         -16.5945   -7.7846   17.2622 C.ar    1  UNL1        0.0420
     14 C         -10.9686   -6.4343   18.6172 C.3     1  UNL1        0.0878
     15 C         -11.2473   -5.1576   18.9806 C.3     1  UNL1        0.0919
     16 N         -11.3695   -4.3702   19.1876 N.3     1  UNL1       -0.2713
     17 C         -10.0135   -4.7175   18.6487 C.3     1  UNL1        0.0722
     18 C          -9.7053   -6.1294   18.2468 C.3     1  UNL1        0.0191
     19 C         -10.7531   -7.1940   18.3839 C.3     1  UNL1        0.0221
     20 C         -12.1091   -6.8467   18.9228 C.3     1  UNL1        0.0191
     21 C         -12.4174   -5.4347   19.3247 C.3     1  UNL1        0.0722
@<TRIPOS>BOND
     1     1     2    2
     2     2     3   am
     3    14     3    1
     4    14    15    1
     5    15    16    1
     6    16    17    1
     7    17    18    1
     8    18    19    1
     9    19    20    1
    10    20    21    1
    11     2     5    1
    12     5     6   ar
    13     6     7   ar
    14     7     8   ar
    15     8     9   ar
    16     9    10   ar
    17    10    11   ar
    18    11    12   ar
    19    12    13   ar
    20    19    14    1
    21    13     5   ar
    22    21    16    1
    23    12     8   ar
    24     3     4    1
@<TRIPOS>MOLECULE
*****
 21 24 0 0 0
SMALL
GASTEIGER

@<TRIPOS>ATOM
      1 O         -14.0918   -6.1097   17.3885 O.2     1  UNL1       -0.2701
      2 C         -14.3678   -6.4504   18.8229 C.2     1  UNL1        0.2459
      3 N         -13.3450   -6.1446   19.8766 N.am    1  UNL1       -0.3011
      4 H         -13.4323   -6.3289   20.8397 H       1  UNL1        0.1497
      5 C         -15.6666   -7.0971   19.2037 C.ar    1  UNL1        0.0564
      6 C         -15.7449   -8.5867   19.3616 C.ar    1  UNL1        0.0047
      7 C         -17.0437   -9.2334   19.7424 C.ar    1  UNL1        0.0033
      8 C         -18.2642   -8.3904   19.9653 C.ar    1  UNL1        0.0377
      9 C         -19.6717   -8.7429   20.3456 C.ar    1  UNL1        0.0437
     10 C         -20.4633   -7.4711   20.4227 C.ar    1  UNL1        0.1796
     11 O         -19.5451   -6.3326   20.0900 O.2     1  UNL1       -0.4504
     12 C         -18.1859   -6.9007   19.8073 C.ar    1  UNL1        0.1456
     13 C         -16.8871   -6.2541   19.4265 C.ar    1  UNL1        0.0420
     14 C         -11.2404   -5.0087   18.6739 C.3     1  UNL1        0.0878
     15 C         -10.4553   -6.0004   18.1843 C.3     1  UNL1        0.0919
     16 N          -9.9473   -6.5669   17.8697 N.3     1  UNL1       -0.2713
     17 C          -9.5510   -5.1330   17.6785 C.3     1  UNL1        0.0722
     18 C         -10.4192   -4.0362   18.2200 C.3     1  UNL1        0.0191
     19 C         -11.6839   -4.3734   18.9527 C.3     1  UNL1        0.0221
     20 C         -12.0803   -5.8074   19.1439 C.3     1  UNL1        0.0191
     21 C         -11.2120   -6.9042   18.6024 C.3     1  UNL1        0.0722
@<TRIPOS>BOND
     1     1     2    2
     2     2     3   am
     3    14     3    1
     4    14    15    1
     5    15    16    1
     6    16    17    1
     7    17    18    1
     8    18    19    1
     9    19    20    1
    10    20    21    1
    11     2     5    1
    12     5     6   ar
    13     6     7   ar
    14     7     8   ar
    15     8     9   ar
    16     9    10   ar
    17    10    11   ar
    18    11    12   ar
    19    12    13   ar
    20    19    14    1
    21    13     5   ar
    22    21    16    1
    23    12     8   ar
    24     3     4    1
@<TRIPOS>MOLECULE
*****
 21 24 0 0 0
SMALL
GASTEIGER

@<TRIPOS>ATOM
      1 O          -3.3010  -15.5902   22.3535 O.2     1  UNL1       -0.2701
      2 C          -4.2118  -16.7032   22.7794 C.2     1  UNL1        0.2459
      3 N          -3.9536  -18.1045   22.3109 N.am    1  UNL1       -0.3011
      4 H          -4.4909  -18.8986   22.5344 H       1  UNL1        0.1497
      5 C          -5.3809  -16.4150   23.6740 C.ar    1  UNL1        0.0564
      6 C          -6.7755  -16.6994   23.2007 C.ar    1  UNL1        0.0047
      7 C          -7.9446  -16.4111   24.0953 C.ar    1  UNL1        0.0033
      8 C          -7.7189  -15.8385   25.4632 C.ar    1  UNL1        0.0377
      9 C          -8.6679  -15.4537   26.5592 C.ar    1  UNL1        0.0437
     10 C          -7.8598  -14.9315   27.7099 C.ar    1  UNL1        0.1796
     11 O          -6.4113  -14.9935   27.3251 O.2     1  UNL1       -0.4504
     12 C          -6.3243  -15.5541   25.9365 C.ar    1  UNL1        0.1456
     13 C          -5.1552  -15.8423   25.0419 C.ar    1  UNL1        0.0420
     14 C          -1.7726  -18.0636   20.7593 C.3     1  UNL1        0.0878
     15 C          -2.1817  -18.0195   19.4669 C.3     1  UNL1        0.0919
     16 N          -2.3815  -17.9925   18.6686 N.3     1  UNL1       -0.2713
     17 C          -0.9169  -18.0096   18.9914 C.3     1  UNL1        0.0722
     18 C          -0.4643  -18.0583   20.4206 C.3     1  UNL1        0.0191
     19 C          -1.4766  -18.0900   21.5272 C.3     1  UNL1        0.0221
     20 C          -2.9413  -18.0729   21.2044 C.3     1  UNL1        0.0191
     21 C          -3.3939  -18.0241   19.7750 C.3     1  UNL1        0.0722
@<TRIPOS>BOND
     1     1     2    2
     2     2     3   am
     3    14     3    1
     4    14    15    1
     5    15    16    1
     6    16    17    1
     7    17    18    1
     8    18    19    1
     9    19    20    1
    10    20    21    1
    11     2     5    1
    12     5     6   ar
    13     6     7   ar
    14     7     8   ar
    15     8     9   ar
    16     9    10   ar
    17    10    11   ar
    18    11    12   ar
    19    12    13   ar
    20    19    14    1
    21    13     5   ar
    22    21    16    1
    23    12     8   ar
    24     3     4    1
@<TRIPOS>MOLECULE
*****
 21 24 0 0 0
SMALL
GASTEIGER

@<TRIPOS>ATOM
      1 O         -13.9553   -5.8361   17.3319 O.2     1  UNL1       -0.2701
      2 C         -14.3570   -6.1308   18.7467 C.2     1  UNL1        0.2459
      3 N         -13.3214   -6.1508   19.8317 N.am    1  UNL1       -0.3011
      4 H         -13.4847   -6.3330   20.7853 H       1  UNL1        0.1497
      5 C         -15.7943   -6.4056   19.0766 C.ar    1  UNL1        0.0564
      6 C         -16.7793   -5.2761   19.1358 C.ar    1  UNL1        0.0047
      7 C         -18.2166   -5.5508   19.4657 C.ar    1  UNL1        0.0033
      8 C         -18.6687   -6.9552   19.7364 C.ar    1  UNL1        0.0377
      9 C         -20.0106   -7.5282   20.0844 C.ar    1  UNL1        0.0437
     10 C         -19.8547   -9.0119   20.2403 C.ar    1  UNL1        0.1796
     11 O         -18.4166   -9.3559   19.9885 O.2     1  UNL1       -0.4504
     12 C         -17.6836   -8.0848   19.6771 C.ar    1  UNL1        0.1456
     13 C         -16.2463   -7.8100   19.3472 C.ar    1  UNL1        0.0420
     14 C         -10.9508   -5.6034   18.7153 C.3     1  UNL1        0.0878
     15 C         -10.8230   -4.2547   18.6495 C.3     1  UNL1        0.0919
     16 N         -10.7002   -3.4429   18.5883 N.3     1  UNL1       -0.2713
     17 C          -9.6016   -4.3261   18.0758 C.3     1  UNL1        0.0722
     18 C          -9.7428   -5.8177   18.1487 C.3     1  UNL1        0.0191
     19 C         -10.9828   -6.4259   18.7339 C.3     1  UNL1        0.0221
     20 C         -12.0815   -5.5426   19.2464 C.3     1  UNL1        0.0191
     21 C         -11.9402   -4.0510   19.1736 C.3     1  UNL1        0.0722
@<TRIPOS>BOND
     1     1     2    2
     2     2     3   am
     3    14     3    1
     4    14    15    1
     5    15    16    1
     6    16    17    1
     7    17    18    1
     8    18    19    1
     9    19    20    1
    10    20    21    1
    11     2     5    1
    12     5     6   ar
    13     6     7   ar
    14     7     8   ar
    15     8     9   ar
    16     9    10   ar
    17    10    11   ar
    18    11    12   ar
    19    12    13   ar
    20    19    14    1
    21    13     5   ar
    22    21    16    1
    23    12     8   ar
    24     3     4    1
