@<TRIPOS>MOLECULE
*****
 30 32 0 0 0
SMALL
GASTEIGER

@<TRIPOS>ATOM
      1 C          -8.9114  -16.8722   23.3498 C.ar    1  UNL1        0.1835
      2 N          -8.5229  -15.7887   24.3116 N.ar    1  UNL1       -0.1885
      3 C          -7.0772  -15.5601   24.6399 C.ar    1  UNL1        0.2596
      4 O          -6.6887  -14.4766   25.6017 O.3     1  UNL1       -0.4898
      5 C          -6.0200  -16.4150   24.0063 C.ar    1  UNL1        0.2098
      6 O          -4.5743  -16.1865   24.3345 O.3     1  UNL1       -0.5007
      7 C          -6.4086  -17.4986   23.0445 C.ar    1  UNL1        0.1743
      8 N          -7.8542  -17.7271   22.7162 N.ar    1  UNL1       -0.2173
      9 H          -7.3491  -13.9426   25.9974 H       1  UNL1        0.2938
     10 H          -4.3317  -15.5097   24.9353 H       1  UNL1        0.2924
     11 C         -12.3829  -16.7669   21.4295 C.ar    1  UNL1        0.1419
     12 C         -13.2484  -17.5579   22.3650 C.ar    1  UNL1        0.0576
     13 C         -12.6683  -18.1204   23.6287 C.ar    1  UNL1        0.1021
     14 N         -11.2226  -17.8918   23.9570 N.ar    1  UNL1       -0.2405
     15 C         -10.3571  -17.1008   23.0216 C.ar    1  UNL1        0.1201
     16 C         -10.9373  -16.5383   21.7578 C.ar    1  UNL1        0.0591
     17 C         -12.0564  -15.6675   19.0983 C.3     1  UNL1        0.2525
     18 O         -12.9631  -16.2044   20.1658 O.3     1  UNL1       -0.4713
     19 C          -5.3514  -18.3535   22.4109 C.2     1  UNL1        0.2668
     20 O          -4.1806  -18.8233   23.2226 O.2     1  UNL1       -0.2684
     21 N          -5.4648  -18.7387   20.9657 N.am    1  UNL1       -0.3012
     22 H          -6.2332  -18.4304   20.4329 H       1  UNL1        0.1497
     23 C          -4.4076  -19.5936   20.3321 C.3     1  UNL1        0.0719
     24 C          -4.6813  -21.0421   20.0543 C.3     1  UNL1        0.0213
     25 C          -3.0768  -19.0002   19.9762 C.3     1  UNL1        0.0180
     26 C          -2.9484  -18.1141   18.7727 C.3     1  UNL1        0.0016
     27 C          -1.6176  -17.5206   18.4168 C.3     1  UNL1        0.0001
     28 C          -0.4151  -17.8132   19.2645 C.3     1  UNL1        0.0000
     29 C          -0.5435  -18.6992   20.4680 C.3     1  UNL1        0.0001
     30 C          -1.8744  -19.2927   20.8239 C.3     1  UNL1        0.0016
@<TRIPOS>BOND
     1    17    18    1
     2    18    11    1
     3    11    12   ar
     4    12    13   ar
     5    13    14   ar
     6    14    15   ar
     7    15     1    1
     8     1     2   ar
     9     2     3   ar
    10     3     4    1
    11     3     5   ar
    12     5     6    1
    13     5     7   ar
    14     7    19    1
    15    19    20    2
    16    19    21   am
    17    21    23    1
    18    23    24    1
    19    23    25    1
    20    25    26    1
    21    26    27    1
    22    27    28    1
    23    28    29    1
    24    29    30    1
    25     7     8   ar
    26    15    16   ar
    27    16    11   ar
    28     8     1   ar
    29    30    25    1
    30     4     9    1
    31     6    10    1
    32    21    22    1
@<TRIPOS>MOLECULE
*****
 30 32 0 0 0
SMALL
GASTEIGER

@<TRIPOS>ATOM
      1 C          -9.1355  -16.8024   23.0439 C.ar    1  UNL1        0.1835
      2 N          -8.8221  -15.8130   24.1268 N.ar    1  UNL1       -0.1885
      3 C          -7.4143  -15.6649   24.6230 C.ar    1  UNL1        0.2596
      4 O          -7.1008  -14.6755   25.7060 O.3     1  UNL1       -0.4898
      5 C          -6.3199  -16.5064   24.0362 C.ar    1  UNL1        0.2098
      6 O          -4.9121  -16.3584   24.5323 O.3     1  UNL1       -0.5007
      7 C          -6.6333  -17.4958   22.9532 C.ar    1  UNL1        0.1743
      8 N          -8.0411  -17.6438   22.4571 N.ar    1  UNL1       -0.2173
      9 H          -7.7845  -14.1499   26.0725 H       1  UNL1        0.2938
     10 H          -4.7163  -15.7403   25.2088 H       1  UNL1        0.2924
     11 C         -13.0122  -17.6474   22.9586 C.ar    1  UNL1        0.1419
     12 C         -13.3589  -17.2465   21.5555 C.ar    1  UNL1        0.0576
     13 C         -12.2979  -16.6975   20.6484 C.ar    1  UNL1        0.1021
     14 N         -10.8901  -16.5494   21.1445 N.ar    1  UNL1       -0.2405
     15 C         -10.5434  -16.9504   22.5477 C.ar    1  UNL1        0.1201
     16 C         -11.6044  -17.4994   23.4548 C.ar    1  UNL1        0.0591
     17 C         -13.7493  -18.5069   25.2970 C.3     1  UNL1        0.2525
     18 O         -14.0732  -18.1964   23.8657 O.3     1  UNL1       -0.4713
     19 C          -5.5390  -18.3372   22.3664 C.2     1  UNL1        0.2668
     20 O          -4.3776  -18.7574   23.2177 O.2     1  UNL1       -0.2684
     21 N          -5.6059  -18.7584   20.9283 N.am    1  UNL1       -0.3012
     22 H          -6.3681  -18.4826   20.3696 H       1  UNL1        0.1497
     23 C          -4.5115  -19.5998   20.3415 C.3     1  UNL1        0.0719
     24 C          -4.7417  -21.0605   20.0896 C.3     1  UNL1        0.0213
     25 C          -3.1870  -18.9806   20.0066 C.3     1  UNL1        0.0180
     26 C          -2.0025  -19.2161   20.8963 C.3     1  UNL1        0.0016
     27 C          -0.6780  -18.5968   20.5614 C.3     1  UNL1        0.0001
     28 C          -0.5379  -17.7421   19.3368 C.3     1  UNL1        0.0000
     29 C          -1.7223  -17.5066   18.4470 C.3     1  UNL1        0.0001
     30 C          -3.0469  -18.1258   18.7819 C.3     1  UNL1        0.0016
@<TRIPOS>BOND
     1    17    18    1
     2    18    11    1
     3    11    12   ar
     4    12    13   ar
     5    13    14   ar
     6    14    15   ar
     7    15     1    1
     8     1     2   ar
     9     2     3   ar
    10     3     4    1
    11     3     5   ar
    12     5     6    1
    13     5     7   ar
    14     7    19    1
    15    19    20    2
    16    19    21   am
    17    21    23    1
    18    23    24    1
    19    23    25    1
    20    25    26    1
    21    26    27    1
    22    27    28    1
    23    28    29    1
    24    29    30    1
    25     7     8   ar
    26    15    16   ar
    27    16    11   ar
    28     8     1   ar
    29    30    25    1
    30     4     9    1
    31     6    10    1
    32    21    22    1
@<TRIPOS>MOLECULE
*****
 30 32 0 0 0
SMALL
GASTEIGER

@<TRIPOS>ATOM
      1 C          -9.0852  -16.2752   23.6542 C.ar    1  UNL1        0.1835
      2 N          -9.3090  -15.7263   25.0321 N.ar    1  UNL1       -0.1885
      3 C          -8.1364  -15.3653   25.8952 C.ar    1  UNL1        0.2596
      4 O          -8.3602  -14.8165   27.2731 O.3     1  UNL1       -0.4898
      5 C          -6.7401  -15.5532   25.3803 C.ar    1  UNL1        0.2098
      6 O          -5.5676  -15.1922   26.2433 O.3     1  UNL1       -0.5007
      7 C          -6.5164  -16.1021   24.0023 C.ar    1  UNL1        0.1743
      8 N          -7.6889  -16.4631   23.1393 N.ar    1  UNL1       -0.2173
      9 H          -9.2324  -14.6991   27.5947 H       1  UNL1        0.2938
     10 H          -5.7074  -14.8494   27.1041 H       1  UNL1        0.2924
     11 C         -12.6595  -17.5958   22.5450 C.ar    1  UNL1        0.1419
     12 C         -12.6027  -17.3582   21.0650 C.ar    1  UNL1        0.0576
     13 C         -11.3735  -16.7597   20.4481 C.ar    1  UNL1        0.1021
     14 N         -10.2010  -16.3987   21.3111 N.ar    1  UNL1       -0.2405
     15 C         -10.2577  -16.6362   22.7911 C.ar    1  UNL1        0.1201
     16 C         -11.4870  -17.2348   23.4080 C.ar    1  UNL1        0.0591
     17 C         -14.0279  -18.2500   24.6544 C.3     1  UNL1        0.2525
     18 O         -13.8888  -18.1943   23.1619 O.3     1  UNL1       -0.4713
     19 C          -5.1201  -16.2899   23.4875 C.2     1  UNL1        0.2668
     20 O          -4.2853  -15.0958   23.1308 O.2     1  UNL1       -0.2684
     21 N          -4.5587  -17.6718   23.3293 N.am    1  UNL1       -0.3012
     22 H          -5.1066  -18.4556   23.5634 H       1  UNL1        0.1497
     23 C          -3.1624  -17.8597   22.8144 C.3     1  UNL1        0.0719
     24 C          -1.9997  -17.7991   23.7603 C.3     1  UNL1        0.0213
     25 C          -2.9287  -18.1082   21.3537 C.3     1  UNL1        0.0180
     26 C          -1.9707  -17.2431   20.5896 C.3     1  UNL1        0.0016
     27 C          -1.7370  -17.4916   19.1290 C.3     1  UNL1        0.0001
     28 C          -2.4613  -18.6051   18.4323 C.3     1  UNL1        0.0000
     29 C          -3.4193  -19.4702   19.1964 C.3     1  UNL1        0.0001
     30 C          -3.6530  -19.2218   20.6571 C.3     1  UNL1        0.0016
@<TRIPOS>BOND
     1    17    18    1
     2    18    11    1
     3    11    12   ar
     4    12    13   ar
     5    13    14   ar
     6    14    15   ar
     7    15     1    1
     8     1     2   ar
     9     2     3   ar
    10     3     4    1
    11     3     5   ar
    12     5     6    1
    13     5     7   ar
    14     7    19    1
    15    19    20    2
    16    19    21   am
    17    21    23    1
    18    23    24    1
    19    23    25    1
    20    25    26    1
    21    26    27    1
    22    27    28    1
    23    28    29    1
    24    29    30    1
    25     7     8   ar
    26    15    16   ar
    27    16    11   ar
    28     8     1   ar
    29    30    25    1
    30     4     9    1
    31     6    10    1
    32    21    22    1
@<TRIPOS>MOLECULE
*****
 30 32 0 0 0
SMALL
GASTEIGER

@<TRIPOS>ATOM
      1 C          -9.0638  -16.4508   23.7027 C.ar    1  UNL1        0.1835
      2 N          -9.2994  -15.8518   25.0576 N.ar    1  UNL1       -0.1885
      3 C          -8.1359  -15.4083   25.8941 C.ar    1  UNL1        0.2596
      4 O          -8.3715  -14.8093   27.2490 O.3     1  UNL1       -0.4898
      5 C          -6.7370  -15.5637   25.3757 C.ar    1  UNL1        0.2098
      6 O          -5.5735  -15.1203   26.2122 O.3     1  UNL1       -0.5007
      7 C          -6.5015  -16.1628   24.0208 C.ar    1  UNL1        0.1743
      8 N          -7.6649  -16.6062   23.1843 N.ar    1  UNL1       -0.2173
      9 H          -9.2453  -14.7121   27.5728 H       1  UNL1        0.2938
     10 H          -5.7206  -14.7461   27.0586 H       1  UNL1        0.2924
     11 C         -11.1618  -18.1999   20.8236 C.ar    1  UNL1        0.1419
     12 C         -12.5540  -17.7813   21.1931 C.ar    1  UNL1        0.0576
     13 C         -12.7829  -16.9193   22.3992 C.ar    1  UNL1        0.1021
     14 N         -11.6195  -16.4757   23.2357 N.ar    1  UNL1       -0.2405
     15 C         -10.2273  -16.8943   22.8662 C.ar    1  UNL1        0.1201
     16 C          -9.9985  -17.7563   21.6602 C.ar    1  UNL1        0.0591
     17 C          -9.5820  -19.6658   19.3728 C.3     1  UNL1        0.2525
     18 O         -10.9330  -19.0619   19.6176 O.3     1  UNL1       -0.4713
     19 C          -5.1025  -16.3183   23.5024 C.2     1  UNL1        0.2668
     20 O          -4.2915  -15.1046   23.1568 O.2     1  UNL1       -0.2684
     21 N          -4.5146  -17.6873   23.3295 N.am    1  UNL1       -0.3012
     22 H          -5.0468  -18.4839   23.5564 H       1  UNL1        0.1497
     23 C          -3.1156  -17.8428   22.8111 C.3     1  UNL1        0.0719
     24 C          -1.9526  -17.7606   23.7549 C.3     1  UNL1        0.0213
     25 C          -2.8796  -18.0805   21.3490 C.3     1  UNL1        0.0180
     26 C          -3.6259  -19.1691   20.6361 C.3     1  UNL1        0.0016
     27 C          -3.3899  -19.4068   19.1740 C.3     1  UNL1        0.0001
     28 C          -2.4078  -18.5559   18.4248 C.3     1  UNL1        0.0000
     29 C          -1.6616  -17.4673   19.1376 C.3     1  UNL1        0.0001
     30 C          -1.8975  -17.2296   20.5998 C.3     1  UNL1        0.0016
@<TRIPOS>BOND
     1    17    18    1
     2    18    11    1
     3    11    12   ar
     4    12    13   ar
     5    13    14   ar
     6    14    15   ar
     7    15     1    1
     8     1     2   ar
     9     2     3   ar
    10     3     4    1
    11     3     5   ar
    12     5     6    1
    13     5     7   ar
    14     7    19    1
    15    19    20    2
    16    19    21   am
    17    21    23    1
    18    23    24    1
    19    23    25    1
    20    25    26    1
    21    26    27    1
    22    27    28    1
    23    28    29    1
    24    29    30    1
    25     7     8   ar
    26    15    16   ar
    27    16    11   ar
    28     8     1   ar
    29    30    25    1
    30     4     9    1
    31     6    10    1
    32    21    22    1
@<TRIPOS>MOLECULE
*****
 30 32 0 0 0
SMALL
GASTEIGER

@<TRIPOS>ATOM
      1 C         -13.1112   -6.3923   18.8277 C.ar    1  UNL1        0.1835
      2 N         -11.7163   -6.9062   19.0279 N.ar    1  UNL1       -0.1885
      3 C         -10.5655   -5.9462   19.0935 C.ar    1  UNL1        0.2596
      4 O          -9.1706   -6.4601   19.2937 O.3     1  UNL1       -0.4898
      5 C         -10.8097   -4.4724   18.9590 C.ar    1  UNL1        0.2098
      6 O          -9.6591   -3.5124   19.0246 O.3     1  UNL1       -0.5007
      7 C         -12.2047   -3.9585   18.7588 C.ar    1  UNL1        0.1743
      8 N         -13.3554   -4.9185   18.6932 N.ar    1  UNL1       -0.2173
      9 H          -9.0181   -7.3808   19.3777 H       1  UNL1        0.2938
     10 H          -8.7877   -3.8334   19.1497 H       1  UNL1        0.2924
     11 C         -16.7236   -7.9561   19.3326 C.ar    1  UNL1        0.1419
     12 C         -16.5635   -9.2721   18.6308 C.ar    1  UNL1        0.0576
     13 C         -15.2525   -9.6281   17.9946 C.ar    1  UNL1        0.1021
     14 N         -14.1018   -8.6683   18.0602 N.ar    1  UNL1       -0.2405
     15 C         -14.2620   -7.3523   18.7620 C.ar    1  UNL1        0.1201
     16 C         -15.5729   -6.9962   19.3982 C.ar    1  UNL1        0.0591
     17 C         -19.0866   -8.6523   20.1583 C.3     1  UNL1        0.2525
     18 O         -18.0346   -7.6001   19.9688 O.3     1  UNL1       -0.4713
     19 C         -12.4490   -2.4846   18.6243 C.2     1  UNL1        0.2668
     20 O         -11.4887   -1.5066   19.2339 O.2     1  UNL1       -0.2684
     21 N         -13.6533   -1.9888   17.8803 N.am    1  UNL1       -0.3012
     22 H         -14.2835   -2.6307   17.4802 H       1  UNL1        0.1497
     23 C         -13.8975   -0.5150   17.7458 C.3     1  UNL1        0.0719
     24 C         -13.1899    0.2683   16.6800 C.3     1  UNL1        0.0213
     25 C         -14.8493    0.1756   18.6769 C.3     1  UNL1        0.0180
     26 C         -14.9143    1.6740   18.7075 C.3     1  UNL1        0.0016
     27 C         -15.8661    2.3645   19.6387 C.3     1  UNL1        0.0001
     28 C         -16.7529    1.5569   20.5394 C.3     1  UNL1        0.0000
     29 C         -16.6880    0.0586   20.5088 C.3     1  UNL1        0.0001
     30 C         -15.7362   -0.6321   19.5776 C.3     1  UNL1        0.0016
@<TRIPOS>BOND
     1    17    18    1
     2    18    11    1
     3    11    12   ar
     4    12    13   ar
     5    13    14   ar
     6    14    15   ar
     7    15     1    1
     8     1     2   ar
     9     2     3   ar
    10     3     4    1
    11     3     5   ar
    12     5     6    1
    13     5     7   ar
    14     7    19    1
    15    19    20    2
    16    19    21   am
    17    21    23    1
    18    23    24    1
    19    23    25    1
    20    25    26    1
    21    26    27    1
    22    27    28    1
    23    28    29    1
    24    29    30    1
    25     7     8   ar
    26    15    16   ar
    27    16    11   ar
    28     8     1   ar
    29    30    25    1
    30     4     9    1
    31     6    10    1
    32    21    22    1
@<TRIPOS>MOLECULE
*****
 30 32 0 0 0
SMALL
GASTEIGER

@<TRIPOS>ATOM
      1 C           5.5685   -1.5632   32.2922 C.ar    1  UNL1        0.1835
      2 N           4.4707   -1.5393   31.2703 N.ar    1  UNL1       -0.1885
      3 C           3.2815   -0.6466   31.4677 C.ar    1  UNL1        0.2596
      4 O           2.1838   -0.6227   30.4458 O.3     1  UNL1       -0.4898
      5 C           3.1902    0.2222   32.6871 C.ar    1  UNL1        0.2098
      6 O           2.0010    1.1149   32.8846 O.3     1  UNL1       -0.5007
      7 C           4.2880    0.1982   33.7091 C.ar    1  UNL1        0.1743
      8 N           5.4771   -0.6945   33.5116 N.ar    1  UNL1       -0.2173
      9 H           2.2409   -1.1654   29.6841 H       1  UNL1        0.2938
     10 H           1.3153    1.1298   32.2463 H       1  UNL1        0.2924
     11 C           7.7714   -4.7075   31.2868 C.ar    1  UNL1        0.1419
     12 C           9.1359   -4.2414   31.6998 C.ar    1  UNL1        0.0576
     13 C           9.3114   -2.8825   32.3103 C.ar    1  UNL1        0.1021
     14 N           8.1223   -1.9898   32.5077 N.ar    1  UNL1       -0.2405
     15 C           6.7577   -2.4560   32.0947 C.ar    1  UNL1        0.1201
     16 C           6.5823   -3.8148   31.4843 C.ar    1  UNL1        0.0591
     17 C           7.7866   -6.2560   29.2007 C.3     1  UNL1        0.2525
     18 O           7.5959   -6.0664   30.6763 O.3     1  UNL1       -0.4713
     19 C           4.1966    1.0670   34.9284 C.2     1  UNL1        0.2668
     20 O           3.9430    2.5384   34.7837 O.2     1  UNL1       -0.2684
     21 N           4.3589    0.4645   36.2925 N.am    1  UNL1       -0.3012
     22 H           4.5253   -0.5012   36.3874 H       1  UNL1        0.1497
     23 C           4.2675    1.3332   37.5118 C.3     1  UNL1        0.0719
     24 C           5.5125    1.9148   38.1134 C.3     1  UNL1        0.0213
     25 C           2.9312    1.6205   38.1296 C.3     1  UNL1        0.0180
     26 C           2.2646    0.5876   38.9892 C.3     1  UNL1        0.0016
     27 C           0.9283    0.8748   39.6070 C.3     1  UNL1        0.0001
     28 C           0.2585    2.1950   39.3653 C.3     1  UNL1        0.0000
     29 C           0.9250    3.2280   38.5058 C.3     1  UNL1        0.0001
     30 C           2.2614    2.9407   37.8879 C.3     1  UNL1        0.0016
@<TRIPOS>BOND
     1    17    18    1
     2    18    11    1
     3    11    12   ar
     4    12    13   ar
     5    13    14   ar
     6    14    15   ar
     7    15     1    1
     8     1     2   ar
     9     2     3   ar
    10     3     4    1
    11     3     5   ar
    12     5     6    1
    13     5     7   ar
    14     7    19    1
    15    19    20    2
    16    19    21   am
    17    21    23    1
    18    23    24    1
    19    23    25    1
    20    25    26    1
    21    26    27    1
    22    27    28    1
    23    28    29    1
    24    29    30    1
    25     7     8   ar
    26    15    16   ar
    27    16    11   ar
    28     8     1   ar
    29    30    25    1
    30     4     9    1
    31     6    10    1
    32    21    22    1
@<TRIPOS>MOLECULE
*****
 30 32 0 0 0
SMALL
GASTEIGER

@<TRIPOS>ATOM
      1 C           7.1749   -5.1160   27.7276 C.ar    1  UNL1        0.1835
      2 N           7.8544   -6.3815   27.2953 N.ar    1  UNL1       -0.1885
      3 C           8.0432   -6.6705   25.8356 C.ar    1  UNL1        0.2596
      4 O           8.7227   -7.9359   25.4033 O.3     1  UNL1       -0.4898
      5 C           7.5525   -5.6940   24.8081 C.ar    1  UNL1        0.2098
      6 O           7.7412   -5.9829   23.3484 O.3     1  UNL1       -0.5007
      7 C           6.8730   -4.4285   25.2404 C.ar    1  UNL1        0.1743
      8 N           6.6842   -4.1395   26.7001 N.ar    1  UNL1       -0.2173
      9 H           9.0292   -8.5459   26.0451 H       1  UNL1        0.2938
     10 H           8.1657   -6.7734   23.0783 H       1  UNL1        0.2924
     11 C           6.4508   -3.1499   31.0981 C.ar    1  UNL1        0.1419
     12 C           6.6085   -4.2489   32.1068 C.ar    1  UNL1        0.0576
     13 C           6.9551   -5.6368   31.6557 C.ar    1  UNL1        0.1021
     14 N           7.1439   -5.9259   30.1960 N.ar    1  UNL1       -0.2405
     15 C           6.9861   -4.8270   29.1874 C.ar    1  UNL1        0.1201
     16 C           6.6396   -3.4390   29.6384 C.ar    1  UNL1        0.0591
     17 C           4.6704   -1.3237   31.5930 C.3     1  UNL1        0.2525
     18 O           6.1043   -1.7620   31.5492 O.3     1  UNL1       -0.4713
     19 C           6.3823   -3.4520   24.2130 C.2     1  UNL1        0.2668
     20 O           7.3325   -2.8922   23.1962 O.2     1  UNL1       -0.2684
     21 N           4.9414   -3.0353   24.2022 N.am    1  UNL1       -0.3012
     22 H           4.3177   -3.4027   24.8695 H       1  UNL1        0.1497
     23 C           4.4507   -2.0588   23.1748 C.3     1  UNL1        0.0719
     24 C           4.2577   -0.6172   23.5420 C.3     1  UNL1        0.0213
     25 C           4.1530   -2.5237   21.7801 C.3     1  UNL1        0.0180
     26 C           4.3698   -3.9601   21.4060 C.3     1  UNL1        0.0016
     27 C           4.0721   -4.4251   20.0114 C.3     1  UNL1        0.0001
     28 C           3.5577   -3.4537   18.9907 C.3     1  UNL1        0.0000
     29 C           3.3409   -2.0174   19.3647 C.3     1  UNL1        0.0001
     30 C           3.6385   -1.5524   20.7594 C.3     1  UNL1        0.0016
@<TRIPOS>BOND
     1    17    18    1
     2    18    11    1
     3    11    12   ar
     4    12    13   ar
     5    13    14   ar
     6    14    15   ar
     7    15     1    1
     8     1     2   ar
     9     2     3   ar
    10     3     4    1
    11     3     5   ar
    12     5     6    1
    13     5     7   ar
    14     7    19    1
    15    19    20    2
    16    19    21   am
    17    21    23    1
    18    23    24    1
    19    23    25    1
    20    25    26    1
    21    26    27    1
    22    27    28    1
    23    28    29    1
    24    29    30    1
    25     7     8   ar
    26    15    16   ar
    27    16    11   ar
    28     8     1   ar
    29    30    25    1
    30     4     9    1
    31     6    10    1
    32    21    22    1
@<TRIPOS>MOLECULE
*****
 30 32 0 0 0
SMALL
GASTEIGER

@<TRIPOS>ATOM
      1 C           3.4457   -0.5180   20.1300 C.ar    1  UNL1        0.1835
      2 N           3.2242   -0.5650   18.6473 N.ar    1  UNL1       -0.1885
      3 C           4.2287   -1.2383   17.7598 C.ar    1  UNL1        0.2596
      4 O           4.0071   -1.2854   16.2770 O.3     1  UNL1       -0.4898
      5 C           5.4548   -1.8646   18.3551 C.ar    1  UNL1        0.2098
      6 O           6.4593   -2.5379   17.4677 O.3     1  UNL1       -0.5007
      7 C           5.6763   -1.8176   19.8380 C.ar    1  UNL1        0.1743
      8 N           4.6718   -1.1443   20.7254 N.ar    1  UNL1       -0.2173
      9 H           3.2412   -0.8941   15.9051 H       1  UNL1        0.2938
     10 H           6.3209   -2.5673   16.5415 H       1  UNL1        0.2924
     11 C           0.2082    1.4508   21.3101 C.ar    1  UNL1        0.1419
     12 C           0.4321    1.5020   22.7923 C.ar    1  UNL1        0.0576
     13 C           1.6606    0.8799   23.3872 C.ar    1  UNL1        0.1021
     14 N           2.6651    0.2065   22.4998 N.ar    1  UNL1       -0.2405
     15 C           2.4412    0.1554   21.0175 C.ar    1  UNL1        0.1201
     16 C           1.2127    0.7775   20.4227 C.ar    1  UNL1        0.0591
     17 C          -1.6795    3.2336   21.3994 C.3     1  UNL1        0.2525
     18 O          -1.0202    2.0730   20.7152 O.3     1  UNL1       -0.4713
     19 C           6.9024   -2.4439   20.4334 C.2     1  UNL1        0.2668
     20 O           8.0287   -1.5778   20.9147 O.2     1  UNL1       -0.2684
     21 N           7.0023   -3.9362   20.5474 N.am    1  UNL1       -0.3012
     22 H           6.2632   -4.5046   20.2315 H       1  UNL1        0.1497
     23 C           8.2284   -4.5624   21.1428 C.3     1  UNL1        0.0719
     24 C           9.5358   -4.4956   20.4103 C.3     1  UNL1        0.0213
     25 C           8.1472   -5.2555   22.4706 C.3     1  UNL1        0.0180
     26 C           8.7624   -6.6122   22.6473 C.3     1  UNL1        0.0016
     27 C           8.6812   -7.3053   23.9751 C.3     1  UNL1        0.0001
     28 C           7.9848   -6.6418   25.1261 C.3     1  UNL1        0.0000
     29 C           7.3697   -5.2852   24.9494 C.3     1  UNL1        0.0001
     30 C           7.4509   -4.5921   23.6216 C.3     1  UNL1        0.0016
@<TRIPOS>BOND
     1    17    18    1
     2    18    11    1
     3    11    12   ar
     4    12    13   ar
     5    13    14   ar
     6    14    15   ar
     7    15     1    1
     8     1     2   ar
     9     2     3   ar
    10     3     4    1
    11     3     5   ar
    12     5     6    1
    13     5     7   ar
    14     7    19    1
    15    19    20    2
    16    19    21   am
    17    21    23    1
    18    23    24    1
    19    23    25    1
    20    25    26    1
    21    26    27    1
    22    27    28    1
    23    28    29    1
    24    29    30    1
    25     7     8   ar
    26    15    16   ar
    27    16    11   ar
    28     8     1   ar
    29    30    25    1
    30     4     9    1
    31     6    10    1
    32    21    22    1
@<TRIPOS>MOLECULE
*****
 30 32 0 0 0
SMALL
GASTEIGER

@<TRIPOS>ATOM
      1 C           3.1375   -0.4916   29.9639 C.ar    1  UNL1        0.1835
      2 N           1.6917   -0.2957   30.3118 N.ar    1  UNL1       -0.1885
      3 C           0.7123    0.1064   29.2491 C.ar    1  UNL1        0.2596
      4 O          -0.7335    0.3023   29.5970 O.3     1  UNL1       -0.4898
      5 C           1.1790    0.3125   27.8385 C.ar    1  UNL1        0.2098
      6 O           0.1997    0.7145   26.7758 O.3     1  UNL1       -0.5007
      7 C           2.6249    0.1165   27.4906 C.ar    1  UNL1        0.1743
      8 N           3.6041   -0.2855   28.5533 N.ar    1  UNL1       -0.2173
      9 H          -1.0250    0.1736   30.4781 H       1  UNL1        0.2938
     10 H          -0.7035    0.8369   26.9931 H       1  UNL1        0.2924
     11 C           4.7790   -1.0470   33.5343 C.ar    1  UNL1        0.1419
     12 C           6.0753   -1.6977   33.1521 C.ar    1  UNL1        0.0576
     13 C           6.3924   -1.9463   31.7073 C.ar    1  UNL1        0.1021
     14 N           5.4132   -1.5443   30.6445 N.ar    1  UNL1       -0.2405
     15 C           4.1169   -0.8937   31.0267 C.ar    1  UNL1        0.1201
     16 C           3.7997   -0.6450   32.4715 C.ar    1  UNL1        0.0591
     17 C           5.5520   -0.3965   35.9278 C.3     1  UNL1        0.2525
     18 O           4.4619   -0.7984   34.9791 O.3     1  UNL1       -0.4713
     19 C           3.0915    0.3226   26.0800 C.2     1  UNL1        0.2668
     20 O           4.4003    1.0060   25.8153 O.2     1  UNL1       -0.2684
     21 N           2.2494   -0.1546   24.9342 N.am    1  UNL1       -0.3012
     22 H           1.3903   -0.6031   25.1080 H       1  UNL1        0.1497
     23 C           2.7160    0.0515   23.5236 C.3     1  UNL1        0.0719
     24 C           2.5958    1.4029   22.8838 C.3     1  UNL1        0.0213
     25 C           3.3027   -1.0938   22.7528 C.3     1  UNL1        0.0180
     26 C           3.0708   -1.2001   21.2746 C.3     1  UNL1        0.0016
     27 C           3.6575   -2.3453   20.5039 C.3     1  UNL1        0.0001
     28 C           4.4762   -3.3843   21.2112 C.3     1  UNL1        0.0000
     29 C           4.7081   -3.2780   22.6893 C.3     1  UNL1        0.0001
     30 C           4.1214   -2.1327   23.4602 C.3     1  UNL1        0.0016
@<TRIPOS>BOND
     1    17    18    1
     2    18    11    1
     3    11    12   ar
     4    12    13   ar
     5    13    14   ar
     6    14    15   ar
     7    15     1    1
     8     1     2   ar
     9     2     3   ar
    10     3     4    1
    11     3     5   ar
    12     5     6    1
    13     5     7   ar
    14     7    19    1
    15    19    20    2
    16    19    21   am
    17    21    23    1
    18    23    24    1
    19    23    25    1
    20    25    26    1
    21    26    27    1
    22    27    28    1
    23    28    29    1
    24    29    30    1
    25     7     8   ar
    26    15    16   ar
    27    16    11   ar
    28     8     1   ar
    29    30    25    1
    30     4     9    1
    31     6    10    1
    32    21    22    1
