@<TRIPOS>MOLECULE
*****
 37 40 0 0 0
SMALL
GASTEIGER

@<TRIPOS>ATOM
      1 C           3.5630   -0.4600   19.9239 C.3     1  UNL1        0.0972
      2 C           2.1312   -0.7244   20.2842 C.3     1  UNL1        0.0431
      3 C           1.8479   -0.0414   21.5893 C.3     1  UNL1        0.0968
      4 N           3.1048    0.6451   22.0356 N.am    1  UNL1       -0.2623
      5 C           3.2722    1.4491   23.2908 C.2     1  UNL1        0.3073
      6 O           4.5959    2.0801   23.6063 O.2     1  UNL1       -0.2523
      7 N           2.1159    1.6221   24.2305 N.am    1  UNL1       -0.2626
      8 C           0.7397    1.0535   24.0491 C.3     1  UNL1        0.0964
      9 C          -0.0940    1.4741   25.2230 C.3     1  UNL1        0.0390
     10 C           0.7669    2.3026   26.1299 C.3     1  UNL1        0.0758
     11 C           2.1327    2.3941   25.5165 C.3     1  UNL1        0.1106
     12 C           4.1647    0.3864   21.0063 C.3     1  UNL1        0.1147
     13 C           5.3360   -2.0026   18.8163 C.2     1  UNL1        0.2491
     14 O           6.0422   -2.4976   17.5890 O.2     1  UNL1       -0.2699
     15 N           4.2693   -0.9550   18.6965 N.am    1  UNL1       -0.2742
     16 C           3.9086   -0.4024   17.3495 C.3     1  UNL1        0.1152
     17 C           6.4179   -3.6606   22.8574 C.ar    1  UNL1        0.0000
     18 C           7.4153   -2.8443   22.0902 C.ar    1  UNL1        0.0001
     19 C           7.0547   -2.2916   20.7431 C.ar    1  UNL1        0.0045
     20 C           5.6967   -2.5553   20.1633 C.ar    1  UNL1        0.0536
     21 C           4.6992   -3.3716   20.9306 C.ar    1  UNL1        0.0045
     22 C           5.0599   -3.9242   22.2777 C.ar    1  UNL1        0.0001
     23 C           7.4997   -5.3185   26.8986 C.ar    1  UNL1       -0.0222
     24 C           6.8010   -3.9954   26.7933 C.ar    1  UNL1       -0.0043
     25 C           6.4404   -3.4428   25.4463 C.ar    1  UNL1       -0.0003
     26 C           6.7785   -4.2132   24.2045 C.ar    1  UNL1       -0.0000
     27 C           7.4772   -5.5363   24.3098 C.ar    1  UNL1       -0.0003
     28 C           7.8379   -6.0890   25.6568 C.ar    1  UNL1       -0.0043
     29 C           6.9693   -5.6145   29.4246 C.3     1  UNL1        0.0050
     30 C           7.8604   -5.8712   28.2456 C.3     1  UNL1        0.0264
     31 N           0.3375    2.9296   27.4231 N.3     1  UNL1       -0.2982
     32 H          -0.6452    3.1813   27.3163 H       1  UNL1        0.1232
     33 C           0.4500    2.1579   28.7045 C.3     1  UNL1        0.0540
     34 C           0.7998    2.8674   29.9790 C.3     1  UNL1        0.0171
     35 C           0.2127    0.6768   28.7114 C.3     1  UNL1        0.0144
     36 C          -1.1848    0.1406   28.6156 C.3     1  UNL1        0.0014
     37 C           1.3732   -0.2681   28.8142 C.3     1  UNL1        0.0014
@<TRIPOS>BOND
     1    29    30    1
     2    30    23    1
     3    23    24   ar
     4    24    25   ar
     5    25    26   ar
     6    26    17    1
     7    17    18   ar
     8    18    19   ar
     9    19    20   ar
    10    20    13    1
    11    13    14    2
    12    13    15   am
    13    15    16    1
    14     1    15    1
    15     1     2    1
    16     2     3    1
    17     3     4    1
    18     4     5   am
    19     5     6    2
    20     5     7   am
    21     7     8    1
    22     8     9    1
    23     9    10    1
    24    10    31    1
    25    31    33    1
    26    33    34    1
    27    33    35    1
    28    35    36    1
    29    35    37    1
    30    10    11    1
    31     4    12    1
    32    20    21   ar
    33    21    22   ar
    34    26    27   ar
    35    27    28   ar
    36    28    23   ar
    37    22    17   ar
    38    12     1    1
    39    11     7    1
    40    31    32    1
@<TRIPOS>MOLECULE
*****
 37 40 0 0 0
SMALL
GASTEIGER

@<TRIPOS>ATOM
      1 C           4.5886   -0.1225   19.7995 C.3     1  UNL1        0.0972
      2 C           5.2857    0.3008   21.0583 C.3     1  UNL1        0.0431
      3 C           4.2381    0.6493   22.0737 C.3     1  UNL1        0.0968
      4 N           2.8933    0.4414   21.4423 N.am    1  UNL1       -0.2623
      5 C           1.5652    0.6703   22.1008 C.2     1  UNL1        0.3073
      6 O           0.2974    0.4182   21.3398 O.2     1  UNL1       -0.2523
      7 N           1.5049    1.1513   23.5203 N.am    1  UNL1       -0.2626
      8 C           2.6820    1.4449   24.4025 C.3     1  UNL1        0.0964
      9 C           2.1615    1.8982   25.7342 C.3     1  UNL1        0.0390
     10 C           0.6627    1.8848   25.6751 C.3     1  UNL1        0.0758
     11 C           0.2569    1.4232   24.3068 C.3     1  UNL1        0.1106
     12 C           3.1100   -0.0356   20.0367 C.3     1  UNL1        0.1147
     13 C           6.1781   -1.7375   18.5284 C.2     1  UNL1        0.2491
     14 O           6.8427   -2.1714   17.2557 O.2     1  UNL1       -0.2699
     15 N           5.2533   -0.5565   18.5267 N.am    1  UNL1       -0.2742
     16 C           4.9932    0.1906   17.2522 C.3     1  UNL1        0.1152
     17 C           6.9583   -3.9787   22.3518 C.ar    1  UNL1        0.0000
     18 C           5.6148   -4.0681   21.6908 C.ar    1  UNL1        0.0001
     19 C           5.3547   -3.3211   20.4163 C.ar    1  UNL1        0.0045
     20 C           6.4381   -2.4845   19.8029 C.ar    1  UNL1        0.0536
     21 C           7.7816   -2.3951   20.4639 C.ar    1  UNL1        0.0045
     22 C           8.0417   -3.1422   21.7383 C.ar    1  UNL1        0.0001
     23 C           7.7385   -6.2199   26.1752 C.ar    1  UNL1       -0.0222
     24 C           8.3005   -6.7273   24.8803 C.ar    1  UNL1       -0.0043
     25 C           8.0405   -5.9802   23.6059 C.ar    1  UNL1       -0.0003
     26 C           7.2184   -4.7257   23.6263 C.ar    1  UNL1       -0.0000
     27 C           6.6564   -4.2183   24.9211 C.ar    1  UNL1       -0.0003
     28 C           6.9165   -4.9654   26.1956 C.ar    1  UNL1       -0.0043
     29 C           7.7122   -6.3179   28.7713 C.3     1  UNL1        0.0050
     30 C           7.9986   -6.9669   27.4496 C.3     1  UNL1        0.0264
     31 N          -0.2670    2.2661   26.7887 N.3     1  UNL1       -0.2982
     32 H          -1.1585    1.8089   26.5975 H       1  UNL1        0.1232
     33 C           0.0906    1.9411   28.2087 C.3     1  UNL1        0.0540
     34 C           0.5838    3.0223   29.1241 C.3     1  UNL1        0.0171
     35 C          -0.0449    0.5352   28.7134 C.3     1  UNL1        0.0144
     36 C           1.1740   -0.2325   29.1315 C.3     1  UNL1        0.0014
     37 C          -1.3996   -0.1033   28.8001 C.3     1  UNL1        0.0014
@<TRIPOS>BOND
     1    29    30    1
     2    30    23    1
     3    23    24   ar
     4    24    25   ar
     5    25    26   ar
     6    26    17    1
     7    17    18   ar
     8    18    19   ar
     9    19    20   ar
    10    20    13    1
    11    13    14    2
    12    13    15   am
    13    15    16    1
    14     1    15    1
    15     1     2    1
    16     2     3    1
    17     3     4    1
    18     4     5   am
    19     5     6    2
    20     5     7   am
    21     7     8    1
    22     8     9    1
    23     9    10    1
    24    10    31    1
    25    31    33    1
    26    33    34    1
    27    33    35    1
    28    35    36    1
    29    35    37    1
    30    10    11    1
    31     4    12    1
    32    20    21   ar
    33    21    22   ar
    34    26    27   ar
    35    27    28   ar
    36    28    23   ar
    37    22    17   ar
    38    12     1    1
    39    11     7    1
    40    31    32    1
@<TRIPOS>MOLECULE
*****
 37 40 0 0 0
SMALL
GASTEIGER

@<TRIPOS>ATOM
      1 C          -0.9085    4.1970   23.8954 C.3     1  UNL1        0.0972
      2 C          -1.8606    3.2206   24.5199 C.3     1  UNL1        0.0431
      3 C          -1.1309    2.4949   25.6112 C.3     1  UNL1        0.0968
      4 N           0.2723    3.0229   25.6611 N.am    1  UNL1       -0.2623
      5 C           1.3490    2.5771   26.6056 C.2     1  UNL1        0.3073
      6 O           2.7119    3.1999   26.5369 O.2     1  UNL1       -0.2523
      7 N           1.0628    1.5086   27.6187 N.am    1  UNL1       -0.2626
      8 C          -0.2450    0.7979   27.8050 C.3     1  UNL1        0.0964
      9 C          -0.0820   -0.1867   28.9248 C.3     1  UNL1        0.0390
     10 C           1.3265   -0.0845   29.4305 C.3     1  UNL1        0.0758
     11 C           2.0340    0.9632   28.6233 C.3     1  UNL1        0.1106
     12 C           0.4097    4.0748   24.6007 C.3     1  UNL1        0.1147
     13 C          -0.7168    4.8316   21.3833 C.2     1  UNL1        0.2491
     14 O          -1.0282    5.7662   20.2521 O.2     1  UNL1       -0.2699
     15 N          -1.2199    5.1316   22.7641 N.am    1  UNL1       -0.2742
     16 C          -2.0344    6.3662   23.0138 C.3     1  UNL1        0.1152
     17 C           1.7268    1.1279   20.6342 C.ar    1  UNL1        0.0000
     18 C           2.4098    2.4278   20.9406 C.ar    1  UNL1        0.0001
     19 C           1.5952    3.6623   21.1903 C.ar    1  UNL1        0.0045
     20 C           0.0978    3.5971   21.1336 C.ar    1  UNL1        0.0536
     21 C          -0.5852    2.2972   20.8271 C.ar    1  UNL1        0.0045
     22 C           0.2294    1.0627   20.5774 C.ar    1  UNL1        0.0001
     23 C           4.1705   -2.5758   19.8850 C.ar    1  UNL1       -0.0222
     24 C           3.7868   -2.2010   21.2858 C.ar    1  UNL1       -0.0043
     25 C           2.9722   -0.9664   21.5355 C.ar    1  UNL1       -0.0003
     26 C           2.5414   -0.1066   20.3845 C.ar    1  UNL1       -0.0000
     27 C           2.9251   -0.4814   18.9837 C.ar    1  UNL1       -0.0003
     28 C           3.7396   -1.7160   18.7339 C.ar    1  UNL1       -0.0043
     29 C           4.3860   -4.9661   18.8901 C.3     1  UNL1        0.0050
     30 C           4.9850   -3.8104   19.6353 C.3     1  UNL1        0.0264
     31 N           1.9229   -0.8889   30.5474 N.3     1  UNL1       -0.2982
     32 H           2.1000   -1.8222   30.1760 H       1  UNL1        0.1232
     33 C           3.1935   -0.4353   31.2028 C.3     1  UNL1        0.0540
     34 C           4.5191   -0.8207   30.6160 C.3     1  UNL1        0.0171
     35 C           3.1387    0.4037   32.4450 C.3     1  UNL1        0.0144
     36 C           2.2568    1.6161   32.4930 C.3     1  UNL1        0.0014
     37 C           3.9658    0.0302   33.6394 C.3     1  UNL1        0.0014
@<TRIPOS>BOND
     1    29    30    1
     2    30    23    1
     3    23    24   ar
     4    24    25   ar
     5    25    26   ar
     6    26    17    1
     7    17    18   ar
     8    18    19   ar
     9    19    20   ar
    10    20    13    1
    11    13    14    2
    12    13    15   am
    13    15    16    1
    14     1    15    1
    15     1     2    1
    16     2     3    1
    17     3     4    1
    18     4     5   am
    19     5     6    2
    20     5     7   am
    21     7     8    1
    22     8     9    1
    23     9    10    1
    24    10    31    1
    25    31    33    1
    26    33    34    1
    27    33    35    1
    28    35    36    1
    29    35    37    1
    30    10    11    1
    31     4    12    1
    32    20    21   ar
    33    21    22   ar
    34    26    27   ar
    35    27    28   ar
    36    28    23   ar
    37    22    17   ar
    38    12     1    1
    39    11     7    1
    40    31    32    1
@<TRIPOS>MOLECULE
*****
 37 40 0 0 0
SMALL
GASTEIGER

@<TRIPOS>ATOM
      1 C           3.8040    1.8057   34.0749 C.3     1  UNL1        0.0972
      2 C           4.7264    2.4242   33.0666 C.3     1  UNL1        0.0431
      3 C           3.9510    2.6416   31.8011 C.3     1  UNL1        0.0968
      4 N           2.5494    2.1574   32.0272 N.am    1  UNL1       -0.2623
      5 C           1.4344    2.1851   31.0242 C.2     1  UNL1        0.3073
      6 O           0.0781    1.6633   31.3960 O.2     1  UNL1       -0.2523
      7 N           1.6757    2.7345   29.6495 N.am    1  UNL1       -0.2626
      8 C           2.9720    3.2882   29.1363 C.3     1  UNL1        0.0964
      9 C           2.7606    3.7226   27.7162 C.3     1  UNL1        0.0390
     10 C           1.3338    3.4372   27.3517 C.3     1  UNL1        0.0758
     11 C           0.6633    2.8266   28.5465 C.3     1  UNL1        0.1106
     12 C           2.4585    1.6409   33.4325 C.3     1  UNL1        0.1147
     13 C           4.9220    0.1517   35.7375 C.2     1  UNL1        0.2491
     14 O           5.2818   -0.2341   37.1416 O.2     1  UNL1       -0.2699
     15 N           4.1638    1.4199   35.4791 N.am    1  UNL1       -0.2742
     16 C           3.7654    2.3022   36.6248 C.3     1  UNL1        0.1152
     17 C           6.1172   -2.4954   32.3003 C.ar    1  UNL1        0.0000
     18 C           4.7492   -2.6202   32.9026 C.ar    1  UNL1        0.0001
     19 C           4.3508   -1.7378   34.0483 C.ar    1  UNL1        0.0045
     20 C           5.3204   -0.7307   34.5917 C.ar    1  UNL1        0.0536
     21 C           6.6885   -0.6059   33.9894 C.ar    1  UNL1        0.0045
     22 C           7.0869   -1.4882   32.8437 C.ar    1  UNL1        0.0001
     23 C           7.3124   -5.1425   28.8630 C.ar    1  UNL1       -0.0222
     24 C           7.2899   -5.6905   30.2591 C.ar    1  UNL1       -0.0043
     25 C           6.8915   -4.8081   31.4049 C.ar    1  UNL1       -0.0003
     26 C           6.5156   -3.3777   31.1545 C.ar    1  UNL1       -0.0000
     27 C           6.5382   -2.8297   29.7584 C.ar    1  UNL1       -0.0003
     28 C           6.9366   -3.7121   28.6127 C.ar    1  UNL1       -0.0043
     29 C           6.7080   -6.3792   26.6596 C.3     1  UNL1        0.0050
     30 C           7.7108   -6.0248   27.7173 C.3     1  UNL1        0.0264
     31 N           0.6903    3.7140   26.0253 N.3     1  UNL1       -0.2982
     32 H           1.4375    3.7189   25.3309 H       1  UNL1        0.1232
     33 C          -0.3786    2.7994   25.5049 C.3     1  UNL1        0.0540
     34 C          -0.0432    1.3824   25.1446 C.3     1  UNL1        0.0171
     35 C          -1.7828    3.3016   25.3447 C.3     1  UNL1        0.0144
     36 C          -2.6631    3.4645   26.5482 C.3     1  UNL1        0.0014
     37 C          -2.3069    3.6411   23.9807 C.3     1  UNL1        0.0014
@<TRIPOS>BOND
     1    29    30    1
     2    30    23    1
     3    23    24   ar
     4    24    25   ar
     5    25    26   ar
     6    26    17    1
     7    17    18   ar
     8    18    19   ar
     9    19    20   ar
    10    20    13    1
    11    13    14    2
    12    13    15   am
    13    15    16    1
    14     1    15    1
    15     1     2    1
    16     2     3    1
    17     3     4    1
    18     4     5   am
    19     5     6    2
    20     5     7   am
    21     7     8    1
    22     8     9    1
    23     9    10    1
    24    10    31    1
    25    31    33    1
    26    33    34    1
    27    33    35    1
    28    35    36    1
    29    35    37    1
    30    10    11    1
    31     4    12    1
    32    20    21   ar
    33    21    22   ar
    34    26    27   ar
    35    27    28   ar
    36    28    23   ar
    37    22    17   ar
    38    12     1    1
    39    11     7    1
    40    31    32    1
@<TRIPOS>MOLECULE
*****
 37 40 0 0 0
SMALL
GASTEIGER

@<TRIPOS>ATOM
      1 C           3.3455    0.4899   28.9552 C.3     1  UNL1        0.0972
      2 C           3.1110   -0.9027   28.4494 C.3     1  UNL1        0.0431
      3 C           3.5185   -0.9466   27.0065 C.3     1  UNL1        0.0968
      4 N           4.0048    0.4189   26.6204 N.am    1  UNL1       -0.2623
      5 C           4.5094    0.8253   25.2676 C.2     1  UNL1        0.3073
      6 O           4.9648    2.2345   25.0292 O.2     1  UNL1       -0.2523
      7 N           4.5586   -0.1775   24.1532 N.am    1  UNL1       -0.2626
      8 C           4.1392   -1.6150   24.2414 C.3     1  UNL1        0.0964
      9 C           4.3573   -2.2449   22.8977 C.3     1  UNL1        0.0390
     10 C           4.9115   -1.1967   21.9789 C.3     1  UNL1        0.0758
     11 C           5.0360    0.0810   22.7549 C.3     1  UNL1        0.1106
     12 C           3.8979    1.3067   27.8248 C.3     1  UNL1        0.1147
     13 C           1.8605    1.8147   30.6255 C.2     1  UNL1        0.2491
     14 O           1.5901    2.3045   32.0172 O.2     1  UNL1       -0.2699
     15 N           3.0751    0.9797   30.3470 N.am    1  UNL1       -0.2742
     16 C           4.0193    0.6345   31.4602 C.3     1  UNL1        0.1152
     17 C          -0.9721    2.8503   27.2857 C.ar    1  UNL1        0.0000
     18 C          -0.9996    1.4798   27.8946 C.ar    1  UNL1        0.0001
     19 C          -0.0554    1.1346   29.0079 C.ar    1  UNL1        0.0045
     20 C           0.9163    2.1599   29.5122 C.ar    1  UNL1        0.0536
     21 C           0.9438    3.5304   28.9033 C.ar    1  UNL1        0.0045
     22 C          -0.0004    3.8756   27.7900 C.ar    1  UNL1        0.0001
     23 C          -3.8047    3.8859   23.9460 C.ar    1  UNL1       -0.0222
     24 C          -2.3763    3.5456   23.6395 C.ar    1  UNL1       -0.0043
     25 C          -1.4321    3.2004   24.7528 C.ar    1  UNL1       -0.0003
     26 C          -1.9163    3.1955   26.1725 C.ar    1  UNL1       -0.0000
     27 C          -3.3446    3.5358   26.4789 C.ar    1  UNL1       -0.0003
     28 C          -4.2888    3.8810   25.3656 C.ar    1  UNL1       -0.0043
     29 C          -5.0222    3.2350   21.7451 C.3     1  UNL1        0.0050
     30 C          -4.7489    4.2311   22.8327 C.3     1  UNL1        0.0264
     31 N           5.2771   -1.3918   20.5373 N.3     1  UNL1       -0.2982
     32 H           6.0204   -2.0900   20.5140 H       1  UNL1        0.1232
     33 C           4.2357   -1.8348   19.5528 C.3     1  UNL1        0.0540
     34 C           4.3566   -3.1722   18.8842 C.3     1  UNL1        0.0171
     35 C           3.0736   -0.9407   19.2369 C.3     1  UNL1        0.0144
     36 C           3.1507    0.0083   18.0779 C.3     1  UNL1        0.0014
     37 C           1.8342   -0.9955   20.0802 C.3     1  UNL1        0.0014
@<TRIPOS>BOND
     1    29    30    1
     2    30    23    1
     3    23    24   ar
     4    24    25   ar
     5    25    26   ar
     6    26    17    1
     7    17    18   ar
     8    18    19   ar
     9    19    20   ar
    10    20    13    1
    11    13    14    2
    12    13    15   am
    13    15    16    1
    14     1    15    1
    15     1     2    1
    16     2     3    1
    17     3     4    1
    18     4     5   am
    19     5     6    2
    20     5     7   am
    21     7     8    1
    22     8     9    1
    23     9    10    1
    24    10    31    1
    25    31    33    1
    26    33    34    1
    27    33    35    1
    28    35    36    1
    29    35    37    1
    30    10    11    1
    31     4    12    1
    32    20    21   ar
    33    21    22   ar
    34    26    27   ar
    35    27    28   ar
    36    28    23   ar
    37    22    17   ar
    38    12     1    1
    39    11     7    1
    40    31    32    1
@<TRIPOS>MOLECULE
*****
 37 40 0 0 0
SMALL
GASTEIGER

@<TRIPOS>ATOM
      1 C           1.2140    3.3781   18.3055 C.3     1  UNL1        0.0972
      2 C           0.5285    2.0448   18.2570 C.3     1  UNL1        0.0431
      3 C           1.5429    0.9899   18.5857 C.3     1  UNL1        0.0968
      4 N           2.8554    1.6712   18.8373 N.am    1  UNL1       -0.2623
      5 C           4.1448    0.9952   19.1987 C.2     1  UNL1        0.3073
      6 O           5.3831    1.8119   19.4213 O.2     1  UNL1       -0.2523
      7 N           4.1958   -0.4975   19.3373 N.am    1  UNL1       -0.2626
      8 C           3.0451   -1.4406   19.1460 C.3     1  UNL1        0.0964
      9 C           3.5446   -2.8352   19.3821 C.3     1  UNL1        0.0390
     10 C           5.0039   -2.7539   19.7193 C.3     1  UNL1        0.0758
     11 C           5.4064   -1.3092   19.6916 C.3     1  UNL1        0.1106
     12 C           2.6521    3.1472   18.6642 C.3     1  UNL1        0.1147
     13 C          -0.1811    5.4075   19.1334 C.2     1  UNL1        0.2491
     14 O          -0.8212    6.7381   18.8695 O.2     1  UNL1       -0.2699
     15 N           0.5738    4.7088   18.0417 N.am    1  UNL1       -0.2742
     16 C           0.6886    5.3407   16.6861 C.3     1  UNL1        0.1152
     17 C          -0.5254    3.5119   23.2000 C.ar    1  UNL1        0.0000
     18 C          -1.5636    3.2353   22.1533 C.ar    1  UNL1        0.0001
     19 C          -1.4488    3.8672   20.7977 C.ar    1  UNL1        0.0045
     20 C          -0.2959    4.7757   20.4889 C.ar    1  UNL1        0.0536
     21 C           0.7423    5.0522   21.5357 C.ar    1  UNL1        0.0045
     22 C           0.6275    4.4203   22.8912 C.ar    1  UNL1        0.0001
     23 C          -0.8698    1.6162   27.2667 C.ar    1  UNL1       -0.0222
     24 C          -1.7623    2.7634   26.8960 C.ar    1  UNL1       -0.0043
     25 C          -1.6475    3.3952   25.5404 C.ar    1  UNL1       -0.0003
     26 C          -0.6402    2.8800   24.5556 C.ar    1  UNL1       -0.0000
     27 C           0.2523    1.7329   24.9264 C.ar    1  UNL1       -0.0003
     28 C           0.1375    1.1010   26.2819 C.ar    1  UNL1       -0.0043
     29 C          -1.3493   -0.4654   28.7455 C.3     1  UNL1        0.0050
     30 C          -0.9846    0.9843   28.6223 C.3     1  UNL1        0.0264
     31 N           5.9030   -3.9138   20.0297 N.3     1  UNL1       -0.2982
     32 H           6.3846   -4.1532   19.1630 H       1  UNL1        0.1232
     33 C           6.9570   -3.7832   21.0889 C.3     1  UNL1        0.0540
     34 C           8.3601   -3.4128   20.7091 C.3     1  UNL1        0.0171
     35 C           6.6081   -4.0231   22.5279 C.3     1  UNL1        0.0144
     36 C           5.3003   -3.5323   23.0745 C.3     1  UNL1        0.0014
     37 C           7.5671   -4.7538   23.4204 C.3     1  UNL1        0.0014
@<TRIPOS>BOND
     1    29    30    1
     2    30    23    1
     3    23    24   ar
     4    24    25   ar
     5    25    26   ar
     6    26    17    1
     7    17    18   ar
     8    18    19   ar
     9    19    20   ar
    10    20    13    1
    11    13    14    2
    12    13    15   am
    13    15    16    1
    14     1    15    1
    15     1     2    1
    16     2     3    1
    17     3     4    1
    18     4     5   am
    19     5     6    2
    20     5     7   am
    21     7     8    1
    22     8     9    1
    23     9    10    1
    24    10    31    1
    25    31    33    1
    26    33    34    1
    27    33    35    1
    28    35    36    1
    29    35    37    1
    30    10    11    1
    31     4    12    1
    32    20    21   ar
    33    21    22   ar
    34    26    27   ar
    35    27    28   ar
    36    28    23   ar
    37    22    17   ar
    38    12     1    1
    39    11     7    1
    40    31    32    1
@<TRIPOS>MOLECULE
*****
 37 40 0 0 0
SMALL
GASTEIGER

@<TRIPOS>ATOM
      1 C           3.0731    1.8920   27.2743 C.3     1  UNL1        0.0972
      2 C           2.7648    2.7298   26.0689 C.3     1  UNL1        0.0431
      3 C           2.9055    1.8625   24.8533 C.3     1  UNL1        0.0968
      4 N           3.3009    0.4885   25.3074 N.am    1  UNL1       -0.2623
      5 C           3.5490   -0.6957   24.4208 C.2     1  UNL1        0.3073
      6 O           3.9401   -2.0134   25.0215 O.2     1  UNL1       -0.2523
      7 N           3.4061   -0.5623   22.9336 N.am    1  UNL1       -0.2626
      8 C           3.0235    0.6849   22.1930 C.3     1  UNL1        0.0964
      9 C           3.0016    0.3654   20.7276 C.3     1  UNL1        0.0390
     10 C           3.3707   -1.0791   20.5625 C.3     1  UNL1        0.0758
     11 C           3.6207   -1.6524   21.9259 C.3     1  UNL1        0.1106
     12 C           3.4044    0.5068   26.8036 C.3     1  UNL1        0.1147
     13 C           1.8212    3.0025   29.2617 C.2     1  UNL1        0.2491
     14 O           1.8017    3.4681   30.6875 O.2     1  UNL1       -0.2699
     15 N           3.0535    2.3576   28.7002 N.am    1  UNL1       -0.2742
     16 C           4.2664    2.1783   29.5644 C.3     1  UNL1        0.1152
     17 C          -1.8173    3.5406   26.6691 C.ar    1  UNL1        0.0000
     18 C          -1.4203    2.1692   27.1290 C.ar    1  UNL1        0.0001
     19 C          -0.2074    1.9899   27.9932 C.ar    1  UNL1        0.0045
     20 C           0.6084    3.1819   28.3975 C.ar    1  UNL1        0.0536
     21 C           0.2113    4.5533   27.9375 C.ar    1  UNL1        0.0045
     22 C          -1.0015    4.7326   27.0733 C.ar    1  UNL1        0.0001
     23 C          -5.4558    4.0787   24.0764 C.ar    1  UNL1       -0.0222
     24 C          -4.1889    3.5332   23.4871 C.ar    1  UNL1       -0.0043
     25 C          -2.9761    3.3538   24.3513 C.ar    1  UNL1       -0.0003
     26 C          -3.0301    3.7200   25.8049 C.ar    1  UNL1       -0.0000
     27 C          -4.2970    4.2654   26.3942 C.ar    1  UNL1       -0.0003
     28 C          -5.5099    4.4448   25.5300 C.ar    1  UNL1       -0.0043
     29 C          -8.0105    4.4890   23.8415 C.3     1  UNL1        0.0050
     30 C          -6.6686    4.2580   23.2122 C.3     1  UNL1        0.0264
     31 N           3.4720   -1.8202   19.2623 N.3     1  UNL1       -0.2982
     32 H           3.8829   -1.1754   18.5871 H       1  UNL1        0.1232
     33 C           4.2635   -3.0920   19.1837 C.3     1  UNL1        0.0540
     34 C           3.5590   -4.4036   19.0009 C.3     1  UNL1        0.0171
     35 C           5.7593   -3.0522   19.2878 C.3     1  UNL1        0.0144
     36 C           6.5670   -2.3637   18.2278 C.3     1  UNL1        0.0014
     37 C           6.4475   -3.7011   20.4520 C.3     1  UNL1        0.0014
@<TRIPOS>BOND
     1    29    30    1
     2    30    23    1
     3    23    24   ar
     4    24    25   ar
     5    25    26   ar
     6    26    17    1
     7    17    18   ar
     8    18    19   ar
     9    19    20   ar
    10    20    13    1
    11    13    14    2
    12    13    15   am
    13    15    16    1
    14     1    15    1
    15     1     2    1
    16     2     3    1
    17     3     4    1
    18     4     5   am
    19     5     6    2
    20     5     7   am
    21     7     8    1
    22     8     9    1
    23     9    10    1
    24    10    31    1
    25    31    33    1
    26    33    34    1
    27    33    35    1
    28    35    36    1
    29    35    37    1
    30    10    11    1
    31     4    12    1
    32    20    21   ar
    33    21    22   ar
    34    26    27   ar
    35    27    28   ar
    36    28    23   ar
    37    22    17   ar
    38    12     1    1
    39    11     7    1
    40    31    32    1
@<TRIPOS>MOLECULE
*****
 37 40 0 0 0
SMALL
GASTEIGER

@<TRIPOS>ATOM
      1 C           1.2083    3.8291   27.2263 C.3     1  UNL1        0.0972
      2 C           2.7039    3.8446   27.3403 C.3     1  UNL1        0.0431
      3 C           3.1129    2.7070   28.2283 C.3     1  UNL1        0.0968
      4 N           1.8701    1.9884   28.6632 N.am    1  UNL1       -0.2623
      5 C           1.8142    0.7873   29.5599 C.2     1  UNL1        0.3073
      6 O           0.4910    0.1733   29.9096 O.2     1  UNL1       -0.2523
      7 N           3.0814    0.2001   30.1070 N.am    1  UNL1       -0.2626
      8 C           4.4705    0.7029   29.8463 C.3     1  UNL1        0.0964
      9 C           5.4297   -0.1794   30.5890 C.3     1  UNL1        0.0390
     10 C           4.6335   -1.2274   31.3086 C.3     1  UNL1        0.0758
     11 C           3.1822   -0.9928   31.0107 C.3     1  UNL1        0.1106
     12 C           0.6930    2.6819   28.0439 C.3     1  UNL1        0.1147
     13 C           0.1603    4.5670   24.9664 C.2     1  UNL1        0.2491
     14 O          -0.6736    5.5296   24.1740 O.2     1  UNL1       -0.2699
     15 N           0.3744    4.7918   26.4339 N.am    1  UNL1       -0.2742
     16 C          -0.2454    5.9792   27.1090 C.3     1  UNL1        0.1152
     17 C           2.0198    1.0046   22.9410 C.ar    1  UNL1        0.0000
     18 C           0.7204    0.8562   23.6754 C.ar    1  UNL1        0.0001
     19 C           0.1005    2.0437   24.3505 C.ar    1  UNL1        0.0045
     20 C           0.7802    3.3795   24.2912 C.ar    1  UNL1        0.0536
     21 C           2.0796    3.5279   23.5568 C.ar    1  UNL1        0.0045
     22 C           2.6994    2.3405   22.8817 C.ar    1  UNL1        0.0001
     23 C           3.8793   -2.5577   20.9156 C.ar    1  UNL1       -0.0222
     24 C           4.1335   -2.3058   22.3723 C.ar    1  UNL1       -0.0043
     25 C           3.5136   -1.1183   23.0474 C.ar    1  UNL1       -0.0003
     26 C           2.6396   -0.1828   22.2659 C.ar    1  UNL1       -0.0000
     27 C           2.3854   -0.4347   20.8092 C.ar    1  UNL1       -0.0003
     28 C           3.0053   -1.6222   20.1341 C.ar    1  UNL1       -0.0043
     29 C           3.6936   -4.5651   19.2768 C.3     1  UNL1        0.0050
     30 C           4.4991   -3.7451   20.2405 C.3     1  UNL1        0.0264
     31 N           5.1907   -2.3184   32.1741 N.3     1  UNL1       -0.2982
     32 H           4.5457   -3.1057   32.1072 H       1  UNL1        0.1232
     33 C           6.5639   -2.8597   31.9074 C.3     1  UNL1        0.0540
     34 C           7.7520   -2.2689   32.6072 C.3     1  UNL1        0.0171
     35 C           6.7493   -3.9917   30.9409 C.3     1  UNL1        0.0144
     36 C           6.6911   -3.7345   29.4643 C.3     1  UNL1        0.0014
     37 C           6.9929   -5.3812   31.4511 C.3     1  UNL1        0.0014
@<TRIPOS>BOND
     1    29    30    1
     2    30    23    1
     3    23    24   ar
     4    24    25   ar
     5    25    26   ar
     6    26    17    1
     7    17    18   ar
     8    18    19   ar
     9    19    20   ar
    10    20    13    1
    11    13    14    2
    12    13    15   am
    13    15    16    1
    14     1    15    1
    15     1     2    1
    16     2     3    1
    17     3     4    1
    18     4     5   am
    19     5     6    2
    20     5     7   am
    21     7     8    1
    22     8     9    1
    23     9    10    1
    24    10    31    1
    25    31    33    1
    26    33    34    1
    27    33    35    1
    28    35    36    1
    29    35    37    1
    30    10    11    1
    31     4    12    1
    32    20    21   ar
    33    21    22   ar
    34    26    27   ar
    35    27    28   ar
    36    28    23   ar
    37    22    17   ar
    38    12     1    1
    39    11     7    1
    40    31    32    1
@<TRIPOS>MOLECULE
*****
 37 40 0 0 0
SMALL
GASTEIGER

@<TRIPOS>ATOM
      1 C          -0.0670    4.5319   24.5488 C.3     1  UNL1        0.0972
      2 C           1.3961    4.3650   24.8341 C.3     1  UNL1        0.0431
      3 C           1.5418    3.3545   25.9330 C.3     1  UNL1        0.0968
      4 N           0.1686    2.8968   26.3270 N.am    1  UNL1       -0.2623
      5 C          -0.1536    1.8885   27.3897 C.2     1  UNL1        0.3073
      6 O          -1.5818    1.5289   27.6740 O.2     1  UNL1       -0.2523
      7 N           0.9524    1.2399   28.1682 N.am    1  UNL1       -0.2626
      8 C           2.4202    1.4976   27.9965 C.3     1  UNL1        0.0964
      9 C           3.1597    0.6366   28.9772 C.3     1  UNL1        0.0390
     10 C           2.1491   -0.1532   29.7550 C.3     1  UNL1        0.0758
     11 C           0.7849    0.2197   29.2550 C.3     1  UNL1        0.1106
     12 C          -0.8256    3.6245   25.4715 C.3     1  UNL1        0.1147
     13 C          -0.5253    5.1286   22.0621 C.2     1  UNL1        0.2491
     14 O          -1.1247    6.0424   21.0346 O.2     1  UNL1       -0.2699
     15 N          -0.6664    5.4457   23.5213 N.am    1  UNL1       -0.2742
     16 C          -1.4069    6.6767   23.9531 C.3     1  UNL1        0.1152
     17 C           1.6961    1.4357   20.7666 C.ar    1  UNL1        0.0000
     18 C           0.2355    1.3547   21.0983 C.ar    1  UNL1        0.0001
     19 C          -0.5050    2.5857   21.5301 C.ar    1  UNL1        0.0045
     20 C           0.2152    3.8976   21.6302 C.ar    1  UNL1        0.0536
     21 C           1.6757    3.9787   21.2986 C.ar    1  UNL1        0.0045
     22 C           2.4162    2.7477   20.8667 C.ar    1  UNL1        0.0001
     23 C           3.9174   -2.2571   19.4711 C.ar    1  UNL1       -0.0222
     24 C           3.4653   -2.1144   20.8942 C.ar    1  UNL1       -0.0043
     25 C           2.7248   -0.8835   21.3260 C.ar    1  UNL1       -0.0003
     26 C           2.4365    0.2048   20.3348 C.ar    1  UNL1       -0.0000
     27 C           2.8887    0.0621   18.9117 C.ar    1  UNL1       -0.0003
     28 C           3.6292   -1.1689   18.4799 C.ar    1  UNL1       -0.0043
     29 C           4.0135   -4.8361   19.1716 C.3     1  UNL1        0.0050
     30 C           4.6579   -3.4881   19.0393 C.3     1  UNL1        0.0264
     31 N           2.4498   -1.1422   30.8419 N.3     1  UNL1       -0.2982
     32 H           2.6490   -2.0315   30.3839 H       1  UNL1        0.1232
     33 C           3.5764   -0.8858   31.7984 C.3     1  UNL1        0.0540
     34 C           3.4547    0.1994   32.8269 C.3     1  UNL1        0.0171
     35 C           4.8246   -1.7144   31.7267 C.3     1  UNL1        0.0144
     36 C           5.2101   -2.5915   32.8808 C.3     1  UNL1        0.0014
     37 C           5.6875   -1.6660   30.5006 C.3     1  UNL1        0.0014
@<TRIPOS>BOND
     1    29    30    1
     2    30    23    1
     3    23    24   ar
     4    24    25   ar
     5    25    26   ar
     6    26    17    1
     7    17    18   ar
     8    18    19   ar
     9    19    20   ar
    10    20    13    1
    11    13    14    2
    12    13    15   am
    13    15    16    1
    14     1    15    1
    15     1     2    1
    16     2     3    1
    17     3     4    1
    18     4     5   am
    19     5     6    2
    20     5     7   am
    21     7     8    1
    22     8     9    1
    23     9    10    1
    24    10    31    1
    25    31    33    1
    26    33    34    1
    27    33    35    1
    28    35    36    1
    29    35    37    1
    30    10    11    1
    31     4    12    1
    32    20    21   ar
    33    21    22   ar
    34    26    27   ar
    35    27    28   ar
    36    28    23   ar
    37    22    17   ar
    38    12     1    1
    39    11     7    1
    40    31    32    1
