@<TRIPOS>MOLECULE
*****
 38 42 0 0 0
SMALL
GASTEIGER

@<TRIPOS>ATOM
      1 C           0.9911    0.8933   21.5560 C.3     1  UNL1        0.1083
      2 C           0.3224    1.5775   20.4007 C.3     1  UNL1        0.0456
      3 C          -0.6681    2.6758   20.6508 C.3     1  UNL1        0.0902
      4 N          -0.9899    3.0899   22.0561 N.pl3   1  UNL1       -0.3181
      5 C          -0.3212    2.4058   23.2114 C.ar    1  UNL1        0.1311
      6 C          -0.4368    2.5969   24.6946 C.ar    1  UNL1        0.1034
      7 C           0.4823    1.6167   25.3613 C.ar    1  UNL1        0.1080
      8 N           1.1659    0.8198   24.2901 N.ar    1  UNL1       -0.1681
      9 N           0.6693    1.3075   22.9613 N.ar    1  UNL1       -0.2397
     10 H          -1.6400    3.8108   22.2202 H       1  UNL1        0.1482
     11 C           4.9533   -3.5000   20.5562 C.2     1  UNL1        0.2492
     12 O           5.7791   -4.0370   21.6875 O.2     1  UNL1       -0.2699
     13 N           3.9628   -2.4017   20.8061 N.am    1  UNL1       -0.2761
     14 C           3.1371   -1.8647   19.6749 C.3     1  UNL1        0.0938
     15 C           2.1465   -0.7663   19.9248 C.3     1  UNL1        0.0235
     16 C           1.9817   -0.2050   21.3060 C.3     1  UNL1        0.0260
     17 C           2.8074   -0.7420   22.4373 C.3     1  UNL1        0.0235
     18 C           3.7980   -1.8404   22.1874 C.3     1  UNL1        0.0938
     19 C           4.4148   -5.3297   18.7920 C.2     1  UNL1        0.0048
     20 C           5.1181   -4.0613   19.1750 C.2     1  UNL1        0.0579
     21 C           0.6826    1.4609   26.8398 C.ar    1  UNL1        0.0198
     22 C           1.9728    1.8924   27.4714 C.ar    1  UNL1        0.0047
     23 C           2.1730    1.7365   28.9498 C.ar    1  UNL1        0.0375
     24 C           1.0830    1.1491   29.7965 C.ar    1  UNL1        0.1453
     25 C          -0.2072    0.7176   29.1648 C.ar    1  UNL1        0.0375
     26 C          -0.4074    0.8734   27.6864 C.ar    1  UNL1        0.0047
     27 O           1.2833    0.9932   31.2749 O.3     1  UNL1       -0.4535
     28 C           1.2108    2.1930   32.1722 C.ar    1  UNL1        0.1453
     29 C           0.3315    3.3517   31.8056 C.ar    1  UNL1        0.0375
     30 C           0.2590    4.5515   32.7029 C.ar    1  UNL1        0.0031
     31 C           1.0659    4.5927   33.9668 C.ar    1  UNL1        0.0002
     32 C           1.9452    3.4341   34.3333 C.ar    1  UNL1        0.0031
     33 C           2.0177    2.2342   33.4360 C.ar    1  UNL1        0.0375
     34 C          -1.3170    3.5933   25.3892 C.2     1  UNL1        0.2470
     35 N          -2.8072    3.5095   25.2408 N.am    1  UNL1       -0.3252
     36 O          -0.7069    4.6736   26.2323 O.2     1  UNL1       -0.2702
     37 H          -3.2077    2.8004   24.6874 H       1  UNL1        0.1453
     38 H          -3.3849    4.1634   25.6967 H       1  UNL1        0.1453
@<TRIPOS>BOND
     1    19    20    2
     2    20    11    1
     3    11    12    2
     4    11    13   am
     5    13    14    1
     6    14    15    1
     7    15    16    1
     8     1    16    1
     9     1     2    1
    10     2     3    1
    11     3     4    1
    12     4     5    1
    13     5     6   ar
    14     6    34    1
    15    34    35   am
    16    34    36    2
    17     6     7   ar
    18     7    21    1
    19    21    22   ar
    20    22    23   ar
    21    23    24   ar
    22    24    27    1
    23    27    28    1
    24    28    29   ar
    25    29    30   ar
    26    30    31   ar
    27    31    32   ar
    28    32    33   ar
    29    24    25   ar
    30    25    26   ar
    31     7     8   ar
    32     8     9   ar
    33    16    17    1
    34    17    18    1
    35    18    13    1
    36     9     1    1
    37     9     5   ar
    38    26    21   ar
    39    33    28   ar
    40     4    10    1
    41    35    37    1
    42    35    38    1
@<TRIPOS>MOLECULE
*****
 38 42 0 0 0
SMALL
GASTEIGER

@<TRIPOS>ATOM
      1 C          -1.5024    3.1785   26.2595 C.3     1  UNL1        0.1083
      2 C          -2.7011    3.9937   26.6449 C.3     1  UNL1        0.0456
      3 C          -3.5688    4.6001   25.5821 C.3     1  UNL1        0.0902
      4 N          -3.2377    4.3914   24.1341 N.pl3   1  UNL1       -0.3181
      5 C          -2.0390    3.5762   23.7488 C.ar    1  UNL1        0.1311
      6 C          -1.4671    3.2013   22.4137 C.ar    1  UNL1        0.1034
      7 C          -0.2460    2.3631   22.6513 C.ar    1  UNL1        0.1080
      8 N          -0.0632    2.2200   24.1332 N.ar    1  UNL1       -0.1681
      9 N          -1.1714    2.9697   24.8115 N.ar    1  UNL1       -0.2397
     10 H          -3.8072    4.7894   23.4366 H       1  UNL1        0.1482
     11 C           1.9683    0.7525   30.5103 C.2     1  UNL1        0.2492
     12 O           2.0869   -0.7387   30.6211 O.2     1  UNL1       -0.2699
     13 N           1.1006    1.3590   29.4477 N.am    1  UNL1       -0.2761
     14 C           0.9820    2.8502   29.3369 C.3     1  UNL1        0.0938
     15 C           0.1143    3.4567   28.2742 C.3     1  UNL1        0.0235
     16 C          -0.6347    2.5720   27.3223 C.3     1  UNL1        0.0260
     17 C          -0.5161    1.0808   27.4330 C.3     1  UNL1        0.0235
     18 C           0.3515    0.4743   28.4956 C.3     1  UNL1        0.0938
     19 C           2.1396    1.9458   32.8118 C.2     1  UNL1        0.0048
     20 C           2.7173    1.6372   31.4623 C.2     1  UNL1        0.0579
     21 C           0.6373    1.7719   21.5928 C.ar    1  UNL1        0.0198
     22 C           0.0577    0.8497   20.5615 C.ar    1  UNL1        0.0047
     23 C           0.9410    0.2586   19.5030 C.ar    1  UNL1        0.0375
     24 C           2.4037    0.5896   19.4759 C.ar    1  UNL1        0.1453
     25 C           2.9833    1.5118   20.5072 C.ar    1  UNL1        0.0375
     26 C           2.1000    2.1030   21.5656 C.ar    1  UNL1        0.0047
     27 O           3.2870   -0.0016   18.4173 O.3     1  UNL1       -0.4535
     28 C           3.9124   -1.3485   18.6286 C.ar    1  UNL1        0.1453
     29 C           5.2346   -1.6689   17.9969 C.ar    1  UNL1        0.0375
     30 C           5.8600   -3.0158   18.2082 C.ar    1  UNL1        0.0031
     31 C           5.1631   -4.0424   19.0512 C.ar    1  UNL1        0.0002
     32 C           3.8409   -3.7220   19.6828 C.ar    1  UNL1        0.0031
     33 C           3.2155   -2.3750   19.4715 C.ar    1  UNL1        0.0375
     34 C          -2.0193    3.5954   21.0759 C.2     1  UNL1        0.2470
     35 N          -3.2164    2.8831   20.5193 N.am    1  UNL1       -0.3252
     36 O          -1.3747    4.7017   20.2947 O.2     1  UNL1       -0.2702
     37 H          -3.6395    2.1569   21.0320 H       1  UNL1        0.1453
     38 H          -3.5788    3.1418   19.6413 H       1  UNL1        0.1453
@<TRIPOS>BOND
     1    19    20    2
     2    20    11    1
     3    11    12    2
     4    11    13   am
     5    13    14    1
     6    14    15    1
     7    15    16    1
     8     1    16    1
     9     1     2    1
    10     2     3    1
    11     3     4    1
    12     4     5    1
    13     5     6   ar
    14     6    34    1
    15    34    35   am
    16    34    36    2
    17     6     7   ar
    18     7    21    1
    19    21    22   ar
    20    22    23   ar
    21    23    24   ar
    22    24    27    1
    23    27    28    1
    24    28    29   ar
    25    29    30   ar
    26    30    31   ar
    27    31    32   ar
    28    32    33   ar
    29    24    25   ar
    30    25    26   ar
    31     7     8   ar
    32     8     9   ar
    33    16    17    1
    34    17    18    1
    35    18    13    1
    36     9     1    1
    37     9     5   ar
    38    26    21   ar
    39    33    28   ar
    40     4    10    1
    41    35    37    1
    42    35    38    1
@<TRIPOS>MOLECULE
*****
 38 42 0 0 0
SMALL
GASTEIGER

@<TRIPOS>ATOM
      1 C         -18.2511    1.3030   21.2487 C.3     1  UNL1        0.1083
      2 C         -19.7504    1.2672   21.2209 C.3     1  UNL1        0.0456
      3 C         -20.4612    0.1264   20.5551 C.3     1  UNL1        0.0902
      4 N         -19.6726   -0.9786   19.9170 N.pl3   1  UNL1       -0.3181
      5 C         -18.1733   -0.9428   19.9447 C.ar    1  UNL1        0.1311
      6 C         -17.1367   -1.8824   19.4038 C.ar    1  UNL1        0.1034
      7 C         -15.7853   -1.3223   19.7354 C.ar    1  UNL1        0.1080
      8 N         -15.9866   -0.0365   20.4812 N.ar    1  UNL1       -0.1681
      9 N         -17.4626    0.1980   20.6106 N.ar    1  UNL1       -0.2397
     10 H         -20.1391   -1.7273   19.4799 H       1  UNL1        0.1482
     11 C         -15.4079    5.8662   23.9120 C.2     1  UNL1        0.2492
     12 O         -14.7909    6.9525   23.0818 O.2     1  UNL1       -0.2699
     13 N         -16.1187    4.7254   23.2462 N.am    1  UNL1       -0.2761
     14 C         -16.7357    3.6391   24.0765 C.3     1  UNL1        0.0938
     15 C         -17.4465    2.4983   23.4106 C.3     1  UNL1        0.0235
     16 C         -17.5403    2.4438   21.9146 C.3     1  UNL1        0.0260
     17 C         -16.9233    3.5301   21.0843 C.3     1  UNL1        0.0235
     18 C         -16.2125    4.6709   21.7501 C.3     1  UNL1        0.0938
     19 C         -14.0923    5.3962   26.1026 C.2     1  UNL1        0.0048
     20 C         -15.3141    5.9207   25.4081 C.2     1  UNL1        0.0579
     21 C         -14.4643   -1.9396   19.3830 C.ar    1  UNL1        0.0198
     22 C         -14.0073   -3.1843   20.0843 C.ar    1  UNL1        0.0047
     23 C         -12.6864   -3.8016   19.7318 C.ar    1  UNL1        0.0375
     24 C         -11.8226   -3.1742   18.6782 C.ar    1  UNL1        0.1453
     25 C         -12.2797   -1.9295   17.9769 C.ar    1  UNL1        0.0375
     26 C         -13.6005   -1.3122   18.3293 C.ar    1  UNL1        0.0047
     27 O         -10.5017   -3.7916   18.3258 O.3     1  UNL1       -0.4535
     28 C         -10.3803   -5.2811   18.1977 C.ar    1  UNL1        0.1453
     29 C         -11.1764   -6.0118   17.1573 C.ar    1  UNL1        0.0375
     30 C         -11.0550   -7.5013   17.0292 C.ar    1  UNL1        0.0031
     31 C         -10.1375   -8.2603   17.9416 C.ar    1  UNL1        0.0002
     32 C          -9.3414   -7.5296   18.9819 C.ar    1  UNL1        0.0031
     33 C          -9.4629   -6.0400   19.1100 C.ar    1  UNL1        0.0375
     34 C         -17.4045   -3.1581   18.6617 C.2     1  UNL1        0.2470
     35 N         -18.1199   -4.2865   19.3436 N.am    1  UNL1       -0.3252
     36 O         -16.9570   -3.3055   17.2376 O.2     1  UNL1       -0.2702
     37 H         -18.4136   -4.1898   20.2783 H       1  UNL1        0.1453
     38 H         -18.2957   -5.1238   18.8565 H       1  UNL1        0.1453
@<TRIPOS>BOND
     1    19    20    2
     2    20    11    1
     3    11    12    2
     4    11    13   am
     5    13    14    1
     6    14    15    1
     7    15    16    1
     8     1    16    1
     9     1     2    1
    10     2     3    1
    11     3     4    1
    12     4     5    1
    13     5     6   ar
    14     6    34    1
    15    34    35   am
    16    34    36    2
    17     6     7   ar
    18     7    21    1
    19    21    22   ar
    20    22    23   ar
    21    23    24   ar
    22    24    27    1
    23    27    28    1
    24    28    29   ar
    25    29    30   ar
    26    30    31   ar
    27    31    32   ar
    28    32    33   ar
    29    24    25   ar
    30    25    26   ar
    31     7     8   ar
    32     8     9   ar
    33    16    17    1
    34    17    18    1
    35    18    13    1
    36     9     1    1
    37     9     5   ar
    38    26    21   ar
    39    33    28   ar
    40     4    10    1
    41    35    37    1
    42    35    38    1
@<TRIPOS>MOLECULE
*****
 38 42 0 0 0
SMALL
GASTEIGER

@<TRIPOS>ATOM
      1 C           3.2086   -1.8906   20.1628 C.3     1  UNL1        0.1083
      2 C           3.4331   -2.8999   19.0762 C.3     1  UNL1        0.0456
      3 C           4.3228   -4.0820   19.3227 C.3     1  UNL1        0.0902
      4 N           4.9881   -4.2549   20.6559 N.pl3   1  UNL1       -0.3181
      5 C           4.7637   -3.2456   21.7426 C.ar    1  UNL1        0.1311
      6 C           5.2806   -3.1516   23.1476 C.ar    1  UNL1        0.1034
      7 C           4.7104   -1.9113   23.7693 C.ar    1  UNL1        0.1080
      8 N           3.8409   -1.2388   22.7487 N.ar    1  UNL1       -0.1681
      9 N           3.8739   -2.0635   21.4961 N.ar    1  UNL1       -0.2397
     10 H           5.5721   -5.0308   20.8177 H       1  UNL1        0.1482
     11 C          -0.3506    2.8381   19.1769 C.2     1  UNL1        0.2492
     12 O          -1.6008    3.0174   19.9861 O.2     1  UNL1       -0.2699
     13 N           0.5392    1.6560   19.4234 N.am    1  UNL1       -0.2761
     14 C           1.7894    1.4766   18.6142 C.3     1  UNL1        0.0938
     15 C           2.6792    0.2944   18.8607 C.3     1  UNL1        0.0235
     16 C           2.3188   -0.7084   19.9163 C.3     1  UNL1        0.0260
     17 C           1.0686   -0.5290   20.7255 C.3     1  UNL1        0.0235
     18 C           0.1788    0.6531   20.4791 C.3     1  UNL1        0.0938
     19 C          -0.8430    3.9783   16.8949 C.2     1  UNL1        0.0048
     20 C           0.0098    3.8409   18.1212 C.2     1  UNL1        0.0579
     21 C           4.9649   -1.4284   25.1665 C.ar    1  UNL1        0.0198
     22 C           6.2780   -0.7912   25.5123 C.ar    1  UNL1        0.0047
     23 C           6.5325   -0.3083   26.9094 C.ar    1  UNL1        0.0375
     24 C           5.4738   -0.4627   27.9608 C.ar    1  UNL1        0.1453
     25 C           4.1607   -1.0999   27.6151 C.ar    1  UNL1        0.0375
     26 C           3.9062   -1.5828   26.2179 C.ar    1  UNL1        0.0047
     27 O           5.7284    0.0202   29.3580 O.3     1  UNL1       -0.4535
     28 C           5.5727   -0.9198   30.5165 C.ar    1  UNL1        0.1453
     29 C           6.5573   -2.0337   30.7161 C.ar    1  UNL1        0.0375
     30 C           6.4016   -2.9737   31.8745 C.ar    1  UNL1        0.0031
     31 C           5.2613   -2.7999   32.8335 C.ar    1  UNL1        0.0002
     32 C           4.2767   -1.6860   32.6339 C.ar    1  UNL1        0.0031
     33 C           4.4324   -0.7459   31.4754 C.ar    1  UNL1        0.0375
     34 C           6.2055   -4.1267   23.8137 C.2     1  UNL1        0.2470
     35 N           6.1743   -4.2916   25.3043 N.am    1  UNL1       -0.3252
     36 O           7.1616   -4.9368   22.9894 O.2     1  UNL1       -0.2702
     37 H           5.5468   -3.7599   25.8454 H       1  UNL1        0.1453
     38 H           6.7814   -4.9316   25.7416 H       1  UNL1        0.1453
@<TRIPOS>BOND
     1    19    20    2
     2    20    11    1
     3    11    12    2
     4    11    13   am
     5    13    14    1
     6    14    15    1
     7    15    16    1
     8     1    16    1
     9     1     2    1
    10     2     3    1
    11     3     4    1
    12     4     5    1
    13     5     6   ar
    14     6    34    1
    15    34    35   am
    16    34    36    2
    17     6     7   ar
    18     7    21    1
    19    21    22   ar
    20    22    23   ar
    21    23    24   ar
    22    24    27    1
    23    27    28    1
    24    28    29   ar
    25    29    30   ar
    26    30    31   ar
    27    31    32   ar
    28    32    33   ar
    29    24    25   ar
    30    25    26   ar
    31     7     8   ar
    32     8     9   ar
    33    16    17    1
    34    17    18    1
    35    18    13    1
    36     9     1    1
    37     9     5   ar
    38    26    21   ar
    39    33    28   ar
    40     4    10    1
    41    35    37    1
    42    35    38    1
@<TRIPOS>MOLECULE
*****
 38 42 0 0 0
SMALL
GASTEIGER

@<TRIPOS>ATOM
      1 C           7.3185   -4.4056   23.5138 C.3     1  UNL1        0.1083
      2 C           8.4426   -5.1814   22.8939 C.3     1  UNL1        0.0456
      3 C           8.6104   -5.1975   21.4035 C.3     1  UNL1        0.0902
      4 N           7.6540   -4.4377   20.5328 N.pl3   1  UNL1       -0.3181
      5 C           6.5298   -3.6619   21.1527 C.ar    1  UNL1        0.1311
      6 C           5.4392   -2.8236   20.5545 C.ar    1  UNL1        0.1034
      7 C           4.5974   -2.2894   21.6752 C.ar    1  UNL1        0.1080
      8 N           5.1678   -2.7975   22.9661 N.ar    1  UNL1       -0.1681
      9 N           6.3621   -3.6458   22.6432 N.ar    1  UNL1       -0.2397
     10 H           7.7641   -4.4483   19.5546 H       1  UNL1        0.1482
     11 C           6.6474   -4.3412   29.4758 C.2     1  UNL1        0.2492
     12 O           6.5532   -5.6321   30.2339 O.2     1  UNL1       -0.2699
     13 N           6.8152   -4.3572   27.9854 N.am    1  UNL1       -0.2761
     14 C           6.9094   -3.0663   27.2273 C.3     1  UNL1        0.0938
     15 C           7.0772   -3.0825   25.7367 C.3     1  UNL1        0.0235
     16 C           7.1507   -4.3894   25.0043 C.3     1  UNL1        0.0260
     17 C           7.0565   -5.6803   25.7625 C.3     1  UNL1        0.0235
     18 C           6.8887   -5.6642   27.2529 C.3     1  UNL1        0.0938
     19 C           6.0889   -2.9958   31.6272 C.2     1  UNL1        0.0048
     20 C           6.5739   -3.0342   30.2082 C.2     1  UNL1        0.0579
     21 C           3.3962   -1.4027   21.5304 C.ar    1  UNL1        0.0198
     22 C           2.4614   -1.5895   20.3723 C.ar    1  UNL1        0.0047
     23 C           1.2602   -0.7029   20.2275 C.ar    1  UNL1        0.0375
     24 C           0.9938    0.3705   21.2409 C.ar    1  UNL1        0.1453
     25 C           1.9286    0.5573   22.3990 C.ar    1  UNL1        0.0375
     26 C           3.1298   -0.3294   22.5438 C.ar    1  UNL1        0.0047
     27 O          -0.2074    1.2572   21.0961 O.3     1  UNL1       -0.4535
     28 C          -0.1718    2.4196   20.1488 C.ar    1  UNL1        0.1453
     29 C          -1.3808    3.2926   19.9869 C.ar    1  UNL1        0.0375
     30 C          -1.3452    4.4550   19.0396 C.ar    1  UNL1        0.0031
     31 C          -0.1004    4.7446   18.2541 C.ar    1  UNL1        0.0002
     32 C           1.1086    3.8716   18.4160 C.ar    1  UNL1        0.0031
     33 C           1.0729    2.7091   19.3634 C.ar    1  UNL1        0.0375
     34 C           5.2276   -2.5649   19.0922 C.2     1  UNL1        0.2470
     35 N           4.7302   -3.6638   18.2004 N.am    1  UNL1       -0.3252
     36 O           5.5132   -1.2075   18.5216 O.2     1  UNL1       -0.2702
     37 H           4.5427   -4.5548   18.5749 H       1  UNL1        0.1453
     38 H           4.5913   -3.4940   17.2407 H       1  UNL1        0.1453
@<TRIPOS>BOND
     1    19    20    2
     2    20    11    1
     3    11    12    2
     4    11    13   am
     5    13    14    1
     6    14    15    1
     7    15    16    1
     8     1    16    1
     9     1     2    1
    10     2     3    1
    11     3     4    1
    12     4     5    1
    13     5     6   ar
    14     6    34    1
    15    34    35   am
    16    34    36    2
    17     6     7   ar
    18     7    21    1
    19    21    22   ar
    20    22    23   ar
    21    23    24   ar
    22    24    27    1
    23    27    28    1
    24    28    29   ar
    25    29    30   ar
    26    30    31   ar
    27    31    32   ar
    28    32    33   ar
    29    24    25   ar
    30    25    26   ar
    31     7     8   ar
    32     8     9   ar
    33    16    17    1
    34    17    18    1
    35    18    13    1
    36     9     1    1
    37     9     5   ar
    38    26    21   ar
    39    33    28   ar
    40     4    10    1
    41    35    37    1
    42    35    38    1
@<TRIPOS>MOLECULE
*****
 38 42 0 0 0
SMALL
GASTEIGER

@<TRIPOS>ATOM
      1 C           5.2212   -1.4327   32.5079 C.3     1  UNL1        0.1083
      2 C           5.7002   -1.3005   33.9232 C.3     1  UNL1        0.0456
      3 C           5.0706   -0.2911   34.8368 C.3     1  UNL1        0.0902
      4 N           3.9622    0.5862   34.3351 N.pl3   1  UNL1       -0.3181
      5 C           3.4832    0.4540   32.9199 C.ar    1  UNL1        0.1311
      6 C           2.4170    1.1750   32.1496 C.ar    1  UNL1        0.1034
      7 C           2.3876    0.6112   30.7598 C.ar    1  UNL1        0.1080
      8 N           3.4356   -0.4583   30.6712 N.ar    1  UNL1       -0.1681
      9 N           4.1127   -0.5554   32.0062 N.ar    1  UNL1       -0.2397
     10 H           3.5490    1.2487   34.9348 H       1  UNL1        0.1482
     11 C           7.7392   -5.4705   28.8533 C.2     1  UNL1        0.2492
     12 O           8.1702   -6.8029   29.3910 O.2     1  UNL1       -0.2699
     13 N           7.1097   -4.4611   29.7669 N.am    1  UNL1       -0.2761
     14 C           6.6788   -3.1287   29.2292 C.3     1  UNL1        0.0938
     15 C           6.0492   -2.1192   30.1429 C.3     1  UNL1        0.0235
     16 C           5.8507   -2.4422   31.5942 C.3     1  UNL1        0.0260
     17 C           6.2817   -3.7745   32.1319 C.3     1  UNL1        0.0235
     18 C           6.9112   -4.7839   31.2183 C.3     1  UNL1        0.0938
     19 C           6.9107   -5.5681   26.3928 C.2     1  UNL1        0.0048
     20 C           7.9377   -5.1476   27.4020 C.2     1  UNL1        0.0579
     21 C           1.4711    1.0414   29.6530 C.ar    1  UNL1        0.0198
     22 C           1.7028    2.3472   28.9522 C.ar    1  UNL1        0.0047
     23 C           0.7863    2.7773   27.8455 C.ar    1  UNL1        0.0375
     24 C          -0.3620    1.9017   27.4396 C.ar    1  UNL1        0.1453
     25 C          -0.5937    0.5960   28.1404 C.ar    1  UNL1        0.0375
     26 C           0.3228    0.1658   29.2472 C.ar    1  UNL1        0.0047
     27 O          -1.2785    2.3320   26.3328 O.3     1  UNL1       -0.4535
     28 C          -0.7969    2.3187   24.9123 C.ar    1  UNL1        0.1453
     29 C           0.2671    1.3494   24.4901 C.ar    1  UNL1        0.0375
     30 C           0.7488    1.3362   23.0697 C.ar    1  UNL1        0.0031
     31 C           0.1664    2.2923   22.0713 C.ar    1  UNL1        0.0002
     32 C          -0.8976    3.2616   22.4934 C.ar    1  UNL1        0.0031
     33 C          -1.3793    3.2748   23.9140 C.ar    1  UNL1        0.0375
     34 C           1.5351    2.2680   32.6765 C.2     1  UNL1        0.2470
     35 N           0.1612    2.4632   32.1070 N.am    1  UNL1       -0.3252
     36 O           2.0270    3.1657   33.7728 O.2     1  UNL1       -0.2702
     37 H          -0.1617    1.8740   31.3874 H       1  UNL1        0.1453
     38 H          -0.4176    3.1806   32.4529 H       1  UNL1        0.1453
@<TRIPOS>BOND
     1    19    20    2
     2    20    11    1
     3    11    12    2
     4    11    13   am
     5    13    14    1
     6    14    15    1
     7    15    16    1
     8     1    16    1
     9     1     2    1
    10     2     3    1
    11     3     4    1
    12     4     5    1
    13     5     6   ar
    14     6    34    1
    15    34    35   am
    16    34    36    2
    17     6     7   ar
    18     7    21    1
    19    21    22   ar
    20    22    23   ar
    21    23    24   ar
    22    24    27    1
    23    27    28    1
    24    28    29   ar
    25    29    30   ar
    26    30    31   ar
    27    31    32   ar
    28    32    33   ar
    29    24    25   ar
    30    25    26   ar
    31     7     8   ar
    32     8     9   ar
    33    16    17    1
    34    17    18    1
    35    18    13    1
    36     9     1    1
    37     9     5   ar
    38    26    21   ar
    39    33    28   ar
    40     4    10    1
    41    35    37    1
    42    35    38    1
@<TRIPOS>MOLECULE
*****
 38 42 0 0 0
SMALL
GASTEIGER

@<TRIPOS>ATOM
      1 C           7.5020   -5.9613   25.8447 C.3     1  UNL1        0.1083
      2 C           7.6841   -7.4387   25.6599 C.3     1  UNL1        0.0456
      3 C           7.8394   -8.3305   26.8558 C.3     1  UNL1        0.0902
      4 N           7.8126   -7.7451   28.2366 N.pl3   1  UNL1       -0.3181
      5 C           7.6305   -6.2677   28.4214 C.ar    1  UNL1        0.1311
      6 C           7.5638   -5.4106   29.6506 C.ar    1  UNL1        0.1034
      7 C           7.3672   -3.9889   29.2143 C.ar    1  UNL1        0.1080
      8 N           7.3125   -3.9674   27.7155 N.ar    1  UNL1       -0.1681
      9 N           7.4752   -5.3758   27.2254 N.ar    1  UNL1       -0.2397
     10 H           7.9146   -8.3305   29.0216 H       1  UNL1        0.1482
     11 C           6.8807   -2.3935   21.0608 C.2     1  UNL1        0.2492
     12 O           5.9015   -1.2577   21.0944 O.2     1  UNL1       -0.2699
     13 N           7.0360   -3.2854   22.2568 N.am    1  UNL1       -0.2761
     14 C           8.0153   -4.4212   22.2232 C.3     1  UNL1        0.0938
     15 C           8.1706   -5.3132   23.4192 C.3     1  UNL1        0.0235
     16 C           7.3467   -5.0693   24.6487 C.3     1  UNL1        0.0260
     17 C           6.3675   -3.9335   24.6823 C.3     1  UNL1        0.0235
     18 C           6.2121   -3.0416   23.4864 C.3     1  UNL1        0.0938
     19 C           7.2405   -2.1188   18.5025 C.2     1  UNL1        0.0048
     20 C           7.7046   -2.6373   19.8313 C.2     1  UNL1        0.0579
     21 C           7.2466   -2.7979   30.1182 C.ar    1  UNL1        0.0198
     22 C           8.4475   -2.2989   30.8656 C.ar    1  UNL1        0.0047
     23 C           8.3268   -1.1079   31.7694 C.ar    1  UNL1        0.0375
     24 C           7.0052   -0.4160   31.9259 C.ar    1  UNL1        0.1453
     25 C           5.8042   -0.9150   31.1786 C.ar    1  UNL1        0.0375
     26 C           5.9249   -2.1060   30.2747 C.ar    1  UNL1        0.0047
     27 O           6.8846    0.7750   32.8298 O.3     1  UNL1       -0.4535
     28 C           6.1582    0.6542   34.1366 C.ar    1  UNL1        0.1453
     29 C           6.7597   -0.1393   35.2585 C.ar    1  UNL1        0.0375
     30 C           6.0333   -0.2601   36.5653 C.ar    1  UNL1        0.0031
     31 C           4.7054    0.4127   36.7503 C.ar    1  UNL1        0.0002
     32 C           4.1040    1.2063   35.6285 C.ar    1  UNL1        0.0031
     33 C           4.8304    1.3270   34.3216 C.ar    1  UNL1        0.0375
     34 C           7.6742   -5.8908   31.0673 C.2     1  UNL1        0.2470
     35 N           6.5219   -5.7139   32.0112 N.am    1  UNL1       -0.3252
     36 O           8.9368   -6.5480   31.5402 O.2     1  UNL1       -0.2702
     37 H           5.6931   -5.2825   31.7009 H       1  UNL1        0.1453
     38 H           6.5944   -6.0290   32.9411 H       1  UNL1        0.1453
@<TRIPOS>BOND
     1    19    20    2
     2    20    11    1
     3    11    12    2
     4    11    13   am
     5    13    14    1
     6    14    15    1
     7    15    16    1
     8     1    16    1
     9     1     2    1
    10     2     3    1
    11     3     4    1
    12     4     5    1
    13     5     6   ar
    14     6    34    1
    15    34    35   am
    16    34    36    2
    17     6     7   ar
    18     7    21    1
    19    21    22   ar
    20    22    23   ar
    21    23    24   ar
    22    24    27    1
    23    27    28    1
    24    28    29   ar
    25    29    30   ar
    26    30    31   ar
    27    31    32   ar
    28    32    33   ar
    29    24    25   ar
    30    25    26   ar
    31     7     8   ar
    32     8     9   ar
    33    16    17    1
    34    17    18    1
    35    18    13    1
    36     9     1    1
    37     9     5   ar
    38    26    21   ar
    39    33    28   ar
    40     4    10    1
    41    35    37    1
    42    35    38    1
@<TRIPOS>MOLECULE
*****
 38 42 0 0 0
SMALL
GASTEIGER

@<TRIPOS>ATOM
      1 C           5.7947   -2.2701   27.0656 C.3     1  UNL1        0.1083
      2 C           6.3690   -3.2980   26.1364 C.3     1  UNL1        0.0456
      3 C           7.1121   -4.4775   26.6898 C.3     1  UNL1        0.0902
      4 N           7.2810   -4.6291   28.1726 N.pl3   1  UNL1       -0.3181
      5 C           6.7068   -3.6012   29.1018 C.ar    1  UNL1        0.1311
      6 C           6.7138   -3.4845   30.5972 C.ar    1  UNL1        0.1034
      7 C           5.9750   -2.2328   30.9680 C.ar    1  UNL1        0.1080
      8 N           5.5113   -1.5759   29.7017 N.ar    1  UNL1       -0.1681
      9 N           5.9636   -2.4217   28.5483 N.ar    1  UNL1       -0.2397
     10 H           7.7688   -5.4033   28.5358 H       1  UNL1        0.1482
     11 C           2.8221    2.4482   24.8517 C.2     1  UNL1        0.2492
     12 O           3.5142    3.4031   23.9248 O.2     1  UNL1       -0.2699
     13 N           3.5652    1.2687   25.4052 N.am    1  UNL1       -0.2761
     14 C           2.8730    0.3138   26.3321 C.3     1  UNL1        0.0938
     15 C           3.6163   -0.8658   26.8856 C.3     1  UNL1        0.0235
     16 C           5.0515   -1.0905   26.5121 C.3     1  UNL1        0.0260
     17 C           5.7436   -0.1356   25.5852 C.3     1  UNL1        0.0235
     18 C           5.0005    1.0439   25.0317 C.3     1  UNL1        0.0938
     19 C           0.2922    2.0846   24.3850 C.2     1  UNL1        0.0048
     20 C           1.3868    2.6729   25.2252 C.2     1  UNL1        0.0579
     21 C           5.7410   -1.7268   32.3606 C.ar    1  UNL1        0.0198
     22 C           6.7662   -0.8560   33.0244 C.ar    1  UNL1        0.0047
     23 C           6.5321   -0.3501   34.4169 C.ar    1  UNL1        0.0375
     24 C           5.2728   -0.7150   35.1457 C.ar    1  UNL1        0.1453
     25 C           4.2476   -1.5858   34.4819 C.ar    1  UNL1        0.0375
     26 C           4.4817   -2.0917   33.0894 C.ar    1  UNL1        0.0047
     27 O           5.0388   -0.2090   36.5383 O.3     1  UNL1       -0.4535
     28 C           4.1022    0.9391   36.7716 C.ar    1  UNL1        0.1453
     29 C           3.7927    1.8931   35.6562 C.ar    1  UNL1        0.0375
     30 C           2.8560    3.0413   35.8895 C.ar    1  UNL1        0.0031
     31 C           2.2289    3.2355   37.2383 C.ar    1  UNL1        0.0002
     32 C           2.5384    2.2815   38.3537 C.ar    1  UNL1        0.0031
     33 C           3.4751    1.1333   38.1203 C.ar    1  UNL1        0.0375
     34 C           7.3483   -4.4499   31.5539 C.2     1  UNL1        0.2470
     35 N           6.4886   -5.3373   32.4045 N.am    1  UNL1       -0.3252
     36 O           8.8424   -4.5281   31.6601 O.2     1  UNL1       -0.2702
     37 H           5.5079   -5.2860   32.3349 H       1  UNL1        0.1453
     38 H           6.9050   -5.9710   33.0325 H       1  UNL1        0.1453
@<TRIPOS>BOND
     1    19    20    2
     2    20    11    1
     3    11    12    2
     4    11    13   am
     5    13    14    1
     6    14    15    1
     7    15    16    1
     8     1    16    1
     9     1     2    1
    10     2     3    1
    11     3     4    1
    12     4     5    1
    13     5     6   ar
    14     6    34    1
    15    34    35   am
    16    34    36    2
    17     6     7   ar
    18     7    21    1
    19    21    22   ar
    20    22    23   ar
    21    23    24   ar
    22    24    27    1
    23    27    28    1
    24    28    29   ar
    25    29    30   ar
    26    30    31   ar
    27    31    32   ar
    28    32    33   ar
    29    24    25   ar
    30    25    26   ar
    31     7     8   ar
    32     8     9   ar
    33    16    17    1
    34    17    18    1
    35    18    13    1
    36     9     1    1
    37     9     5   ar
    38    26    21   ar
    39    33    28   ar
    40     4    10    1
    41    35    37    1
    42    35    38    1
@<TRIPOS>MOLECULE
*****
 38 42 0 0 0
SMALL
GASTEIGER

@<TRIPOS>ATOM
      1 C           3.6477   -0.2902   31.6489 C.3     1  UNL1        0.1083
      2 C           3.5377   -0.0643   33.1277 C.3     1  UNL1        0.0456
      3 C           4.4050   -0.8429   34.0719 C.3     1  UNL1        0.0902
      4 N           5.3822   -1.8475   33.5373 N.pl3   1  UNL1       -0.3181
      5 C           5.4923   -2.0734   32.0586 C.ar    1  UNL1        0.1311
      6 C           6.3573   -2.9897   31.2448 C.ar    1  UNL1        0.1034
      7 C           6.0246   -2.7774   29.7976 C.ar    1  UNL1        0.1080
      8 N           4.9540   -1.7298   29.7170 N.ar    1  UNL1       -0.1681
      9 N           4.6250   -1.2948   31.1144 N.ar    1  UNL1       -0.2397
     10 H           5.9515   -2.3585   34.1571 H       1  UNL1        0.1482
     11 C           0.1788    2.8244   27.8719 C.2     1  UNL1        0.2492
     12 O           0.3224    4.3145   27.7774 O.2     1  UNL1       -0.2699
     13 N           1.0460    2.0457   28.8161 N.am    1  UNL1       -0.2761
     14 C           0.9024    0.5556   28.9106 C.3     1  UNL1        0.0938
     15 C           1.7697   -0.2230   29.8549 C.3     1  UNL1        0.0235
     16 C           2.7805    0.4884   30.7046 C.3     1  UNL1        0.0260
     17 C           2.9241    1.9786   30.6101 C.3     1  UNL1        0.0235
     18 C           2.0569    2.7572   29.6659 C.3     1  UNL1        0.0938
     19 C          -0.4805    1.7040   25.6224 C.2     1  UNL1        0.0048
     20 C          -0.8320    2.1129   27.0222 C.2     1  UNL1        0.0579
     21 C           6.6524   -3.4878   28.6352 C.ar    1  UNL1        0.0198
     22 C           6.1600   -4.8460   28.2316 C.ar    1  UNL1        0.0047
     23 C           6.7878   -5.5564   27.0692 C.ar    1  UNL1        0.0375
     24 C           7.9079   -4.9086   26.3104 C.ar    1  UNL1        0.1453
     25 C           8.4003   -3.5505   26.7140 C.ar    1  UNL1        0.0375
     26 C           7.7725   -2.8401   27.8764 C.ar    1  UNL1        0.0047
     27 O           8.5357   -5.6191   25.1480 O.3     1  UNL1       -0.4535
     28 C           8.2336   -5.1771   23.7468 C.ar    1  UNL1        0.1453
     29 C           9.1473   -5.5684   22.6235 C.ar    1  UNL1        0.0375
     30 C           8.8452   -5.1264   21.2223 C.ar    1  UNL1        0.0031
     31 C           7.6292   -4.2930   20.9445 C.ar    1  UNL1        0.0002
     32 C           6.7155   -3.9017   22.0678 C.ar    1  UNL1        0.0031
     33 C           7.0177   -4.3438   23.4691 C.ar    1  UNL1        0.0375
     34 C           7.3760   -3.9498   31.7836 C.2     1  UNL1        0.2470
     35 N           7.0031   -5.3827   32.0234 N.am    1  UNL1       -0.3252
     36 O           8.7678   -3.4769   32.0827 O.2     1  UNL1       -0.2702
     37 H           6.0897   -5.6931   31.8271 H       1  UNL1        0.1453
     38 H           7.6718   -6.0129   32.3770 H       1  UNL1        0.1453
@<TRIPOS>BOND
     1    19    20    2
     2    20    11    1
     3    11    12    2
     4    11    13   am
     5    13    14    1
     6    14    15    1
     7    15    16    1
     8     1    16    1
     9     1     2    1
    10     2     3    1
    11     3     4    1
    12     4     5    1
    13     5     6   ar
    14     6    34    1
    15    34    35   am
    16    34    36    2
    17     6     7   ar
    18     7    21    1
    19    21    22   ar
    20    22    23   ar
    21    23    24   ar
    22    24    27    1
    23    27    28    1
    24    28    29   ar
    25    29    30   ar
    26    30    31   ar
    27    31    32   ar
    28    32    33   ar
    29    24    25   ar
    30    25    26   ar
    31     7     8   ar
    32     8     9   ar
    33    16    17    1
    34    17    18    1
    35    18    13    1
    36     9     1    1
    37     9     5   ar
    38    26    21   ar
    39    33    28   ar
    40     4    10    1
    41    35    37    1
    42    35    38    1
