@<TRIPOS>MOLECULE
*****
 36 39 0 0 0
SMALL
GASTEIGER

@<TRIPOS>ATOM
      1 C          -5.0362  -19.9145   20.7597 C.3     1  UNL1        0.1225
      2 O          -6.0823  -20.7809   20.1235 O.3     1  UNL1       -0.3559
      3 C          -7.5276  -20.5960   20.4797 C.3     1  UNL1        0.1441
      4 C          -7.9268  -19.5446   21.4722 C.3     1  UNL1        0.0589
      5 C          -6.8807  -18.6781   22.1084 C.3     1  UNL1        0.1466
      6 C          -7.2799  -17.6266   23.1010 C.ar    1  UNL1        0.0618
      7 C          -8.7252  -17.4417   23.4572 C.ar    1  UNL1        0.1407
      8 F          -9.9978  -18.1097   23.0283 F       1  UNL1       -0.2043
      9 C          -9.1244  -16.3902   24.4497 C.ar    1  UNL1        0.0319
     10 C          -8.0783  -15.5237   25.0860 C.ar    1  UNL1        0.0351
     11 C          -6.6330  -15.7086   24.7298 C.ar    1  UNL1        0.1737
     12 F          -5.5869  -14.8421   25.3661 F       1  UNL1       -0.2010
     13 C          -6.2338  -16.7601   23.7372 C.ar    1  UNL1        0.1655
     14 O          -4.7885  -16.9451   23.3810 O.3     1  UNL1       -0.4732
     15 C          -4.3893  -17.9965   22.3885 C.3     1  UNL1        0.2098
     16 C          -5.4354  -18.8630   21.7522 C.3     1  UNL1        0.0957
     17 S          -8.3260  -18.4932   22.4647 S.O2    1  UNL1        0.0094
     18 O          -8.6182  -18.9155   23.0743 O.2     1  UNL1       -0.1684
     19 O          -8.8172  -17.4796   21.4740 O.2     1  UNL1       -0.1684
     20 C          -9.7713  -18.3082   22.8209 C.ar    1  UNL1        0.1059
     21 C         -10.3517  -19.0319   23.9997 C.ar    1  UNL1        0.0192
     22 C         -11.7970  -18.8470   24.3559 C.ar    1  UNL1        0.0127
     23 C         -12.6619  -17.9384   23.5334 C.ar    1  UNL1        0.0578
     24 CL        -14.1072  -17.7534   23.8896 Cl      1  UNL1       -0.0822
     25 C         -12.0814  -17.2147   22.3547 C.ar    1  UNL1        0.0127
     26 C         -10.6361  -17.3997   21.9985 C.ar    1  UNL1        0.0192
     27 C          -3.5909  -20.0994   20.4035 C.3     1  UNL1        0.0550
     28 C          -2.9696  -19.2574   19.3288 C.3     1  UNL1        0.1534
     29 S          -2.0716  -18.1138   19.6971 S.O2    1  UNL1       -0.0085
     30 O          -1.1100  -19.0736   20.3327 O.2     1  UNL1       -0.1729
     31 O          -3.0332  -17.1539   19.0615 O.2     1  UNL1       -0.1729
     32 C          -1.1735  -16.9701   20.0654 C.3     1  UNL1        0.1676
     33 N          -2.6376  -15.5991   21.7167 N.3     1  UNL1       -0.3197
     34 C          -1.3422  -16.2793   21.3861 C.3     1  UNL1        0.0908
     35 H          -2.5766  -15.1853   22.6470 H       1  UNL1        0.1189
     36 H          -3.3949  -16.2822   21.6974 H       1  UNL1        0.1189
@<TRIPOS>BOND
     1    33    34    1
     2    34    32    1
     3    32    29    1
     4    29    30    2
     5    29    31    2
     6    29    28    1
     7    28    27    1
     8     1    27    1
     9     1     2    1
    10     2     3    1
    11     3     4    1
    12     4     5    1
    13     5    17    1
    14    17    18    2
    15    17    19    2
    16    17    20    1
    17    20    21   ar
    18    21    22   ar
    19    22    23   ar
    20    23    24    1
    21    23    25   ar
    22    25    26   ar
    23     5     6    1
    24     6     7   ar
    25     7     8    1
    26     7     9   ar
    27     9    10   ar
    28    10    11   ar
    29    11    12    1
    30    11    13   ar
    31    13    14    1
    32    14    15    1
    33    16    15    1
    34    16     1    1
    35    16     5    1
    36    26    20   ar
    37    13     6   ar
    38    33    35    1
    39    33    36    1
@<TRIPOS>MOLECULE
*****
 36 39 0 0 0
SMALL
GASTEIGER

@<TRIPOS>ATOM
      1 C          -5.6727  -16.4846   23.6003 C.3     1  UNL1        0.1225
      2 O          -6.2646  -15.8801   24.8389 O.3     1  UNL1       -0.3559
      3 C          -7.7239  -16.0583   25.1367 C.3     1  UNL1        0.1441
      4 C          -8.5913  -16.8409   24.1960 C.3     1  UNL1        0.0589
      5 C          -7.9994  -17.4454   22.9574 C.3     1  UNL1        0.1466
      6 C          -8.8668  -18.2280   22.0165 C.ar    1  UNL1        0.0618
      7 C         -10.3261  -18.4062   22.3144 C.ar    1  UNL1        0.1407
      8 F         -11.2254  -17.9539   23.4264 F       1  UNL1       -0.2043
      9 C         -11.1935  -19.1888   21.3736 C.ar    1  UNL1        0.0319
     10 C         -10.6016  -19.7934   20.1349 C.ar    1  UNL1        0.0351
     11 C          -9.1423  -19.6152   19.8371 C.ar    1  UNL1        0.1737
     12 F          -8.5504  -20.2197   18.5985 F       1  UNL1       -0.2010
     13 C          -8.2749  -18.8325   20.7779 C.ar    1  UNL1        0.1655
     14 O          -6.8156  -18.6544   20.4801 O.3     1  UNL1       -0.4732
     15 C          -5.9482  -17.8717   21.4208 C.3     1  UNL1        0.2098
     16 C          -6.5401  -17.2672   22.6595 C.3     1  UNL1        0.0957
     17 S          -9.4587  -17.6235   23.2552 S.O2    1  UNL1        0.0094
     18 O          -9.6982  -18.3256   23.5472 O.2     1  UNL1       -0.1684
     19 O         -10.0697  -16.3068   22.8773 O.2     1  UNL1       -0.1684
     20 C         -10.9180  -17.8017   23.5531 C.ar    1  UNL1        0.1059
     21 C         -11.3580  -18.8142   24.5687 C.ar    1  UNL1        0.0192
     22 C         -12.8173  -18.9923   24.8665 C.ar    1  UNL1        0.0127
     23 C         -13.8366  -18.1580   24.1488 C.ar    1  UNL1        0.0578
     24 CL        -15.2959  -18.3362   24.4467 Cl      1  UNL1       -0.0822
     25 C         -13.3966  -17.1456   23.1333 C.ar    1  UNL1        0.0127
     26 C         -11.9373  -16.9674   22.8354 C.ar    1  UNL1        0.0192
     27 C          -4.2134  -16.3064   23.3024 C.3     1  UNL1        0.0550
     28 C          -3.3464  -17.5054   23.0561 C.3     1  UNL1        0.1534
     29 S          -2.4116  -17.5267   21.8832 S.O2    1  UNL1       -0.0085
     30 O          -2.5729  -16.0435   21.7277 O.2     1  UNL1       -0.1729
     31 O          -2.2504  -19.0099   22.0387 O.2     1  UNL1       -0.1729
     32 C          -1.4768  -17.5480   20.7103 C.3     1  UNL1        0.1676
     33 N          -3.3968  -17.2420   18.9869 N.3     1  UNL1       -0.3197
     34 C          -2.0181  -17.7280   19.3230 C.3     1  UNL1        0.0908
     35 H          -3.5997  -17.4449   18.0081 H       1  UNL1        0.1189
     36 H          -3.4501  -16.2355   19.1436 H       1  UNL1        0.1189
@<TRIPOS>BOND
     1    33    34    1
     2    34    32    1
     3    32    29    1
     4    29    30    2
     5    29    31    2
     6    29    28    1
     7    28    27    1
     8     1    27    1
     9     1     2    1
    10     2     3    1
    11     3     4    1
    12     4     5    1
    13     5    17    1
    14    17    18    2
    15    17    19    2
    16    17    20    1
    17    20    21   ar
    18    21    22   ar
    19    22    23   ar
    20    23    24    1
    21    23    25   ar
    22    25    26   ar
    23     5     6    1
    24     6     7   ar
    25     7     8    1
    26     7     9   ar
    27     9    10   ar
    28    10    11   ar
    29    11    12    1
    30    11    13   ar
    31    13    14    1
    32    14    15    1
    33    16    15    1
    34    16     1    1
    35    16     5    1
    36    26    20   ar
    37    13     6   ar
    38    33    35    1
    39    33    36    1
@<TRIPOS>MOLECULE
*****
 36 39 0 0 0
SMALL
GASTEIGER

@<TRIPOS>ATOM
      1 C          -3.8268  -18.3704   22.6707 C.3     1  UNL1        0.1225
      2 O          -4.1422  -17.3182   23.6921 O.3     1  UNL1       -0.3559
      3 C          -5.5501  -16.8255   23.8511 C.3     1  UNL1        0.1441
      4 C          -6.6424  -17.3850   22.9888 C.3     1  UNL1        0.0589
      5 C          -6.3269  -18.4372   21.9674 C.3     1  UNL1        0.1466
      6 C          -7.4193  -18.9968   21.1049 C.ar    1  UNL1        0.0618
      7 C          -8.8271  -18.5041   21.2640 C.ar    1  UNL1        0.1407
      8 F          -9.4824  -17.4925   22.1569 F       1  UNL1       -0.2043
      9 C          -9.9195  -19.0636   20.4016 C.ar    1  UNL1        0.0319
     10 C          -9.6040  -20.1158   19.3802 C.ar    1  UNL1        0.0351
     11 C          -8.1962  -20.6085   19.2211 C.ar    1  UNL1        0.1737
     12 F          -7.8807  -21.6607   18.1997 F       1  UNL1       -0.2010
     13 C          -7.1038  -20.0490   20.0835 C.ar    1  UNL1        0.1655
     14 O          -5.6960  -20.5417   19.9245 O.3     1  UNL1       -0.4732
     15 C          -4.6037  -19.9822   20.7868 C.3     1  UNL1        0.2098
     16 C          -4.9191  -18.9299   21.8083 C.3     1  UNL1        0.0957
     17 S          -7.7347  -17.9445   22.1264 S.O2    1  UNL1        0.0094
     18 O          -8.2560  -18.4159   22.5027 O.2     1  UNL1       -0.1684
     19 O          -7.7240  -16.5964   21.4689 O.2     1  UNL1       -0.1684
     20 C          -9.1426  -17.4518   22.2855 C.ar    1  UNL1        0.1059
     21 C          -9.6539  -16.3468   21.4094 C.ar    1  UNL1        0.0192
     22 C         -11.0617  -15.8541   21.5685 C.ar    1  UNL1        0.0127
     23 C         -11.9582  -16.4665   22.6036 C.ar    1  UNL1        0.0578
     24 CL        -13.3660  -15.9738   22.7626 Cl      1  UNL1       -0.0822
     25 C         -11.4468  -17.5715   23.4796 C.ar    1  UNL1        0.0127
     26 C         -10.0390  -18.0641   23.3205 C.ar    1  UNL1        0.0192
     27 C          -2.4189  -18.8631   22.5116 C.3     1  UNL1        0.0550
     28 C          -1.4074  -18.0230   21.7899 C.3     1  UNL1        0.1534
     29 S          -1.5217  -17.8191   20.3082 S.O2    1  UNL1       -0.0085
     30 O          -0.6407  -19.0107   20.0763 O.2     1  UNL1       -0.1729
     31 O          -2.4027  -16.6275   20.5402 O.2     1  UNL1       -0.1729
     32 C          -1.6360  -17.6152   18.8266 C.3     1  UNL1        0.1676
     33 N          -3.5751  -16.1456   17.9154 N.3     1  UNL1       -0.3197
     34 C          -2.9881  -17.4989   18.1876 C.3     1  UNL1        0.0908
     35 H          -4.4918  -16.2537   17.4815 H       1  UNL1        0.1189
     36 H          -2.9603  -15.6285   17.2870 H       1  UNL1        0.1189
@<TRIPOS>BOND
     1    33    34    1
     2    34    32    1
     3    32    29    1
     4    29    30    2
     5    29    31    2
     6    29    28    1
     7    28    27    1
     8     1    27    1
     9     1     2    1
    10     2     3    1
    11     3     4    1
    12     4     5    1
    13     5    17    1
    14    17    18    2
    15    17    19    2
    16    17    20    1
    17    20    21   ar
    18    21    22   ar
    19    22    23   ar
    20    23    24    1
    21    23    25   ar
    22    25    26   ar
    23     5     6    1
    24     6     7   ar
    25     7     8    1
    26     7     9   ar
    27     9    10   ar
    28    10    11   ar
    29    11    12    1
    30    11    13   ar
    31    13    14    1
    32    14    15    1
    33    16    15    1
    34    16     1    1
    35    16     5    1
    36    26    20   ar
    37    13     6   ar
    38    33    35    1
    39    33    36    1
@<TRIPOS>MOLECULE
*****
 36 39 0 0 0
SMALL
GASTEIGER

@<TRIPOS>ATOM
      1 C         -10.8841  -18.8180   23.1150 C.3     1  UNL1        0.1225
      2 O         -10.7432  -19.9212   22.1086 O.3     1  UNL1       -0.3559
      3 C          -9.4070  -20.2050   21.4889 C.3     1  UNL1        0.1441
      4 C          -8.2116  -19.3856   21.8758 C.3     1  UNL1        0.0589
      5 C          -8.3525  -18.2824   22.8822 C.3     1  UNL1        0.1466
      6 C          -7.1571  -17.4629   23.2691 C.ar    1  UNL1        0.0618
      7 C          -5.8209  -17.7467   22.6495 C.ar    1  UNL1        0.1407
      8 F          -5.3306  -18.7424   21.6404 F       1  UNL1       -0.2043
      9 C          -4.6256  -16.9273   23.0363 C.ar    1  UNL1        0.0319
     10 C          -4.7664  -15.8240   24.0428 C.ar    1  UNL1        0.0351
     11 C          -6.1026  -15.5402   24.6624 C.ar    1  UNL1        0.1737
     12 F          -6.2435  -14.4370   25.6689 F       1  UNL1       -0.2010
     13 C          -7.2980  -16.3597   24.2756 C.ar    1  UNL1        0.1655
     14 O          -8.6342  -16.0759   24.8952 O.3     1  UNL1       -0.4732
     15 C          -9.8296  -16.8953   24.5084 C.3     1  UNL1        0.2098
     16 C          -9.6887  -17.9986   23.5019 C.3     1  UNL1        0.0957
     17 S          -7.0163  -18.5662   22.2626 S.O2    1  UNL1        0.0094
     18 O          -6.5225  -19.0597   22.6474 O.2     1  UNL1       -0.1684
     19 O          -7.0245  -17.7608   20.9972 O.2     1  UNL1       -0.1684
     20 C          -5.6800  -18.8500   21.6429 C.ar    1  UNL1        0.1059
     21 C          -5.4184  -18.4674   20.2163 C.ar    1  UNL1        0.0192
     22 C          -4.0822  -18.7512   19.5967 C.ar    1  UNL1        0.0127
     23 C          -3.0076  -19.4176   20.4037 C.ar    1  UNL1        0.0578
     24 CL         -1.6714  -19.7014   19.7840 Cl      1  UNL1       -0.0822
     25 C          -3.2692  -19.8002   21.8302 C.ar    1  UNL1        0.0127
     26 C          -4.6055  -19.5164   22.4499 C.ar    1  UNL1        0.0192
     27 C         -12.2203  -18.5342   23.7347 C.3     1  UNL1        0.0550
     28 C         -13.1885  -17.6204   23.0437 C.3     1  UNL1        0.1534
     29 S         -12.7491  -16.8271   21.8489 S.O2    1  UNL1       -0.0085
     30 O         -12.4174  -15.6675   22.7408 O.2     1  UNL1       -0.1729
     31 O         -13.0808  -17.9866   20.9570 O.2     1  UNL1       -0.1729
     32 C         -12.3097  -16.0338   20.6541 C.3     1  UNL1        0.1676
     33 N          -9.8317  -15.3987   21.1079 N.3     1  UNL1       -0.3197
     34 C         -10.8690  -16.0426   20.2365 C.3     1  UNL1        0.0908
     35 H          -8.9140  -15.4976   20.6737 H       1  UNL1        0.1189
     36 H          -9.8262  -15.8520   22.0216 H       1  UNL1        0.1189
@<TRIPOS>BOND
     1    33    34    1
     2    34    32    1
     3    32    29    1
     4    29    30    2
     5    29    31    2
     6    29    28    1
     7    28    27    1
     8     1    27    1
     9     1     2    1
    10     2     3    1
    11     3     4    1
    12     4     5    1
    13     5    17    1
    14    17    18    2
    15    17    19    2
    16    17    20    1
    17    20    21   ar
    18    21    22   ar
    19    22    23   ar
    20    23    24    1
    21    23    25   ar
    22    25    26   ar
    23     5     6    1
    24     6     7   ar
    25     7     8    1
    26     7     9   ar
    27     9    10   ar
    28    10    11   ar
    29    11    12    1
    30    11    13   ar
    31    13    14    1
    32    14    15    1
    33    16    15    1
    34    16     1    1
    35    16     5    1
    36    26    20   ar
    37    13     6   ar
    38    33    35    1
    39    33    36    1
