@<TRIPOS>MOLECULE
*****
 36 38 0 0 0
SMALL
GASTEIGER

@<TRIPOS>ATOM
      1 C           1.2017    0.8788   20.4677 C.ar    1  UNL1        0.0696
      2 C           1.6239    1.0775   21.8932 C.ar    1  UNL1        0.0057
      3 C           2.7679    0.2856   22.4539 C.ar    1  UNL1       -0.0041
      4 C           3.4896   -0.7049   21.5890 C.ar    1  UNL1       -0.0185
      5 C           3.0673   -0.9035   20.1635 C.ar    1  UNL1        0.0677
      6 C           1.9233   -0.1117   19.6028 C.ar    1  UNL1        0.0095
      7 C           4.6336   -1.4967   22.1496 C.3     1  UNL1        0.0257
      8 C           4.3680   -2.7585   22.9160 C.3     1  UNL1        0.0259
      9 C           5.5120   -3.5503   23.4767 C.3     1  UNL1        0.0940
     10 N           6.9215   -3.0804   23.2709 N.am    1  UNL1       -0.2760
     11 C           8.0655   -3.8722   23.8316 C.2     1  UNL1        0.2505
     12 O           9.4750   -3.4023   23.6258 O.2     1  UNL1       -0.2699
     13 C           7.1871   -1.8186   22.5045 C.3     1  UNL1        0.0940
     14 C           6.0431   -1.0268   21.9439 C.3     1  UNL1        0.0259
     15 C           7.7999   -5.1340   24.5980 C.ar    1  UNL1        0.0729
     16 C           8.2738   -6.4518   24.0605 C.ar    1  UNL1        0.0109
     17 C           8.0083   -7.7136   24.8269 C.ar    1  UNL1        0.0577
     18 C           7.2689   -7.6576   26.1308 C.ar    1  UNL1        0.2216
     19 O           7.0033   -8.9194   26.8972 O.3     1  UNL1       -0.4919
     20 N           6.7950   -6.3398   26.6683 N.ar    1  UNL1       -0.2101
     21 C           7.0606   -5.0780   25.9019 C.ar    1  UNL1        0.1065
     22 H           7.2993   -9.7426   26.5614 H       1  UNL1        0.2937
     23 N          -0.9843    2.2365   20.8258 N.am    1  UNL1       -0.1708
     24 C           0.0577    1.6706   19.9071 C.2     1  UNL1        0.3078
     25 O          -0.0443    1.8966   18.4277 O.2     1  UNL1       -0.2516
     26 H          -0.9173    2.0882   21.7967 H       1  UNL1        0.2545
     27 N          -3.5316    2.7326   20.7043 N.pl3   1  UNL1       -0.1313
     28 C          -2.1283    3.0284   20.2651 C.2     1  UNL1        0.3751
     29 N          -1.8688    4.1160   19.2652 N.pl3   1  UNL1       -0.2906
     30 H          -4.2825    3.2523   20.3363 H       1  UNL1        0.3060
     31 H          -2.6196    4.6358   18.8972 H       1  UNL1        0.2545
     32 H          -0.9476    4.3102   18.9770 H       1  UNL1        0.2545
     33 C           3.7890   -1.8940   19.2985 C.3     1  UNL1        0.4183
     34 F           4.5106   -2.8845   18.4336 F       1  UNL1       -0.1659
     35 F           4.7356   -0.8179   18.8560 F       1  UNL1       -0.1659
     36 F           2.8424   -2.9701   19.7411 F       1  UNL1       -0.1659
@<TRIPOS>BOND
     1    27    28    2
     2    28    29    1
     3    28    23    1
     4    23    24   am
     5    24    25    2
     6    24     1    1
     7     1     2   ar
     8     2     3   ar
     9     3     4   ar
    10     4     7    1
    11     7     8    1
    12     8     9    1
    13     9    10    1
    14    10    11   am
    15    11    12    2
    16    11    15    1
    17    15    16   ar
    18    16    17   ar
    19    17    18   ar
    20    18    19    1
    21    18    20   ar
    22    20    21   ar
    23    10    13    1
    24    13    14    1
    25     4     5   ar
    26     5    33    1
    27    33    34    1
    28    33    35    1
    29    33    36    1
    30     5     6   ar
    31     6     1   ar
    32    14     7    1
    33    21    15   ar
    34    27    30    1
    35    29    31    1
    36    29    32    1
    37    23    26    1
    38    19    22    1
@<TRIPOS>MOLECULE
*****
 36 38 0 0 0
SMALL
GASTEIGER

@<TRIPOS>ATOM
      1 C           3.2303   -0.1101   29.4690 C.ar    1  UNL1        0.0696
      2 C           3.6994    0.9018   28.4661 C.ar    1  UNL1        0.0057
      3 C           2.7016    1.7403   27.7237 C.ar    1  UNL1       -0.0041
      4 C           1.2346    1.5669   27.9841 C.ar    1  UNL1       -0.0185
      5 C           0.7655    0.5549   28.9870 C.ar    1  UNL1        0.0677
      6 C           1.7633   -0.2836   29.7294 C.ar    1  UNL1        0.0095
      7 C           0.2368    2.4054   27.2416 C.3     1  UNL1        0.0257
      8 C          -0.3552    1.9054   25.9573 C.3     1  UNL1        0.0259
      9 C          -1.3530    2.7439   25.2148 C.3     1  UNL1        0.0940
     10 N          -1.7589    4.0824   25.7567 N.am    1  UNL1       -0.2760
     11 C          -2.7567    4.9209   25.0142 C.2     1  UNL1        0.2505
     12 O          -3.1625    6.2594   25.5561 O.2     1  UNL1       -0.2699
     13 C          -1.1669    4.5824   27.0410 C.3     1  UNL1        0.0940
     14 C          -0.1690    3.7439   27.7835 C.3     1  UNL1        0.0259
     15 C          -3.3487    4.4208   23.7299 C.ar    1  UNL1        0.0729
     16 C          -4.5580    3.5337   23.7567 C.ar    1  UNL1        0.0109
     17 C          -5.1500    3.0337   22.4724 C.ar    1  UNL1        0.0577
     18 C          -4.5327    3.4208   21.1612 C.ar    1  UNL1        0.2216
     19 O          -5.1247    2.9207   19.8769 O.3     1  UNL1       -0.4919
     20 N          -3.3234    4.3078   21.1344 N.ar    1  UNL1       -0.2101
     21 C          -2.7314    4.8079   22.4187 C.ar    1  UNL1        0.1065
     22 H          -5.8801    2.3666   19.8936 H       1  UNL1        0.2937
     23 N           3.9931   -1.2945   31.6520 N.am    1  UNL1       -0.1708
     24 C           4.2281   -0.9486   30.2115 C.2     1  UNL1        0.3078
     25 O           5.4610   -1.4413   29.5134 O.2     1  UNL1       -0.2516
     26 H           3.1839   -0.9711   32.1101 H       1  UNL1        0.2545
     27 N           4.5287   -3.3086   33.2032 N.pl3   1  UNL1       -0.1313
     28 C           4.9909   -2.1330   32.3944 C.2     1  UNL1        0.3751
     29 N           6.4511   -1.7958   32.3281 N.pl3   1  UNL1       -0.2906
     30 H           5.1836   -3.8589   33.6905 H       1  UNL1        0.3060
     31 H           7.1060   -2.3461   32.8154 H       1  UNL1        0.2545
     32 H           6.7545   -1.0241   31.7973 H       1  UNL1        0.2545
     33 C          -0.7015    0.3814   29.2474 C.3     1  UNL1        0.4183
     34 F          -2.1685    0.2079   29.5079 F       1  UNL1       -0.1659
     35 F          -0.6260    1.3966   30.3491 F       1  UNL1       -0.1659
     36 F          -0.7770   -0.6337   28.1458 F       1  UNL1       -0.1659
@<TRIPOS>BOND
     1    27    28    2
     2    28    29    1
     3    28    23    1
     4    23    24   am
     5    24    25    2
     6    24     1    1
     7     1     2   ar
     8     2     3   ar
     9     3     4   ar
    10     4     7    1
    11     7     8    1
    12     8     9    1
    13     9    10    1
    14    10    11   am
    15    11    12    2
    16    11    15    1
    17    15    16   ar
    18    16    17   ar
    19    17    18   ar
    20    18    19    1
    21    18    20   ar
    22    20    21   ar
    23    10    13    1
    24    13    14    1
    25     4     5   ar
    26     5    33    1
    27    33    34    1
    28    33    35    1
    29    33    36    1
    30     5     6   ar
    31     6     1   ar
    32    14     7    1
    33    21    15   ar
    34    27    30    1
    35    29    31    1
    36    29    32    1
    37    23    26    1
    38    19    22    1
@<TRIPOS>MOLECULE
*****
 36 38 0 0 0
SMALL
GASTEIGER

@<TRIPOS>ATOM
      1 C           4.5009   -2.3103   22.9383 C.ar    1  UNL1        0.0696
      2 C           3.8229   -1.4532   23.9658 C.ar    1  UNL1        0.0057
      3 C           2.9176   -0.3382   23.5333 C.ar    1  UNL1       -0.0041
      4 C           2.6903   -0.0801   22.0733 C.ar    1  UNL1       -0.0185
      5 C           3.3683   -0.9372   21.0458 C.ar    1  UNL1        0.0677
      6 C           4.2736   -2.0523   21.4783 C.ar    1  UNL1        0.0095
      7 C           1.7850    1.0349   21.6408 C.3     1  UNL1        0.0257
      8 C           0.3750    0.7376   21.2245 C.3     1  UNL1        0.0259
      9 C          -0.5303    1.8527   20.7920 C.3     1  UNL1        0.0940
     10 N          -0.0255    3.2651   20.7757 N.am    1  UNL1       -0.2760
     11 C          -0.9308    4.3802   20.3432 C.2     1  UNL1        0.2505
     12 O          -0.4261    5.7926   20.3270 O.2     1  UNL1       -0.2699
     13 C           1.3845    3.5624   21.1920 C.3     1  UNL1        0.0940
     14 C           2.2898    2.4473   21.6245 C.3     1  UNL1        0.0259
     15 C          -2.3408    4.0828   19.9269 C.ar    1  UNL1        0.0729
     16 C          -3.3722    3.7416   20.9614 C.ar    1  UNL1        0.0109
     17 C          -4.7822    3.4443   20.5451 C.ar    1  UNL1        0.0577
     18 C          -5.1610    3.4882   19.0944 C.ar    1  UNL1        0.2216
     19 O          -6.5711    3.1908   18.6781 O.3     1  UNL1       -0.4919
     20 N          -4.1298    3.8294   18.0599 N.ar    1  UNL1       -0.2101
     21 C          -2.7196    4.1267   18.4762 C.ar    1  UNL1        0.1065
     22 H          -7.2153    2.9777   19.3243 H       1  UNL1        0.2937
     23 N           5.8341   -3.5307   24.8046 N.am    1  UNL1       -0.1708
     24 C           5.4062   -3.4254   23.3709 C.2     1  UNL1        0.3078
     25 O           5.8835   -4.4351   22.3696 O.2     1  UNL1       -0.2516
     26 H           5.5208   -2.8680   25.4618 H       1  UNL1        0.2545
     27 N           6.4524   -5.3964   26.5037 N.pl3   1  UNL1       -0.1313
     28 C           6.7394   -4.6458   25.2371 C.2     1  UNL1        0.3751
     29 N           7.9317   -5.0103   24.4030 N.pl3   1  UNL1       -0.2906
     30 H           7.0466   -6.1282   26.7876 H       1  UNL1        0.3060
     31 H           8.5259   -5.7421   24.6869 H       1  UNL1        0.2545
     32 H           8.1200   -4.5176   23.5717 H       1  UNL1        0.2545
     33 C           3.1410   -0.6792   19.5857 C.3     1  UNL1        0.4183
     34 F           2.9137   -0.4212   18.1257 F       1  UNL1       -0.1659
     35 F           4.3156    0.2535   19.5676 F       1  UNL1       -0.1659
     36 F           1.9664   -1.6118   19.6038 F       1  UNL1       -0.1659
@<TRIPOS>BOND
     1    27    28    2
     2    28    29    1
     3    28    23    1
     4    23    24   am
     5    24    25    2
     6    24     1    1
     7     1     2   ar
     8     2     3   ar
     9     3     4   ar
    10     4     7    1
    11     7     8    1
    12     8     9    1
    13     9    10    1
    14    10    11   am
    15    11    12    2
    16    11    15    1
    17    15    16   ar
    18    16    17   ar
    19    17    18   ar
    20    18    19    1
    21    18    20   ar
    22    20    21   ar
    23    10    13    1
    24    13    14    1
    25     4     5   ar
    26     5    33    1
    27    33    34    1
    28    33    35    1
    29    33    36    1
    30     5     6   ar
    31     6     1   ar
    32    14     7    1
    33    21    15   ar
    34    27    30    1
    35    29    31    1
    36    29    32    1
    37    23    26    1
    38    19    22    1
@<TRIPOS>MOLECULE
*****
 36 38 0 0 0
SMALL
GASTEIGER

@<TRIPOS>ATOM
      1 C         -11.8684   -4.3331   19.0397 C.ar    1  UNL1        0.0696
      2 C         -11.6259   -2.8812   18.7517 C.ar    1  UNL1        0.0057
      3 C         -12.7744   -1.9163   18.7426 C.ar    1  UNL1       -0.0041
      4 C         -14.1653   -2.4034   19.0216 C.ar    1  UNL1       -0.0185
      5 C         -14.4079   -3.8553   19.3097 C.ar    1  UNL1        0.0677
      6 C         -13.2594   -4.8202   19.3188 C.ar    1  UNL1        0.0095
      7 C         -15.3138   -1.4385   19.0125 C.3     1  UNL1        0.0257
      8 C         -15.7033   -0.7243   20.2727 C.3     1  UNL1        0.0259
      9 C         -16.8518    0.2405   20.2637 C.3     1  UNL1        0.0940
     10 N         -17.6107    0.4912   18.9944 N.am    1  UNL1       -0.2760
     11 C         -18.7592    1.4561   18.9853 C.2     1  UNL1        0.2505
     12 O         -19.5181    1.7068   17.7160 O.2     1  UNL1       -0.2699
     13 C         -17.2212   -0.2230   17.7342 C.3     1  UNL1        0.0940
     14 C         -16.0727   -1.1878   17.7433 C.3     1  UNL1        0.0259
     15 C         -19.1487    2.1703   20.2455 C.ar    1  UNL1        0.0729
     16 C         -18.6126    3.5429   20.5260 C.ar    1  UNL1        0.0109
     17 C         -19.0021    4.2571   21.7863 C.ar    1  UNL1        0.0577
     18 C         -19.9277    3.5987   22.7660 C.ar    1  UNL1        0.2216
     19 O         -20.3172    4.3130   24.0263 O.3     1  UNL1       -0.4919
     20 N         -20.4638    2.2262   22.4855 N.ar    1  UNL1       -0.2101
     21 C         -20.0742    1.5119   21.2253 C.ar    1  UNL1        0.1065
     22 H         -19.9823    5.1704   24.2014 H       1  UNL1        0.2937
     23 N         -10.9409   -6.7306   18.6631 N.am    1  UNL1       -0.1708
     24 C         -10.7200   -5.2980   19.0488 C.2     1  UNL1        0.3078
     25 O          -9.3506   -4.8302   19.4436 O.2     1  UNL1       -0.2516
     26 H         -11.8397   -7.0376   18.4040 H       1  UNL1        0.2545
     27 N          -9.7317   -8.7986   17.6577 N.pl3   1  UNL1       -0.1313
     28 C          -9.7925   -7.6954   18.6722 C.2     1  UNL1        0.3751
     29 N          -8.7047   -7.5571   19.6958 N.pl3   1  UNL1       -0.2906
     30 H          -8.9780   -9.4319   17.6637 H       1  UNL1        0.3060
     31 H          -7.9510   -8.1903   19.7018 H       1  UNL1        0.2545
     32 H          -8.7446   -6.8330   20.3617 H       1  UNL1        0.2545
     33 C         -15.7989   -4.3424   19.5887 C.3     1  UNL1        0.4183
     34 F         -17.1899   -4.8295   19.8678 F       1  UNL1       -0.1659
     35 F         -16.0317   -4.5204   18.1177 F       1  UNL1       -0.1659
     36 F         -15.5661   -4.1645   21.0598 F       1  UNL1       -0.1659
@<TRIPOS>BOND
     1    27    28    2
     2    28    29    1
     3    28    23    1
     4    23    24   am
     5    24    25    2
     6    24     1    1
     7     1     2   ar
     8     2     3   ar
     9     3     4   ar
    10     4     7    1
    11     7     8    1
    12     8     9    1
    13     9    10    1
    14    10    11   am
    15    11    12    2
    16    11    15    1
    17    15    16   ar
    18    16    17   ar
    19    17    18   ar
    20    18    19    1
    21    18    20   ar
    22    20    21   ar
    23    10    13    1
    24    13    14    1
    25     4     5   ar
    26     5    33    1
    27    33    34    1
    28    33    35    1
    29    33    36    1
    30     5     6   ar
    31     6     1   ar
    32    14     7    1
    33    21    15   ar
    34    27    30    1
    35    29    31    1
    36    29    32    1
    37    23    26    1
    38    19    22    1
@<TRIPOS>MOLECULE
*****
 36 38 0 0 0
SMALL
GASTEIGER

@<TRIPOS>ATOM
      1 C          -3.8356    3.4742   24.5854 C.ar    1  UNL1        0.0696
      2 C          -4.0423    3.6693   26.0582 C.ar    1  UNL1        0.0057
      3 C          -2.8845    3.5353   27.0024 C.ar    1  UNL1       -0.0041
      4 C          -1.5199    3.2062   26.4737 C.ar    1  UNL1       -0.0185
      5 C          -1.3131    3.0111   25.0010 C.ar    1  UNL1        0.0677
      6 C          -2.4709    3.1451   24.0568 C.ar    1  UNL1        0.0095
      7 C          -0.3620    3.0722   27.4179 C.3     1  UNL1        0.0257
      8 C          -0.0063    1.7289   27.9826 C.3     1  UNL1        0.0259
      9 C           1.1515    1.5949   28.9268 C.3     1  UNL1        0.0940
     10 N           1.9537    2.8042   29.3062 N.am    1  UNL1       -0.2760
     11 C           3.1115    2.6702   30.2504 C.2     1  UNL1        0.2505
     12 O           3.9137    3.8795   30.6298 O.2     1  UNL1       -0.2699
     13 C           1.5980    4.1475   28.7415 C.3     1  UNL1        0.0940
     14 C           0.4402    4.2815   27.7973 C.3     1  UNL1        0.0259
     15 C           3.4672    1.3269   30.8151 C.ar    1  UNL1        0.0729
     16 C           4.3688    0.4056   30.0480 C.ar    1  UNL1        0.0109
     17 C           4.7244   -0.9377   30.6127 C.ar    1  UNL1        0.0577
     18 C           4.1786   -1.3598   31.9446 C.ar    1  UNL1        0.2216
     19 O           4.5343   -2.7032   32.5093 O.3     1  UNL1       -0.4919
     20 N           3.2771   -0.4386   32.7117 N.ar    1  UNL1       -0.2101
     21 C           2.9213    0.9048   32.1470 C.ar    1  UNL1        0.1065
     22 H           5.0975   -3.2787   32.0301 H       1  UNL1        0.2937
     23 N          -6.3149    4.1111   24.1417 N.am    1  UNL1       -0.1708
     24 C          -4.9934    3.6082   23.6413 C.2     1  UNL1        0.3078
     25 O          -4.8297    3.2393   22.1966 O.2     1  UNL1       -0.2516
     26 H          -6.4224    4.3532   25.0899 H       1  UNL1        0.2545
     27 N          -8.8395    3.7920   23.6178 N.pl3   1  UNL1       -0.1313
     28 C          -7.4728    4.2451   23.1976 C.2     1  UNL1        0.3751
     29 N          -7.2638    4.8322   21.8331 N.pl3   1  UNL1       -0.2906
     30 H          -9.5995    3.8799   22.9981 H       1  UNL1        0.3060
     31 H          -8.0237    4.9201   21.2134 H       1  UNL1        0.2545
     32 H          -6.3668    5.1296   21.5573 H       1  UNL1        0.2545
     33 C           0.0516    2.6820   24.4723 C.3     1  UNL1        0.4183
     34 F           1.4162    2.3530   23.9436 F       1  UNL1       -0.1659
     35 F          -0.2163    1.2222   24.6893 F       1  UNL1       -0.1659
     36 F           0.3195    4.1418   24.2552 F       1  UNL1       -0.1659
@<TRIPOS>BOND
     1    27    28    2
     2    28    29    1
     3    28    23    1
     4    23    24   am
     5    24    25    2
     6    24     1    1
     7     1     2   ar
     8     2     3   ar
     9     3     4   ar
    10     4     7    1
    11     7     8    1
    12     8     9    1
    13     9    10    1
    14    10    11   am
    15    11    12    2
    16    11    15    1
    17    15    16   ar
    18    16    17   ar
    19    17    18   ar
    20    18    19    1
    21    18    20   ar
    22    20    21   ar
    23    10    13    1
    24    13    14    1
    25     4     5   ar
    26     5    33    1
    27    33    34    1
    28    33    35    1
    29    33    36    1
    30     5     6   ar
    31     6     1   ar
    32    14     7    1
    33    21    15   ar
    34    27    30    1
    35    29    31    1
    36    29    32    1
    37    23    26    1
    38    19    22    1
@<TRIPOS>MOLECULE
*****
 36 38 0 0 0
SMALL
GASTEIGER

@<TRIPOS>ATOM
      1 C          -1.0600    2.6279   26.1277 C.ar    1  UNL1        0.0696
      2 C          -0.1380    1.8983   25.1963 C.ar    1  UNL1        0.0057
      3 C           1.1465    1.3207   25.7125 C.ar    1  UNL1       -0.0041
      4 C           1.5090    1.4727   27.1600 C.ar    1  UNL1       -0.0185
      5 C           0.5870    2.2023   28.0914 C.ar    1  UNL1        0.0677
      6 C          -0.6975    2.7799   27.5753 C.ar    1  UNL1        0.0095
      7 C           2.7935    0.8950   27.6761 C.3     1  UNL1        0.0257
      8 C           2.7883   -0.4210   28.3959 C.3     1  UNL1        0.0259
      9 C           4.0728   -0.9986   28.9120 C.3     1  UNL1        0.0940
     10 N           5.3625   -0.2603   28.7084 N.am    1  UNL1       -0.2760
     11 C           6.6470   -0.8379   29.2245 C.2     1  UNL1        0.2505
     12 O           7.9367   -0.0996   29.0209 O.2     1  UNL1       -0.2699
     13 C           5.3677    1.0557   27.9886 C.3     1  UNL1        0.0940
     14 C           4.0832    1.6334   27.4725 C.3     1  UNL1        0.0259
     15 C           6.6418   -2.1539   29.9443 C.ar    1  UNL1        0.0729
     16 C           6.4138   -2.1973   31.4263 C.ar    1  UNL1        0.0109
     17 C           6.4086   -3.5133   32.1460 C.ar    1  UNL1        0.0577
     18 C           6.6314   -4.7859   31.3839 C.ar    1  UNL1        0.2216
     19 O           6.6262   -6.1019   32.1038 O.3     1  UNL1       -0.4919
     20 N           6.8594   -4.7425   29.9020 N.ar    1  UNL1       -0.2101
     21 C           6.8646   -3.4265   29.1822 C.ar    1  UNL1        0.1065
     22 H           6.4838   -6.1290   33.0295 H       1  UNL1        0.2937
     23 N          -3.4315    3.5926   26.5701 N.am    1  UNL1       -0.1708
     24 C          -2.3445    3.2056   25.6116 C.2     1  UNL1        0.3078
     25 O          -2.5421    3.3963   24.1370 O.2     1  UNL1       -0.2516
     26 H          -3.3018    3.4674   27.5380 H       1  UNL1        0.2545
     27 N          -5.5299    3.4101   25.0491 N.pl3   1  UNL1       -0.1313
     28 C          -4.7160    4.1702   26.0540 C.2     1  UNL1        0.3751
     29 N          -5.1866    5.5080   26.5427 N.pl3   1  UNL1       -0.2906
     30 H          -6.3729    3.7892   24.7104 H       1  UNL1        0.3060
     31 H          -6.0296    5.8872   26.2040 H       1  UNL1        0.2545
     32 H          -4.6524    6.0069   27.2023 H       1  UNL1        0.2545
     33 C           0.9495    2.3543   29.5391 C.3     1  UNL1        0.4183
     34 F           1.3120    2.5063   30.9866 F       1  UNL1       -0.1659
     35 F           0.1771    1.1100   29.8632 F       1  UNL1       -0.1659
     36 F           1.7219    3.5985   29.2149 F       1  UNL1       -0.1659
@<TRIPOS>BOND
     1    27    28    2
     2    28    29    1
     3    28    23    1
     4    23    24   am
     5    24    25    2
     6    24     1    1
     7     1     2   ar
     8     2     3   ar
     9     3     4   ar
    10     4     7    1
    11     7     8    1
    12     8     9    1
    13     9    10    1
    14    10    11   am
    15    11    12    2
    16    11    15    1
    17    15    16   ar
    18    16    17   ar
    19    17    18   ar
    20    18    19    1
    21    18    20   ar
    22    20    21   ar
    23    10    13    1
    24    13    14    1
    25     4     5   ar
    26     5    33    1
    27    33    34    1
    28    33    35    1
    29    33    36    1
    30     5     6   ar
    31     6     1   ar
    32    14     7    1
    33    21    15   ar
    34    27    30    1
    35    29    31    1
    36    29    32    1
    37    23    26    1
    38    19    22    1
@<TRIPOS>MOLECULE
*****
 36 38 0 0 0
SMALL
GASTEIGER

@<TRIPOS>ATOM
      1 C           1.1670    1.0094   20.3076 C.ar    1  UNL1        0.0696
      2 C           1.2735   -0.3522   19.6875 C.ar    1  UNL1        0.0057
      3 C           2.3883   -1.2730   20.0867 C.ar    1  UNL1       -0.0041
      4 C           3.3966   -0.8322   21.1059 C.ar    1  UNL1       -0.0185
      5 C           3.2901    0.5294   21.7260 C.ar    1  UNL1        0.0677
      6 C           2.1753    1.4502   21.3269 C.ar    1  UNL1        0.0095
      7 C           4.5114   -1.7530   21.5051 C.3     1  UNL1        0.0257
      8 C           4.3632   -2.6310   22.7122 C.3     1  UNL1        0.0259
      9 C           5.4780   -3.5518   23.1113 C.3     1  UNL1        0.0940
     10 N           6.7410   -3.5946   22.3034 N.am    1  UNL1       -0.2760
     11 C           7.8559   -4.5154   22.7025 C.2     1  UNL1        0.2505
     12 O           9.1189   -4.5583   21.8946 O.2     1  UNL1       -0.2699
     13 C           6.8893   -2.7166   21.0963 C.3     1  UNL1        0.0940
     14 C           5.7745   -1.7958   20.6971 C.3     1  UNL1        0.0259
     15 C           7.7076   -5.3934   23.9096 C.ar    1  UNL1        0.0729
     16 C           8.1936   -6.8120   23.8695 C.ar    1  UNL1        0.0109
     17 C           8.0453   -7.6900   25.0766 C.ar    1  UNL1        0.0577
     18 C           7.4111   -7.1495   26.3238 C.ar    1  UNL1        0.2216
     19 O           7.2629   -8.0276   27.5309 O.3     1  UNL1       -0.4919
     20 N           6.9252   -5.7310   26.3640 N.ar    1  UNL1       -0.2101
     21 C           7.0734   -4.8529   25.1569 C.ar    1  UNL1        0.1065
     22 H           7.5665   -8.9137   27.5059 H       1  UNL1        0.2937
     23 N          -1.0691    2.2090   20.8650 N.am    1  UNL1       -0.1708
     24 C           0.0522    1.9302   19.9085 C.2     1  UNL1        0.3078
     25 O           0.0587    2.5722   18.5529 O.2     1  UNL1       -0.2516
     26 H          -1.0734    1.7877   21.7548 H       1  UNL1        0.2545
     27 N          -1.8737    4.4437   19.8121 N.pl3   1  UNL1       -0.1313
     28 C          -2.1839    3.1299   20.4658 C.2     1  UNL1        0.3751
     29 N          -3.6089    2.7367   20.7205 N.pl3   1  UNL1       -0.2906
     30 H          -2.6054    5.0481   19.5501 H       1  UNL1        0.3060
     31 H          -4.3406    3.3410   20.4585 H       1  UNL1        0.2545
     32 H          -3.8125    1.8743   21.1496 H       1  UNL1        0.2545
     33 C           4.2985    0.9703   22.7454 C.3     1  UNL1        0.4183
     34 F           5.3068    1.4112   23.7646 F       1  UNL1       -0.1659
     35 F           3.4054    0.4739   23.8436 F       1  UNL1       -0.1659
     36 F           5.1915    1.4667   21.6472 F       1  UNL1       -0.1659
@<TRIPOS>BOND
     1    27    28    2
     2    28    29    1
     3    28    23    1
     4    23    24   am
     5    24    25    2
     6    24     1    1
     7     1     2   ar
     8     2     3   ar
     9     3     4   ar
    10     4     7    1
    11     7     8    1
    12     8     9    1
    13     9    10    1
    14    10    11   am
    15    11    12    2
    16    11    15    1
    17    15    16   ar
    18    16    17   ar
    19    17    18   ar
    20    18    19    1
    21    18    20   ar
    22    20    21   ar
    23    10    13    1
    24    13    14    1
    25     4     5   ar
    26     5    33    1
    27    33    34    1
    28    33    35    1
    29    33    36    1
    30     5     6   ar
    31     6     1   ar
    32    14     7    1
    33    21    15   ar
    34    27    30    1
    35    29    31    1
    36    29    32    1
    37    23    26    1
    38    19    22    1
@<TRIPOS>MOLECULE
*****
 36 38 0 0 0
SMALL
GASTEIGER

@<TRIPOS>ATOM
      1 C           2.4400   -0.0942   18.8726 C.ar    1  UNL1        0.0696
      2 C           1.5145   -0.6713   19.9023 C.ar    1  UNL1        0.0057
      3 C           0.5085    0.2083   20.5836 C.ar    1  UNL1       -0.0041
      4 C           0.4280    1.6650   20.2352 C.ar    1  UNL1       -0.0185
      5 C           1.3535    2.2421   19.2055 C.ar    1  UNL1        0.0677
      6 C           2.3595    1.3625   18.5242 C.ar    1  UNL1        0.0095
      7 C          -0.5781    2.5447   20.9165 C.3     1  UNL1        0.0257
      8 C          -1.8572    2.9009   20.2189 C.3     1  UNL1        0.0259
      9 C          -2.8633    3.7806   20.9002 C.3     1  UNL1        0.0940
     10 N          -2.5901    4.3039   22.2791 N.am    1  UNL1       -0.2760
     11 C          -3.5961    5.1836   22.9605 C.2     1  UNL1        0.2505
     12 O          -3.3229    5.7069   24.3394 O.2     1  UNL1       -0.2699
     13 C          -1.3109    3.9477   22.9767 C.3     1  UNL1        0.0940
     14 C          -0.3049    3.0680   22.2954 C.3     1  UNL1        0.0259
     15 C          -4.8753    5.5398   22.2629 C.ar    1  UNL1        0.0729
     16 C          -4.8976    6.6563   21.2612 C.ar    1  UNL1        0.0109
     17 C          -6.1768    7.0125   20.5636 C.ar    1  UNL1        0.0577
     18 C          -7.4337    6.2524   20.8676 C.ar    1  UNL1        0.2216
     19 O          -8.7130    6.6088   20.1699 O.3     1  UNL1       -0.4919
     20 N          -7.4115    5.1361   21.8692 N.ar    1  UNL1       -0.2101
     21 C          -6.1322    4.7798   22.5668 C.ar    1  UNL1        0.1065
     22 H          -8.7269    7.3061   19.5443 H       1  UNL1        0.2937
     23 N           4.1394   -2.0573   18.9628 N.am    1  UNL1       -0.1708
     24 C           3.4460   -0.9739   18.1913 C.2     1  UNL1        0.3078
     25 O           3.7586   -0.7700   16.7385 O.2     1  UNL1       -0.2516
     26 H           3.9342   -2.1911   19.9163 H       1  UNL1        0.2545
     27 N           6.3127   -2.3258   17.5648 N.pl3   1  UNL1       -0.1313
     28 C           5.1454   -2.9370   18.2815 C.2     1  UNL1        0.3751
     29 N           4.9841   -4.4279   18.3170 N.pl3   1  UNL1       -0.2906
     30 H           6.9730   -2.9031   17.1176 H       1  UNL1        0.3060
     31 H           5.6444   -5.0052   17.8698 H       1  UNL1        0.2545
     32 H           4.2179   -4.8291   18.7874 H       1  UNL1        0.2545
     33 C           1.2730    3.6989   18.8571 C.3     1  UNL1        0.4183
     34 F           1.1925    5.1556   18.5086 F       1  UNL1       -0.1659
     35 F           2.2177    4.0191   19.9773 F       1  UNL1       -0.1659
     36 F           0.3283    3.3787   17.7368 F       1  UNL1       -0.1659
@<TRIPOS>BOND
     1    27    28    2
     2    28    29    1
     3    28    23    1
     4    23    24   am
     5    24    25    2
     6    24     1    1
     7     1     2   ar
     8     2     3   ar
     9     3     4   ar
    10     4     7    1
    11     7     8    1
    12     8     9    1
    13     9    10    1
    14    10    11   am
    15    11    12    2
    16    11    15    1
    17    15    16   ar
    18    16    17   ar
    19    17    18   ar
    20    18    19    1
    21    18    20   ar
    22    20    21   ar
    23    10    13    1
    24    13    14    1
    25     4     5   ar
    26     5    33    1
    27    33    34    1
    28    33    35    1
    29    33    36    1
    30     5     6   ar
    31     6     1   ar
    32    14     7    1
    33    21    15   ar
    34    27    30    1
    35    29    31    1
    36    29    32    1
    37    23    26    1
    38    19    22    1
@<TRIPOS>MOLECULE
*****
 36 38 0 0 0
SMALL
GASTEIGER

@<TRIPOS>ATOM
      1 C         -15.5194   -7.4392   18.0767 C.ar    1  UNL1        0.0696
      2 C         -15.4487   -6.7880   16.7273 C.ar    1  UNL1        0.0057
      3 C         -15.0477   -5.3474   16.6098 C.ar    1  UNL1       -0.0041
      4 C         -14.7174   -4.5579   17.8417 C.ar    1  UNL1       -0.0185
      5 C         -14.7881   -5.2091   19.1911 C.ar    1  UNL1        0.0677
      6 C         -15.1891   -6.6497   19.3086 C.ar    1  UNL1        0.0095
      7 C         -14.3164   -3.1173   17.7242 C.3     1  UNL1        0.0257
      8 C         -15.3673   -2.0483   17.6701 C.3     1  UNL1        0.0259
      9 C         -14.9663   -0.6077   17.5526 C.3     1  UNL1        0.0940
     10 N         -13.5145   -0.2360   17.4892 N.am    1  UNL1       -0.2760
     11 C         -13.1135    1.2046   17.3717 C.2     1  UNL1        0.2505
     12 O         -11.6617    1.5762   17.3083 O.2     1  UNL1       -0.2699
     13 C         -12.4636   -1.3050   17.5433 C.3     1  UNL1        0.0940
     14 C         -12.8646   -2.7457   17.6608 C.3     1  UNL1        0.0259
     15 C         -14.1643    2.2736   17.3176 C.ar    1  UNL1        0.0729
     16 C         -14.9630    2.6030   18.5439 C.ar    1  UNL1        0.0109
     17 C         -16.0138    3.6720   18.4898 C.ar    1  UNL1        0.0577
     18 C         -16.2661    4.4116   17.2094 C.ar    1  UNL1        0.2216
     19 O         -17.3170    5.4806   17.1553 O.3     1  UNL1       -0.4919
     20 N         -15.4675    4.0822   15.9831 N.ar    1  UNL1       -0.2101
     21 C         -14.4166    3.0132   16.0372 C.ar    1  UNL1        0.1065
     22 H         -17.8158    5.6864   17.9213 H       1  UNL1        0.2937
     23 N         -17.3714   -9.2497   18.2811 N.am    1  UNL1       -0.1708
     24 C         -15.9204   -8.8798   18.1942 C.2     1  UNL1        0.3078
     25 O         -14.8703   -9.9505   18.2249 O.2     1  UNL1       -0.2516
     26 H         -18.0606   -8.5470   18.2610 H       1  UNL1        0.2545
     27 N         -16.8321  -11.6826   19.0160 N.pl3   1  UNL1       -0.1313
     28 C         -17.7724  -10.6904   18.3986 C.2     1  UNL1        0.3751
     29 N         -19.1137  -11.1387   17.8987 N.pl3   1  UNL1       -0.2906
     30 H         -17.0953  -12.6282   19.0931 H       1  UNL1        0.3060
     31 H         -19.3769  -12.0842   17.9758 H       1  UNL1        0.2545
     32 H         -19.7309  -10.4874   17.4935 H       1  UNL1        0.2545
     33 C         -14.4578   -4.4196   20.4231 C.3     1  UNL1        0.4183
     34 F         -14.1275   -3.6302   21.6550 F       1  UNL1       -0.1659
     35 F         -15.8901   -3.9871   20.5300 F       1  UNL1       -0.1659
     36 F         -13.0256   -4.8522   20.3163 F       1  UNL1       -0.1659
@<TRIPOS>BOND
     1    27    28    2
     2    28    29    1
     3    28    23    1
     4    23    24   am
     5    24    25    2
     6    24     1    1
     7     1     2   ar
     8     2     3   ar
     9     3     4   ar
    10     4     7    1
    11     7     8    1
    12     8     9    1
    13     9    10    1
    14    10    11   am
    15    11    12    2
    16    11    15    1
    17    15    16   ar
    18    16    17   ar
    19    17    18   ar
    20    18    19    1
    21    18    20   ar
    22    20    21   ar
    23    10    13    1
    24    13    14    1
    25     4     5   ar
    26     5    33    1
    27    33    34    1
    28    33    35    1
    29    33    36    1
    30     5     6   ar
    31     6     1   ar
    32    14     7    1
    33    21    15   ar
    34    27    30    1
    35    29    31    1
    36    29    32    1
    37    23    26    1
    38    19    22    1
