@<TRIPOS>MOLECULE
*****
 26 29 0 0 0
SMALL
GASTEIGER

@<TRIPOS>ATOM
      1 C         -14.9709   -7.8095   18.5472 C.2     1  UNL1        0.0161
      2 C         -14.3309   -8.7581   17.5775 C.2     1  UNL1        0.0981
      3 N         -12.9610   -8.2384   17.2562 N.2     1  UNL1       -0.2477
      4 C         -12.7543   -6.9686   18.0274 C.2     1  UNL1        0.0670
      5 C         -11.5955   -6.0194   18.1061 C.3     1  UNL1        0.1127
      6 C         -11.6789   -4.8052   18.9828 C.2     1  UNL1        0.1186
      7 C         -12.9211   -4.5401   19.7807 C.2     1  UNL1        0.0359
      8 C         -14.0799   -5.4892   19.7020 C.2     1  UNL1        0.0044
      9 C         -13.9965   -6.7034   18.8253 C.2     1  UNL1        0.0153
     10 C         -20.4640   -8.3446   20.9009 C.3     1  UNL1        0.0899
     11 N         -19.0907   -8.2108   20.3125 N.3     1  UNL1       -0.2674
     12 C         -18.2420   -9.4299   20.1041 C.3     1  UNL1        0.0986
     13 C         -16.8687   -9.2961   19.5157 C.2     1  UNL1       -0.0130
     14 C         -16.3441   -7.9433   19.1357 C.2     1  UNL1       -0.0222
     15 C         -17.1929   -6.7241   19.3441 C.3     1  UNL1        0.0434
     16 C         -18.5662   -6.8579   19.9325 C.3     1  UNL1        0.0771
     17 N         -10.5200   -3.8560   19.0616 N.pl3   1  UNL1       -0.2022
     18 H          -9.9524   -3.8378   19.8658 H       1  UNL1        0.2982
     19 C         -10.2261   -2.9344   17.9152 C.2     1  UNL1        0.3222
     20 N          -9.1767   -3.3013   16.9080 N.2     1  UNL1       -0.0985
     21 H          -8.6809   -4.1468   16.9995 H       1  UNL1        0.3633
     22 C         -10.9816   -1.6461   17.7758 C.ar    1  UNL1        0.1113
     23 C         -12.0127   -1.1210   18.7302 C.ar    1  UNL1        0.0144
     24 C         -12.5070    0.1930   18.2019 C.ar    1  UNL1        0.0077
     25 C         -11.7813    0.4800   16.9208 C.ar    1  UNL1        0.0357
     26 S         -10.8385   -0.6566   16.6575 S.2     1  UNL1       -0.0792
@<TRIPOS>BOND
     1    10    11    1
     2    11    12    1
     3    12    13    1
     4    13    14    2
     5    14     1    1
     6     1     2    2
     7     2     3    1
     8     3     4    2
     9     4     5    1
    10     5     6    1
    11     6    17    1
    12    17    19    1
    13    19    20    2
    14    19    22    1
    15    22    23   ar
    16    23    24   ar
    17    24    25   ar
    18    25    26   ar
    19     6     7    2
    20     7     8    1
    21     8     9    2
    22    14    15    1
    23    15    16    1
    24    16    11    1
    25     9     1    1
    26     9     4    1
    27    26    22   ar
    28    17    18    1
    29    20    21    1
@<TRIPOS>MOLECULE
*****
 26 29 0 0 0
SMALL
GASTEIGER

@<TRIPOS>ATOM
      1 C           3.4206   -2.0504   20.3172 C.2     1  UNL1        0.0161
      2 C           3.7814   -3.2908   19.5548 C.2     1  UNL1        0.0981
      3 N           4.5744   -4.1804   20.4658 N.2     1  UNL1       -0.2477
      4 C           4.7036   -3.4899   21.7911 C.2     1  UNL1        0.0670
      5 C           5.3785   -3.8897   23.0696 C.3     1  UNL1        0.1127
      6 C           5.3402   -2.9730   24.2563 C.2     1  UNL1        0.1186
      7 C           4.6271   -1.6566   24.1645 C.2     1  UNL1        0.0359
      8 C           3.9522   -1.2568   22.8859 C.2     1  UNL1        0.0044
      9 C           3.9905   -2.1734   21.6992 C.2     1  UNL1        0.0153
     10 C           0.2532    2.5888   18.2087 C.3     1  UNL1        0.0899
     11 N           1.0450    1.4290   18.7358 N.3     1  UNL1       -0.2674
     12 C           2.4337    1.1765   18.2283 C.3     1  UNL1        0.0986
     13 C           3.2256    0.0166   18.7554 C.2     1  UNL1       -0.0130
     14 C           2.6287   -0.8906   19.7901 C.2     1  UNL1       -0.0222
     15 C           1.2399   -0.6381   20.2976 C.3     1  UNL1        0.0434
     16 C           0.4481    0.5217   19.7705 C.3     1  UNL1        0.0771
     17 N           6.0151   -3.3728   25.5349 N.pl3   1  UNL1       -0.2022
     18 H           5.5503   -3.2548   26.3947 H       1  UNL1        0.2982
     19 C           7.3983   -3.9524   25.5035 C.2     1  UNL1        0.3222
     20 N           8.5925   -3.0451   25.5312 N.2     1  UNL1       -0.0985
     21 H           8.4684   -2.0692   25.5701 H       1  UNL1        0.3633
     22 C           7.5873   -5.4392   25.4442 C.ar    1  UNL1        0.1113
     23 C           8.1907   -6.2066   24.3054 C.ar    1  UNL1        0.0144
     24 C           8.1824   -7.6614   24.6707 C.ar    1  UNL1        0.0077
     25 C           7.5739   -7.7932   26.0355 C.ar    1  UNL1        0.0357
     26 S           7.2061   -6.4198   26.5135 S.2     1  UNL1       -0.0792
@<TRIPOS>BOND
     1    10    11    1
     2    11    12    1
     3    12    13    1
     4    13    14    2
     5    14     1    1
     6     1     2    2
     7     2     3    1
     8     3     4    2
     9     4     5    1
    10     5     6    1
    11     6    17    1
    12    17    19    1
    13    19    20    2
    14    19    22    1
    15    22    23   ar
    16    23    24   ar
    17    24    25   ar
    18    25    26   ar
    19     6     7    2
    20     7     8    1
    21     8     9    2
    22    14    15    1
    23    15    16    1
    24    16    11    1
    25     9     1    1
    26     9     4    1
    27    26    22   ar
    28    17    18    1
    29    20    21    1
@<TRIPOS>MOLECULE
*****
 26 29 0 0 0
SMALL
GASTEIGER

@<TRIPOS>ATOM
      1 C         -11.4909   -3.9301   18.1857 C.2     1  UNL1        0.0161
      2 C         -10.3997   -4.5573   19.0016 C.2     1  UNL1        0.0981
      3 N         -10.6313   -6.0392   19.0243 N.2     1  UNL1       -0.2477
      4 C         -11.8658   -6.3278   18.2225 C.2     1  UNL1        0.0670
      5 C         -12.5747   -7.6090   17.8974 C.3     1  UNL1        0.1127
      6 C         -13.8148   -7.5868   17.0540 C.2     1  UNL1        0.1186
      7 C         -14.3461   -6.2833   16.5357 C.2     1  UNL1        0.0359
      8 C         -13.6372   -5.0020   16.8608 C.2     1  UNL1        0.0044
      9 C         -12.3970   -5.0243   17.7042 C.2     1  UNL1        0.0153
     10 C         -12.1212    1.9273   17.0478 C.3     1  UNL1        0.0899
     11 N         -11.9637    0.4629   17.3323 N.3     1  UNL1       -0.2674
     12 C         -10.9648   -0.3477   16.5610 C.3     1  UNL1        0.0986
     13 C         -10.8072   -1.8121   16.8454 C.2     1  UNL1       -0.0130
     14 C         -11.6485   -2.4658   17.9012 C.2     1  UNL1       -0.0222
     15 C         -12.6475   -1.6551   18.6726 C.3     1  UNL1        0.0434
     16 C         -12.8050   -0.1908   18.3881 C.3     1  UNL1        0.0771
     17 N         -14.5238   -8.8681   16.7288 N.pl3   1  UNL1       -0.2022
     18 H         -14.4138   -9.2801   15.8415 H       1  UNL1        0.2982
     19 C         -15.4004   -9.5217   17.7557 C.2     1  UNL1        0.3222
     20 N         -15.1841  -10.9606   18.1201 N.2     1  UNL1       -0.0985
     21 H         -14.4668  -11.4760   17.6854 H       1  UNL1        0.3633
     22 C         -16.4933   -8.7363   18.4181 C.ar    1  UNL1        0.1113
     23 C         -16.6772   -8.5544   19.8956 C.ar    1  UNL1        0.0144
     24 C         -17.8917   -7.7007   20.1099 C.ar    1  UNL1        0.0077
     25 C         -18.4586   -7.3549   18.7648 C.ar    1  UNL1        0.0357
     26 S         -17.5943   -7.9950   17.7192 S.2     1  UNL1       -0.0792
@<TRIPOS>BOND
     1    10    11    1
     2    11    12    1
     3    12    13    1
     4    13    14    2
     5    14     1    1
     6     1     2    2
     7     2     3    1
     8     3     4    2
     9     4     5    1
    10     5     6    1
    11     6    17    1
    12    17    19    1
    13    19    20    2
    14    19    22    1
    15    22    23   ar
    16    23    24   ar
    17    24    25   ar
    18    25    26   ar
    19     6     7    2
    20     7     8    1
    21     8     9    2
    22    14    15    1
    23    15    16    1
    24    16    11    1
    25     9     1    1
    26     9     4    1
    27    26    22   ar
    28    17    18    1
    29    20    21    1
@<TRIPOS>MOLECULE
*****
 26 29 0 0 0
SMALL
GASTEIGER

@<TRIPOS>ATOM
      1 C         -13.0074   -1.7280   18.9197 C.2     1  UNL1        0.0161
      2 C         -11.5217   -1.5535   18.8086 C.2     1  UNL1        0.0981
      3 N         -10.8961   -2.9164   18.7769 N.2     1  UNL1       -0.2477
      4 C         -11.9951   -3.9332   18.8684 C.2     1  UNL1        0.0670
      5 C         -11.9762   -5.4330   18.8828 C.3     1  UNL1        0.1127
      6 C         -13.2622   -6.1983   18.9854 C.2     1  UNL1        0.1186
      7 C         -14.5670   -5.4638   19.0737 C.2     1  UNL1        0.0359
      8 C         -14.5859   -3.9640   19.0593 C.2     1  UNL1        0.0044
      9 C         -13.2999   -3.1987   18.9567 C.2     1  UNL1        0.0153
     10 C         -17.0673    2.6827   19.1720 C.3     1  UNL1        0.0899
     11 N         -16.0524    1.5800   19.1090 N.3     1  UNL1       -0.2674
     12 C         -14.7538    1.7961   18.3899 C.3     1  UNL1        0.0986
     13 C         -13.7388    0.6935   18.3268 C.2     1  UNL1       -0.0130
     14 C         -14.0223   -0.6253   18.9828 C.2     1  UNL1       -0.0222
     15 C         -15.3210   -0.8415   19.7019 C.3     1  UNL1        0.0434
     16 C         -16.3359    0.2612   19.7649 C.3     1  UNL1        0.0771
     17 N         -13.2433   -7.6981   18.9998 N.pl3   1  UNL1       -0.2022
     18 H         -12.6595   -8.1771   19.6315 H       1  UNL1        0.2982
     19 C         -14.1140   -8.4682   18.0517 C.2     1  UNL1        0.3222
     20 N         -13.7497   -8.5527   16.5991 N.2     1  UNL1       -0.0985
     21 H         -12.9391   -8.1026   16.2679 H       1  UNL1        0.3633
     22 C         -15.3490   -9.1539   18.5563 C.ar    1  UNL1        0.1113
     23 C         -16.2197   -8.6846   19.6839 C.ar    1  UNL1        0.0144
     24 C         -17.3390   -9.6699   19.8464 C.ar    1  UNL1        0.0077
     25 C         -17.1600  -10.7482   18.8191 C.ar    1  UNL1        0.0357
     26 S         -15.9302  -10.4293   18.0218 S.2     1  UNL1       -0.0792
@<TRIPOS>BOND
     1    10    11    1
     2    11    12    1
     3    12    13    1
     4    13    14    2
     5    14     1    1
     6     1     2    2
     7     2     3    1
     8     3     4    2
     9     4     5    1
    10     5     6    1
    11     6    17    1
    12    17    19    1
    13    19    20    2
    14    19    22    1
    15    22    23   ar
    16    23    24   ar
    17    24    25   ar
    18    25    26   ar
    19     6     7    2
    20     7     8    1
    21     8     9    2
    22    14    15    1
    23    15    16    1
    24    16    11    1
    25     9     1    1
    26     9     4    1
    27    26    22   ar
    28    17    18    1
    29    20    21    1
@<TRIPOS>MOLECULE
*****
 26 29 0 0 0
SMALL
GASTEIGER

@<TRIPOS>ATOM
      1 C           4.0518   -1.2399   19.1295 C.2     1  UNL1        0.0161
      2 C           4.4181   -1.7263   17.7587 C.2     1  UNL1        0.0981
      3 N           5.6438   -2.5820   17.8827 N.2     1  UNL1       -0.2477
      4 C           6.0351   -2.6245   19.3301 C.2     1  UNL1        0.0670
      5 C           7.1602   -3.3112   20.0460 C.3     1  UNL1        0.1127
      6 C           7.3013   -3.1685   21.5325 C.2     1  UNL1        0.1186
      7 C           6.3174   -2.3390   22.3031 C.2     1  UNL1        0.0359
      8 C           5.1923   -1.6523   21.5872 C.2     1  UNL1        0.0044
      9 C           5.0512   -1.7950   20.1008 C.2     1  UNL1        0.0153
     10 C          -0.5949    2.3040   20.4895 C.3     1  UNL1        0.0899
     11 N           0.5668    1.4181   20.1495 N.3     1  UNL1       -0.2674
     12 C           0.5193   -0.0430   20.4855 C.3     1  UNL1        0.0986
     13 C           1.6810   -0.9290   20.1455 C.2     1  UNL1       -0.0130
     14 C           2.8902   -0.3539   19.4695 C.2     1  UNL1       -0.0222
     15 C           2.9377    1.1072   19.1335 C.3     1  UNL1        0.0434
     16 C           1.7760    1.9932   19.4735 C.3     1  UNL1        0.0771
     17 N           8.4264   -3.8553   22.2484 N.pl3   1  UNL1       -0.2022
     18 H           9.1728   -3.3272   22.6135 H       1  UNL1        0.2982
     19 C           8.4143   -5.3467   22.4081 C.2     1  UNL1        0.3222
     20 N           8.7203   -6.2292   21.2344 N.2     1  UNL1       -0.0985
     21 H           8.9291   -5.8296   20.3592 H       1  UNL1        0.3633
     22 C           8.0962   -5.9557   23.7415 C.ar    1  UNL1        0.1113
     23 C           8.3264   -7.3845   24.1357 C.ar    1  UNL1        0.0144
     24 C           7.8645   -7.5546   25.5526 C.ar    1  UNL1        0.0077
     25 C           7.3487   -6.2309   26.0342 C.ar    1  UNL1        0.0357
     26 S           7.4919   -5.2427   24.9148 S.2     1  UNL1       -0.0792
@<TRIPOS>BOND
     1    10    11    1
     2    11    12    1
     3    12    13    1
     4    13    14    2
     5    14     1    1
     6     1     2    2
     7     2     3    1
     8     3     4    2
     9     4     5    1
    10     5     6    1
    11     6    17    1
    12    17    19    1
    13    19    20    2
    14    19    22    1
    15    22    23   ar
    16    23    24   ar
    17    24    25   ar
    18    25    26   ar
    19     6     7    2
    20     7     8    1
    21     8     9    2
    22    14    15    1
    23    15    16    1
    24    16    11    1
    25     9     1    1
    26     9     4    1
    27    26    22   ar
    28    17    18    1
    29    20    21    1
@<TRIPOS>MOLECULE
*****
 26 29 0 0 0
SMALL
GASTEIGER

@<TRIPOS>ATOM
      1 C           7.5550   -3.9958   23.0642 C.2     1  UNL1        0.0161
      2 C           8.9063   -3.8337   22.4336 C.2     1  UNL1        0.0981
      3 N           8.7050   -3.5134   20.9821 N.2     1  UNL1       -0.2477
      4 C           7.2293   -3.4775   20.7156 C.2     1  UNL1        0.0670
      5 C           6.4410   -3.2118   19.4675 C.3     1  UNL1        0.1127
      6 C           4.9418   -3.2442   19.5062 C.2     1  UNL1        0.1186
      7 C           4.2311   -3.5424   20.7930 C.2     1  UNL1        0.0359
      8 C           5.0194   -3.8081   22.0411 C.2     1  UNL1        0.0044
      9 C           6.5185   -3.7756   22.0024 C.2     1  UNL1        0.0153
     10 C           6.4834   -5.2964   28.8227 C.3     1  UNL1        0.0899
     11 N           6.7513   -4.9712   27.3831 N.3     1  UNL1       -0.2674
     12 C           7.2132   -6.0464   26.4448 C.3     1  UNL1        0.0986
     13 C           7.4811   -5.7212   25.0051 C.2     1  UNL1       -0.0130
     14 C           7.2871   -4.3210   24.5038 C.2     1  UNL1       -0.0222
     15 C           6.8251   -3.2457   25.4422 C.3     1  UNL1        0.0434
     16 C           6.5572   -3.5708   26.8818 C.3     1  UNL1        0.0771
     17 N           4.1534   -2.9785   18.2580 N.pl3   1  UNL1       -0.2022
     18 H           3.8233   -3.7304   17.7149 H       1  UNL1        0.2982
     19 C           3.8680   -1.5673   17.8374 C.2     1  UNL1        0.3222
     20 N           3.8447   -1.2089   16.3810 N.2     1  UNL1       -0.0985
     21 H           4.0168   -1.8999   15.7012 H       1  UNL1        0.3633
     22 C           3.6058   -0.5145   18.8731 C.ar    1  UNL1        0.1113
     23 C           2.4029   -0.4360   19.7657 C.ar    1  UNL1        0.0144
     24 C           2.5541    0.7717   20.6424 C.ar    1  UNL1        0.0077
     25 C           3.8505    1.4397   20.2915 C.ar    1  UNL1        0.0357
     26 S           4.5005    0.6448   19.1981 S.2     1  UNL1       -0.0792
@<TRIPOS>BOND
     1    10    11    1
     2    11    12    1
     3    12    13    1
     4    13    14    2
     5    14     1    1
     6     1     2    2
     7     2     3    1
     8     3     4    2
     9     4     5    1
    10     5     6    1
    11     6    17    1
    12    17    19    1
    13    19    20    2
    14    19    22    1
    15    22    23   ar
    16    23    24   ar
    17    24    25   ar
    18    25    26   ar
    19     6     7    2
    20     7     8    1
    21     8     9    2
    22    14    15    1
    23    15    16    1
    24    16    11    1
    25     9     1    1
    26     9     4    1
    27    26    22   ar
    28    17    18    1
    29    20    21    1
@<TRIPOS>MOLECULE
*****
 26 29 0 0 0
SMALL
GASTEIGER

@<TRIPOS>ATOM
      1 C           1.0584    1.6169   19.1147 C.2     1  UNL1        0.0161
      2 C           0.2095    1.1901   20.2754 C.2     1  UNL1        0.0981
      3 N           0.6579   -0.1770   20.6996 N.2     1  UNL1       -0.2477
      4 C           1.7840   -0.5951   19.8011 C.2     1  UNL1        0.0670
      5 C           2.6159   -1.8421   19.7484 C.3     1  UNL1        0.1127
      6 C           3.6953   -1.9804   18.7161 C.2     1  UNL1        0.1186
      7 C           3.9429   -0.8716   17.7366 C.2     1  UNL1        0.0359
      8 C           3.1110    0.3754   17.7894 C.2     1  UNL1        0.0044
      9 C           2.0315    0.5136   18.8216 C.2     1  UNL1        0.0153
     10 C           0.6362    6.8235   16.1628 C.3     1  UNL1        0.0899
     11 N           0.7418    5.5219   16.9008 N.3     1  UNL1       -0.2674
     12 C          -0.4365    4.5955   16.9599 C.3     1  UNL1        0.0986
     13 C          -0.3309    3.2939   17.6979 C.2     1  UNL1       -0.0130
     14 C           0.9528    2.9185   18.3768 C.2     1  UNL1       -0.0222
     15 C           2.1312    3.8450   18.3177 C.3     1  UNL1        0.0434
     16 C           2.0256    5.1466   17.5797 C.3     1  UNL1        0.0771
     17 N           4.5273   -3.2274   18.6633 N.pl3   1  UNL1       -0.2022
     18 H           5.0775   -3.4189   17.8697 H       1  UNL1        0.2982
     19 C           4.5211   -4.1827   19.8198 C.2     1  UNL1        0.3222
     20 N           3.8015   -5.4939   19.7056 N.2     1  UNL1       -0.0985
     21 H           3.3333   -5.7275   18.8716 H       1  UNL1        0.3633
     22 C           5.2343   -3.8268   21.0904 C.ar    1  UNL1        0.1113
     23 C           4.6012   -3.6606   22.4401 C.ar    1  UNL1        0.0144
     24 C           5.6816   -3.3057   23.4183 C.ar    1  UNL1        0.0077
     25 C           6.9824   -3.2525   22.6732 C.ar    1  UNL1        0.0357
     26 S           6.7060   -3.5746   21.2345 S.2     1  UNL1       -0.0792
@<TRIPOS>BOND
     1    10    11    1
     2    11    12    1
     3    12    13    1
     4    13    14    2
     5    14     1    1
     6     1     2    2
     7     2     3    1
     8     3     4    2
     9     4     5    1
    10     5     6    1
    11     6    17    1
    12    17    19    1
    13    19    20    2
    14    19    22    1
    15    22    23   ar
    16    23    24   ar
    17    24    25   ar
    18    25    26   ar
    19     6     7    2
    20     7     8    1
    21     8     9    2
    22    14    15    1
    23    15    16    1
    24    16    11    1
    25     9     1    1
    26     9     4    1
    27    26    22   ar
    28    17    18    1
    29    20    21    1
@<TRIPOS>MOLECULE
*****
 26 29 0 0 0
SMALL
GASTEIGER

@<TRIPOS>ATOM
      1 C         -14.1700    1.4119   17.6026 C.2     1  UNL1        0.0161
      2 C         -13.2608    2.3092   16.8164 C.2     1  UNL1        0.0981
      3 N         -11.9047    1.6699   16.7707 N.2     1  UNL1       -0.2477
      4 C         -11.9757    0.3774   17.5287 C.2     1  UNL1        0.0670
      5 C         -10.9464   -0.6748   17.8172 C.3     1  UNL1        0.1127
      6 C         -11.3172   -1.8865   18.6198 C.2     1  UNL1        0.1186
      7 C         -12.7172   -2.0460   19.1340 C.2     1  UNL1        0.0359
      8 C         -13.7465   -0.9937   18.8455 C.2     1  UNL1        0.0044
      9 C         -13.3758    0.2180   18.0429 C.2     1  UNL1        0.0153
     10 C         -19.9662    2.4209   18.7801 C.3     1  UNL1        0.0899
     11 N         -18.5172    2.1686   18.4858 N.3     1  UNL1       -0.2674
     12 C         -18.0821    1.8378   17.0889 C.3     1  UNL1        0.0986
     13 C         -16.6331    1.5856   16.7946 C.2     1  UNL1       -0.0130
     14 C         -15.6191    1.6641   17.8970 C.2     1  UNL1       -0.0222
     15 C         -16.0541    1.9949   19.2940 C.3     1  UNL1        0.0434
     16 C         -17.5032    2.2472   19.5883 C.3     1  UNL1        0.0771
     17 N         -10.2878   -2.9388   18.9083 N.pl3   1  UNL1       -0.2022
     18 H          -9.9164   -3.0285   19.8157 H       1  UNL1        0.2982
     19 C          -9.8245   -3.8546   17.8144 C.2     1  UNL1        0.3222
     20 N          -9.0928   -3.2973   16.6294 N.2     1  UNL1       -0.0985
     21 H          -8.9166   -2.3305   16.5697 H       1  UNL1        0.3633
     22 C         -10.0928   -5.3276   17.9054 C.ar    1  UNL1        0.1113
     23 C          -9.5184   -6.2671   18.9239 C.ar    1  UNL1        0.0144
     24 C         -10.0532   -7.6398   18.6418 C.ar    1  UNL1        0.0077
     25 C         -10.9581   -7.5487   17.4489 C.ar    1  UNL1        0.0357
     26 S         -10.9826   -6.1196   16.9938 S.2     1  UNL1       -0.0792
@<TRIPOS>BOND
     1    10    11    1
     2    11    12    1
     3    12    13    1
     4    13    14    2
     5    14     1    1
     6     1     2    2
     7     2     3    1
     8     3     4    2
     9     4     5    1
    10     5     6    1
    11     6    17    1
    12    17    19    1
    13    19    20    2
    14    19    22    1
    15    22    23   ar
    16    23    24   ar
    17    24    25   ar
    18    25    26   ar
    19     6     7    2
    20     7     8    1
    21     8     9    2
    22    14    15    1
    23    15    16    1
    24    16    11    1
    25     9     1    1
    26     9     4    1
    27    26    22   ar
    28    17    18    1
    29    20    21    1
@<TRIPOS>MOLECULE
*****
 26 29 0 0 0
SMALL
GASTEIGER

@<TRIPOS>ATOM
      1 C           0.1026    3.9472   19.0636 C.2     1  UNL1        0.0161
      2 C           0.8875    5.2024   19.3054 C.2     1  UNL1        0.0981
      3 N           2.3439    4.8727   19.1638 N.2     1  UNL1       -0.2477
      4 C           2.4592    3.4139   18.8344 C.2     1  UNL1        0.0670
      5 C           3.6465    2.5325   18.5828 C.3     1  UNL1        0.1127
      6 C           3.4486    1.0790   18.2694 C.2     1  UNL1        0.1186
      7 C           2.0633    0.5070   18.2075 C.2     1  UNL1        0.0359
      8 C           0.8760    1.3884   18.4590 C.2     1  UNL1        0.0044
      9 C           1.0739    2.8419   18.7725 C.2     1  UNL1        0.0153
     10 C          -5.8734    3.4373   19.2312 C.3     1  UNL1        0.0899
     11 N          -4.3794    3.5648   19.1893 N.3     1  UNL1       -0.2674
     12 C          -3.5646    3.2412   20.4064 C.3     1  UNL1        0.0986
     13 C          -2.0707    3.3687   20.3645 C.2     1  UNL1       -0.0130
     14 C          -1.3914    3.8197   19.1055 C.2     1  UNL1       -0.0222
     15 C          -2.2062    4.1433   17.8883 C.3     1  UNL1        0.0434
     16 C          -3.7002    4.0158   17.9302 C.3     1  UNL1        0.0771
     17 N           4.6359    0.1975   18.0178 N.pl3   1  UNL1       -0.2022
     18 H           5.1028    0.2358   17.1519 H       1  UNL1        0.2982
     19 C           5.1120   -0.7422   19.0856 C.2     1  UNL1        0.3222
     20 N           6.0107   -0.2429   20.1779 N.2     1  UNL1       -0.0985
     21 H           6.2881    0.7016   20.1940 H       1  UNL1        0.3633
     22 C           4.6893   -2.1812   19.0611 C.ar    1  UNL1        0.1113
     23 C           5.4375   -3.3089   18.4143 C.ar    1  UNL1        0.0144
     24 C           4.6549   -4.5699   18.6326 C.ar    1  UNL1        0.0077
     25 C           3.4231   -4.2214   19.4144 C.ar    1  UNL1        0.0357
     26 S           3.4444   -2.7451   19.6793 S.2     1  UNL1       -0.0792
@<TRIPOS>BOND
     1    10    11    1
     2    11    12    1
     3    12    13    1
     4    13    14    2
     5    14     1    1
     6     1     2    2
     7     2     3    1
     8     3     4    2
     9     4     5    1
    10     5     6    1
    11     6    17    1
    12    17    19    1
    13    19    20    2
    14    19    22    1
    15    22    23   ar
    16    23    24   ar
    17    24    25   ar
    18    25    26   ar
    19     6     7    2
    20     7     8    1
    21     8     9    2
    22    14    15    1
    23    15    16    1
    24    16    11    1
    25     9     1    1
    26     9     4    1
    27    26    22   ar
    28    17    18    1
    29    20    21    1
