@<TRIPOS>MOLECULE
*****
 23 27 0 0 0
SMALL
GASTEIGER

@<TRIPOS>ATOM
      1 O          -5.4777  -17.4585   22.8048 O.2     1  UNL1       -0.2699
      2 C          -6.5773  -18.0745   21.9914 C.2     1  UNL1        0.2506
      3 C          -7.9728  -17.6994   22.3935 C.ar    1  UNL1        0.0731
      4 C          -8.0172  -16.7572   23.5598 C.ar    1  UNL1        0.0357
      5 C          -9.3372  -16.2816   24.0899 C.ar    1  UNL1        0.1404
      6 F          -9.3816  -15.3393   25.2563 F       1  UNL1       -0.2042
      7 C         -10.6131  -16.7482   23.4538 C.ar    1  UNL1        0.0327
      8 C         -10.5687  -17.6904   22.2876 C.ar    1  UNL1        0.0405
      9 C         -11.6528  -18.3170   21.4617 C.ar    1  UNL1        0.1216
     10 N         -11.0027  -19.1799   20.4212 N.ar    1  UNL1       -0.1677
     11 N          -9.5168  -19.0866   20.6039 N.ar    1  UNL1       -0.2490
     12 C          -9.2486  -18.1660   21.7574 C.ar    1  UNL1        0.0839
     13 C          -8.4761  -19.7805   19.7905 C.3     1  UNL1        0.1489
     14 C          -6.9808  -19.7434   19.9039 C.3     1  UNL1        0.1200
     15 N          -6.1358  -18.9842   20.8834 N.am    1  UNL1       -0.2742
     16 C          -3.1638  -19.3420   20.5739 C.3     1  UNL1        0.0917
     17 C          -3.1834  -19.3232   20.5482 C.3     1  UNL1        0.0921
     18 N          -2.3898  -20.0844   21.5957 N.3     1  UNL1       -0.2713
     19 C          -1.6924  -19.5068   20.3999 C.3     1  UNL1        0.0722
     20 C          -2.4762  -18.7551   19.3652 C.3     1  UNL1        0.0191
     21 C          -3.9573  -18.5809   19.5264 C.3     1  UNL1        0.0224
     22 C          -3.5702  -19.0006   20.1197 C.3     1  UNL1        0.0191
     23 C          -2.8616  -19.6803   21.0552 C.3     1  UNL1        0.0722
@<TRIPOS>BOND
     1     1     2    2
     2     2     3    1
     3     3     4   ar
     4     4     5   ar
     5     5     6    1
     6     5     7   ar
     7     7     8   ar
     8     8     9   ar
     9     9    10   ar
    10    10    11   ar
    11    11    12   ar
    12    11    13    1
    13    13    14    1
    14    14    15    1
    15    16    15    1
    16    16    17    1
    17    17    18    1
    18    18    19    1
    19    19    20    1
    20    20    21    1
    21    21    22    1
    22    22    23    1
    23    15     2   am
    24    21    16    1
    25    12     3   ar
    26    23    18    1
    27    12     8   ar
@<TRIPOS>MOLECULE
*****
 23 27 0 0 0
SMALL
GASTEIGER

@<TRIPOS>ATOM
      1 O          -9.0702  -19.5242   20.9753 O.2     1  UNL1       -0.2699
      2 C          -8.2754  -18.5838   21.8321 C.2     1  UNL1        0.2506
      3 C          -6.7884  -18.7794   21.8069 C.ar    1  UNL1        0.0731
      4 C          -6.3566  -19.9026   20.9113 C.ar    1  UNL1        0.0357
      5 C          -4.9002  -20.2326   20.7713 C.ar    1  UNL1        0.1404
      6 F          -4.4684  -21.3559   19.8757 F       1  UNL1       -0.2042
      7 C          -3.8754  -19.4394   21.5268 C.ar    1  UNL1        0.0327
      8 C          -4.3072  -18.3162   22.4223 C.ar    1  UNL1        0.0405
      9 C          -3.5315  -17.3660   23.2856 C.ar    1  UNL1        0.1216
     10 N          -4.5086  -16.4486   23.9592 N.ar    1  UNL1       -0.1677
     11 N          -5.8882  -16.8320   23.5122 N.ar    1  UNL1       -0.2490
     12 C          -5.7637  -17.9862   22.5624 C.ar    1  UNL1        0.0839
     13 C          -7.1683  -16.1888   23.9293 C.3     1  UNL1        0.1489
     14 C          -8.5801  -16.5063   23.5342 C.3     1  UNL1        0.1200
     15 N          -9.0728  -17.5722   22.6008 N.am    1  UNL1       -0.2742
     16 C         -12.0572  -17.6853   22.2303 C.3     1  UNL1        0.0917
     17 C         -12.0419  -17.6931   22.2636 C.3     1  UNL1        0.0921
     18 N         -12.6593  -17.3723   20.9136 N.3     1  UNL1       -0.2713
     19 C         -13.5379  -17.7477   22.0700 C.3     1  UNL1        0.0722
     20 C         -12.9282  -18.0646   23.4033 C.3     1  UNL1        0.0191
     21 C         -11.4397  -18.0061   23.5802 C.3     1  UNL1        0.0224
     22 C         -11.7278  -17.8240   22.8307 C.3     1  UNL1        0.0191
     23 C         -12.2792  -17.5375   21.6251 C.3     1  UNL1        0.0722
@<TRIPOS>BOND
     1     1     2    2
     2     2     3    1
     3     3     4   ar
     4     4     5   ar
     5     5     6    1
     6     5     7   ar
     7     7     8   ar
     8     8     9   ar
     9     9    10   ar
    10    10    11   ar
    11    11    12   ar
    12    11    13    1
    13    13    14    1
    14    14    15    1
    15    16    15    1
    16    16    17    1
    17    17    18    1
    18    18    19    1
    19    19    20    1
    20    20    21    1
    21    21    22    1
    22    22    23    1
    23    15     2   am
    24    21    16    1
    25    12     3   ar
    26    23    18    1
    27    12     8   ar
@<TRIPOS>MOLECULE
*****
 23 27 0 0 0
SMALL
GASTEIGER

@<TRIPOS>ATOM
      1 O          -9.2236  -16.1695   23.5442 O.2     1  UNL1       -0.2699
      2 C          -8.3962  -17.2010   22.8360 C.2     1  UNL1        0.2506
      3 C          -6.9251  -17.1674   23.1271 C.ar    1  UNL1        0.0731
      4 C          -6.5399  -16.0867   24.0933 C.ar    1  UNL1        0.0357
      5 C          -5.1044  -15.9147   24.4929 C.ar    1  UNL1        0.1404
      6 F          -4.7191  -14.8339   25.4591 F       1  UNL1       -0.2042
      7 C          -4.0541  -16.8236   23.9264 C.ar    1  UNL1        0.0327
      8 C          -4.4393  -17.9043   22.9602 C.ar    1  UNL1        0.0405
      9 C          -3.6306  -18.9436   22.2421 C.ar    1  UNL1        0.1216
     10 N          -4.5663  -19.7579   21.3986 N.ar    1  UNL1       -0.1677
     11 N          -5.9533  -19.2218   21.5955 N.ar    1  UNL1       -0.2490
     12 C          -5.8749  -18.0762   22.5606 C.ar    1  UNL1        0.0839
     13 C          -7.2010  -19.7276   20.9523 C.3     1  UNL1        0.1489
     14 C          -8.6175  -19.2541   21.0919 C.3     1  UNL1        0.1200
     15 N          -9.1494  -18.1297   21.9302 N.am    1  UNL1       -0.2742
     16 C         -12.1218  -17.6893   21.7639 C.3     1  UNL1        0.0917
     17 C         -12.1070  -17.7077   21.7929 C.3     1  UNL1        0.0921
     18 N         -12.7062  -16.9597   20.6148 N.3     1  UNL1       -0.2713
     19 C         -13.5969  -17.4829   21.7025 C.3     1  UNL1        0.0722
     20 C         -13.0051  -18.2216   22.8661 C.3     1  UNL1        0.0191
     21 C         -11.5225  -18.4372   22.9420 C.3     1  UNL1        0.0224
     22 C         -11.8007  -18.0265   22.2848 C.3     1  UNL1        0.0191
     23 C         -12.3358  -17.3585   21.2327 C.3     1  UNL1        0.0722
@<TRIPOS>BOND
     1     1     2    2
     2     2     3    1
     3     3     4   ar
     4     4     5   ar
     5     5     6    1
     6     5     7   ar
     7     7     8   ar
     8     8     9   ar
     9     9    10   ar
    10    10    11   ar
    11    11    12   ar
    12    11    13    1
    13    13    14    1
    14    14    15    1
    15    16    15    1
    16    16    17    1
    17    17    18    1
    18    18    19    1
    19    19    20    1
    20    20    21    1
    21    21    22    1
    22    22    23    1
    23    15     2   am
    24    21    16    1
    25    12     3   ar
    26    23    18    1
    27    12     8   ar
@<TRIPOS>MOLECULE
*****
 23 27 0 0 0
SMALL
GASTEIGER

@<TRIPOS>ATOM
      1 O          -8.6420  -18.2292   19.9571 O.2     1  UNL1       -0.2699
      2 C          -9.2746  -18.6360   21.2550 C.2     1  UNL1        0.2506
      3 C         -10.6144  -18.0270   21.5450 C.ar    1  UNL1        0.0731
      4 C         -11.0886  -17.1026   20.4630 C.ar    1  UNL1        0.0357
      5 C         -12.4118  -16.4091   20.5957 C.ar    1  UNL1        0.1404
      6 F         -12.8860  -15.4847   19.5136 F       1  UNL1       -0.2042
      7 C         -13.2611  -16.6397   21.8105 C.ar    1  UNL1        0.0327
      8 C         -12.7869  -17.5640   22.8925 C.ar    1  UNL1        0.0405
      9 C         -13.4018  -17.9839   24.1947 C.ar    1  UNL1        0.1216
     10 N         -12.4584  -18.9370   24.8667 N.ar    1  UNL1       -0.1677
     11 N         -11.2605  -19.1062   23.9799 N.ar    1  UNL1       -0.2490
     12 C         -11.4635  -18.2576   22.7598 C.ar    1  UNL1        0.0839
     13 C         -10.0693  -19.9633   24.2495 C.3     1  UNL1        0.1489
     14 C          -8.8375  -20.1888   23.4237 C.3     1  UNL1        0.1200
     15 N          -8.4838  -19.5981   22.0910 N.am    1  UNL1       -0.2742
     16 C          -5.8353  -20.4661   20.9559 C.3     1  UNL1        0.0917
     17 C          -5.8371  -20.4378   20.9802 C.3     1  UNL1        0.0921
     18 N          -5.7669  -21.5895   19.9928 N.3     1  UNL1       -0.2713
     19 C          -4.5124  -20.8788   20.4065 C.3     1  UNL1        0.0722
     20 C          -4.5817  -19.7413   21.3817 C.3     1  UNL1        0.0191
     21 C          -5.9055  -19.3143   21.9433 C.3     1  UNL1        0.0224
     22 C          -5.9177  -19.9432   21.4118 C.3     1  UNL1        0.0191
     23 C          -5.8550  -20.9717   20.5300 C.3     1  UNL1        0.0722
@<TRIPOS>BOND
     1     1     2    2
     2     2     3    1
     3     3     4   ar
     4     4     5   ar
     5     5     6    1
     6     5     7   ar
     7     7     8   ar
     8     8     9   ar
     9     9    10   ar
    10    10    11   ar
    11    11    12   ar
    12    11    13    1
    13    13    14    1
    14    14    15    1
    15    16    15    1
    16    16    17    1
    17    17    18    1
    18    18    19    1
    19    19    20    1
    20    20    21    1
    21    21    22    1
    22    22    23    1
    23    15     2   am
    24    21    16    1
    25    12     3   ar
    26    23    18    1
    27    12     8   ar
@<TRIPOS>MOLECULE
*****
 23 27 0 0 0
SMALL
GASTEIGER

@<TRIPOS>ATOM
      1 O          -6.3342  -17.8809   23.3337 O.2     1  UNL1       -0.2699
      2 C          -7.7449  -17.6066   22.9039 C.2     1  UNL1        0.2506
      3 C          -8.2048  -18.3360   21.6765 C.ar    1  UNL1        0.0731
      4 C          -7.1496  -19.2256   21.0892 C.ar    1  UNL1        0.0357
      5 C          -7.4457  -20.0280   19.8571 C.ar    1  UNL1        0.1404
      6 F          -6.3904  -20.9178   19.2698 F       1  UNL1       -0.2042
      7 C          -8.7972  -19.9409   19.2120 C.ar    1  UNL1        0.0327
      8 C          -9.8525  -19.0512   19.7993 C.ar    1  UNL1        0.0405
      9 C         -11.2655  -18.7628   19.3868 C.ar    1  UNL1        0.1216
     10 N         -11.8426  -17.7821   20.3641 N.ar    1  UNL1       -0.1677
     11 N         -10.7863  -17.4644   21.3806 N.ar    1  UNL1       -0.2490
     12 C          -9.5563  -18.2487   21.0315 C.ar    1  UNL1        0.0839
     13 C         -10.9196  -16.5347   22.5400 C.3     1  UNL1        0.1489
     14 C          -9.9220  -16.1621   23.5964 C.3     1  UNL1        0.1200
     15 N          -8.5091  -16.6391   23.7583 N.am    1  UNL1       -0.2742
     16 C          -7.0224  -15.4966   26.1122 C.3     1  UNL1        0.0917
     17 C          -7.0565  -15.5114   26.1167 C.3     1  UNL1        0.0921
     18 N          -5.6736  -14.9115   25.9320 N.3     1  UNL1       -0.2713
     19 C          -6.3046  -14.9365   27.2926 C.3     1  UNL1        0.0722
     20 C          -7.6704  -15.5290   27.4751 C.3     1  UNL1        0.0191
     21 C          -8.4053  -16.0966   26.2970 C.3     1  UNL1        0.0224
     22 C          -7.6589  -15.7824   26.1476 C.3     1  UNL1        0.0191
     23 C          -6.4240  -15.2467   25.9827 C.3     1  UNL1        0.0722
@<TRIPOS>BOND
     1     1     2    2
     2     2     3    1
     3     3     4   ar
     4     4     5   ar
     5     5     6    1
     6     5     7   ar
     7     7     8   ar
     8     8     9   ar
     9     9    10   ar
    10    10    11   ar
    11    11    12   ar
    12    11    13    1
    13    13    14    1
    14    14    15    1
    15    16    15    1
    16    16    17    1
    17    17    18    1
    18    18    19    1
    19    19    20    1
    20    20    21    1
    21    21    22    1
    22    22    23    1
    23    15     2   am
    24    21    16    1
    25    12     3   ar
    26    23    18    1
    27    12     8   ar
@<TRIPOS>MOLECULE
*****
 23 27 0 0 0
SMALL
GASTEIGER

@<TRIPOS>ATOM
      1 O          -5.7580  -18.7646   20.3076 O.2     1  UNL1       -0.2699
      2 C          -6.7622  -18.2727   21.3075 C.2     1  UNL1        0.2506
      3 C          -8.1928  -18.6174   21.0169 C.ar    1  UNL1        0.0731
      4 C          -8.3639  -19.4076   19.7534 C.ar    1  UNL1        0.0357
      5 C          -9.7334  -19.8348   19.3157 C.ar    1  UNL1        0.1404
      6 F          -9.9045  -20.6250   18.0522 F       1  UNL1       -0.2042
      7 C         -10.9320  -19.4718   20.1414 C.ar    1  UNL1        0.0327
      8 C         -10.7609  -18.6816   21.4048 C.ar    1  UNL1        0.0405
      9 C         -11.7483  -18.1805   22.4167 C.ar    1  UNL1        0.1216
     10 N         -10.9890  -17.4435   23.4798 N.ar    1  UNL1       -0.1677
     11 N          -9.5322  -17.4892   23.1250 N.ar    1  UNL1       -0.2490
     12 C          -9.3913  -18.2544   21.8426 C.ar    1  UNL1        0.0839
     13 C          -8.4095  -16.8852   23.9001 C.3     1  UNL1        0.1489
     14 C          -6.9359  -16.8836   23.6197 C.3     1  UNL1        0.1200
     15 N          -6.2028  -17.5011   22.4659 N.am    1  UNL1       -0.2742
     16 C          -3.2156  -17.1365   22.4902 C.3     1  UNL1        0.0917
     17 C          -3.2312  -17.1664   22.5064 C.3     1  UNL1        0.0921
     18 N          -2.6019  -15.9517   21.8468 N.3     1  UNL1       -0.2713
     19 C          -1.7337  -16.9766   22.5145 C.3     1  UNL1        0.0722
     20 C          -2.3551  -18.1763   23.1660 C.3     1  UNL1        0.0191
     21 C          -3.8449  -18.3511   23.1498 C.3     1  UNL1        0.0224
     22 C          -3.5502  -17.6772   22.7795 C.3     1  UNL1        0.0191
     23 C          -2.9882  -16.5925   22.1905 C.3     1  UNL1        0.0722
@<TRIPOS>BOND
     1     1     2    2
     2     2     3    1
     3     3     4   ar
     4     4     5   ar
     5     5     6    1
     6     5     7   ar
     7     7     8   ar
     8     8     9   ar
     9     9    10   ar
    10    10    11   ar
    11    11    12   ar
    12    11    13    1
    13    13    14    1
    14    14    15    1
    15    16    15    1
    16    16    17    1
    17    17    18    1
    18    18    19    1
    19    19    20    1
    20    20    21    1
    21    21    22    1
    22    22    23    1
    23    15     2   am
    24    21    16    1
    25    12     3   ar
    26    23    18    1
    27    12     8   ar
@<TRIPOS>MOLECULE
*****
 23 27 0 0 0
SMALL
GASTEIGER

@<TRIPOS>ATOM
      1 O          -5.9844  -19.3019   21.1118 O.2     1  UNL1       -0.2699
      2 C          -6.0509  -18.2407   22.1699 C.2     1  UNL1        0.2506
      3 C          -7.4274  -17.8805   22.6449 C.ar    1  UNL1        0.0731
      4 C          -8.5101  -18.6624   21.9619 C.ar    1  UNL1        0.0357
      5 C          -9.9470  -18.4246   22.3205 C.ar    1  UNL1        0.1404
      6 F         -11.0298  -19.2065   21.6376 F       1  UNL1       -0.2042
      7 C         -10.3013  -17.4049   23.3621 C.ar    1  UNL1        0.0327
      8 C          -9.2185  -16.6231   24.0451 C.ar    1  UNL1        0.0405
      9 C          -9.2626  -15.5604   25.1028 C.ar    1  UNL1        0.1216
     10 N          -7.8529  -15.1415   25.3978 N.ar    1  UNL1       -0.1677
     11 N          -6.9375  -15.9452   24.5225 N.ar    1  UNL1       -0.2490
     12 C          -7.7816  -16.8609   23.6864 C.ar    1  UNL1        0.0839
     13 C          -5.4485  -15.8606   24.4791 C.3     1  UNL1        0.1489
     14 C          -4.4640  -16.6209   23.6409 C.3     1  UNL1        0.1200
     15 N          -4.7320  -17.6802   22.6132 N.am    1  UNL1       -0.2742
     16 C          -2.2933  -18.8235   21.2708 C.3     1  UNL1        0.0917
     17 C          -2.3016  -18.7872   21.2672 C.3     1  UNL1        0.0921
     18 N          -1.9658  -20.2610   21.4142 N.3     1  UNL1       -0.2713
     19 C          -1.0801  -19.3679   20.5970 C.3     1  UNL1        0.0722
     20 C          -1.4117  -17.9123   20.4518 C.3     1  UNL1        0.0191
     21 C          -2.6290  -17.3497   21.1239 C.3     1  UNL1        0.0224
     22 C          -2.4882  -18.1537   21.2324 C.3     1  UNL1        0.0191
     23 C          -2.1884  -19.4698   21.3636 C.3     1  UNL1        0.0722
@<TRIPOS>BOND
     1     1     2    2
     2     2     3    1
     3     3     4   ar
     4     4     5   ar
     5     5     6    1
     6     5     7   ar
     7     7     8   ar
     8     8     9   ar
     9     9    10   ar
    10    10    11   ar
    11    11    12   ar
    12    11    13    1
    13    13    14    1
    14    14    15    1
    15    16    15    1
    16    16    17    1
    17    17    18    1
    18    18    19    1
    19    19    20    1
    20    20    21    1
    21    21    22    1
    22    22    23    1
    23    15     2   am
    24    21    16    1
    25    12     3   ar
    26    23    18    1
    27    12     8   ar
@<TRIPOS>MOLECULE
*****
 23 27 0 0 0
SMALL
GASTEIGER

@<TRIPOS>ATOM
      1 O          -7.4728  -18.4769   23.1469 O.2     1  UNL1       -0.2699
      2 C          -6.0606  -18.0418   22.8888 C.2     1  UNL1        0.2506
      3 C          -5.3091  -18.8430   21.8674 C.ar    1  UNL1        0.0731
      4 C          -6.1222  -19.9566   21.2768 C.ar    1  UNL1        0.0357
      5 C          -5.5200  -20.8557   20.2382 C.ar    1  UNL1        0.1404
      6 F          -6.3332  -21.9694   19.6477 F       1  UNL1       -0.2042
      7 C          -4.1047  -20.6412   19.7899 C.ar    1  UNL1        0.0327
      8 C          -3.2916  -19.5276   20.3804 C.ar    1  UNL1        0.0405
      9 C          -1.8819  -19.0762   20.1376 C.ar    1  UNL1        0.1216
     10 N          -1.6129  -17.8981   21.0262 N.ar    1  UNL1       -0.1677
     11 N          -2.8563  -17.6213   21.8183 N.ar    1  UNL1       -0.2490
     12 C          -3.8938  -18.6285   21.4191 C.ar    1  UNL1        0.0839
     13 C          -3.0441  -16.5395   22.8284 C.3     1  UNL1        0.1489
     14 C          -4.2442  -16.1945   23.6596 C.3     1  UNL1        0.1200
     15 N          -5.5867  -16.8632   23.6865 N.am    1  UNL1       -0.2742
     16 C          -7.5839  -15.6729   25.5972 C.3     1  UNL1        0.0917
     17 C          -7.5486  -15.6788   25.6080 C.3     1  UNL1        0.0921
     18 N          -8.9826  -15.4410   25.1681 N.3     1  UNL1       -0.2713
     19 C          -8.5560  -15.0822   26.5607 C.3     1  UNL1        0.0722
     20 C          -7.1397  -15.3171   26.9953 C.3     1  UNL1        0.0191
     21 C          -6.1499  -15.9108   26.0371 C.3     1  UNL1        0.0224
     22 C          -6.9150  -15.8006   25.7534 C.3     1  UNL1        0.0191
     23 C          -8.1956  -15.5882   25.3605 C.3     1  UNL1        0.0722
@<TRIPOS>BOND
     1     1     2    2
     2     2     3    1
     3     3     4   ar
     4     4     5   ar
     5     5     6    1
     6     5     7   ar
     7     7     8   ar
     8     8     9   ar
     9     9    10   ar
    10    10    11   ar
    11    11    12   ar
    12    11    13    1
    13    13    14    1
    14    14    15    1
    15    16    15    1
    16    16    17    1
    17    17    18    1
    18    18    19    1
    19    19    20    1
    20    20    21    1
    21    21    22    1
    22    22    23    1
    23    15     2   am
    24    21    16    1
    25    12     3   ar
    26    23    18    1
    27    12     8   ar
@<TRIPOS>MOLECULE
*****
 23 27 0 0 0
SMALL
GASTEIGER

@<TRIPOS>ATOM
      1 O         -13.0893   -4.3596   19.4547 O.2     1  UNL1       -0.2699
      2 C         -12.4596   -3.2468   18.6702 C.2     1  UNL1        0.2506
      3 C         -13.2022   -1.9436   18.6781 C.ar    1  UNL1        0.0731
      4 C         -14.4656   -1.9899   19.4854 C.ar    1  UNL1        0.0357
      5 C         -15.3291   -0.7686   19.5977 C.ar    1  UNL1        0.1404
      6 F         -16.5926   -0.8149   20.4050 F       1  UNL1       -0.2042
      7 C         -14.9292    0.4992   18.9027 C.ar    1  UNL1        0.0327
      8 C         -13.6658    0.5455   18.0955 C.ar    1  UNL1        0.0405
      9 C         -13.0193    1.6444   17.3053 C.ar    1  UNL1        0.1216
     10 N         -11.7563    1.1022   16.7047 N.ar    1  UNL1       -0.1677
     11 N         -11.6221   -0.3318   17.1236 N.ar    1  UNL1       -0.2490
     12 C         -12.8023   -0.6759   17.9832 C.ar    1  UNL1        0.0839
     13 C         -10.5164   -1.2646   16.7584 C.3     1  UNL1        0.1489
     14 C         -10.3057   -2.7024   17.1307 C.3     1  UNL1        0.1200
     15 N         -11.1705   -3.5845   17.9815 N.am    1  UNL1       -0.2742
     16 C         -10.1767   -6.4015   18.3472 C.3     1  UNL1        0.0917
     17 C         -10.1625   -6.3736   18.3677 C.3     1  UNL1        0.0921
     18 N         -10.7402   -7.5044   17.5346 N.3     1  UNL1       -0.2713
     19 C          -9.6692   -7.7891   18.5455 C.3     1  UNL1        0.0722
     20 C          -9.0985   -6.6723   19.3683 C.3     1  UNL1        0.0191
     21 C          -9.5990   -5.2707   19.1803 C.3     1  UNL1        0.0224
     22 C          -9.9422   -5.8499   18.7062 C.3     1  UNL1        0.0191
     23 C         -10.4581   -6.8597   17.9622 C.3     1  UNL1        0.0722
@<TRIPOS>BOND
     1     1     2    2
     2     2     3    1
     3     3     4   ar
     4     4     5   ar
     5     5     6    1
     6     5     7   ar
     7     7     8   ar
     8     8     9   ar
     9     9    10   ar
    10    10    11   ar
    11    11    12   ar
    12    11    13    1
    13    13    14    1
    14    14    15    1
    15    16    15    1
    16    16    17    1
    17    17    18    1
    18    18    19    1
    19    19    20    1
    20    20    21    1
    21    21    22    1
    22    22    23    1
    23    15     2   am
    24    21    16    1
    25    12     3   ar
    26    23    18    1
    27    12     8   ar
