@<TRIPOS>MOLECULE
*****
 21 23 0 0 0
SMALL
GASTEIGER

@<TRIPOS>ATOM
      1 C          -6.7249  -19.6730   21.4891 C.ar    1  UNL1        0.0417
      2 C          -6.5305  -20.7462   20.4595 C.ar    1  UNL1        0.0082
      3 C          -5.1490  -21.0924   19.9887 C.ar    1  UNL1        0.0003
      4 C          -3.9620  -20.3654   20.5476 C.ar    1  UNL1       -0.0038
      5 C          -4.1564  -19.2921   21.5773 C.ar    1  UNL1       -0.0156
      6 C          -5.5379  -18.9459   22.0480 C.ar    1  UNL1        0.0044
      7 C          -9.4879  -18.9805   22.4307 C.1     1  UNL1       -0.0597
      8 C          -8.1064  -19.3267   21.9600 C.1     1  UNL1       -0.0598
      9 C         -10.8694  -18.6342   22.9015 C.ar    1  UNL1        0.0420
     10 C         -11.8005  -17.8767   22.0020 C.ar    1  UNL1        0.0082
     11 C         -13.1819  -17.5305   22.4728 C.ar    1  UNL1        0.0006
     12 C         -13.6323  -17.9418   23.8432 C.ar    1  UNL1        0.0000
     13 C         -12.7012  -18.6993   24.7428 C.ar    1  UNL1        0.0006
     14 C         -11.3198  -19.0455   24.2719 C.ar    1  UNL1        0.0082
     15 C          -2.9694  -18.5651   22.1362 C.3     1  UNL1        0.0715
     16 C          -1.8863  -18.0807   21.2185 C.ar    1  UNL1        0.0586
     17 C          -1.2616  -18.8632   20.1016 C.ar    1  UNL1        0.1134
     18 N          -0.2268  -17.9948   19.4494 N.ar    1  UNL1       -0.2229
     19 C          -0.2120  -16.6756   20.1633 C.ar    1  UNL1        0.1748
     20 N          -1.2376  -16.7287   21.2566 N.ar    1  UNL1       -0.3379
     21 H          -1.4480  -16.0035   21.8883 H       1  UNL1        0.1672
@<TRIPOS>BOND
     1     7     8    3
     2     8     1    1
     3     1     2   ar
     4     2     3   ar
     5     3     4   ar
     6     4     5   ar
     7     5    15    1
     8    15    16    1
     9    16    17   ar
    10    17    18   ar
    11    18    19   ar
    12    19    20   ar
    13     5     6   ar
    14     7     9    1
    15     9    10   ar
    16    10    11   ar
    17    11    12   ar
    18    12    13   ar
    19    13    14   ar
    20     6     1   ar
    21    14     9   ar
    22    20    16   ar
    23    20    21    1
@<TRIPOS>MOLECULE
*****
 21 23 0 0 0
SMALL
GASTEIGER

@<TRIPOS>ATOM
      1 C          -5.7248  -16.1067   24.6921 C.ar    1  UNL1        0.0417
      2 C          -5.3678  -15.7616   26.1075 C.ar    1  UNL1        0.0082
      3 C          -6.4405  -15.3539   27.0734 C.ar    1  UNL1        0.0003
      4 C          -7.8703  -15.2914   26.6239 C.ar    1  UNL1       -0.0038
      5 C          -8.2273  -15.6366   25.2086 C.ar    1  UNL1       -0.0156
      6 C          -7.1545  -16.0442   24.2427 C.ar    1  UNL1        0.0044
      7 C          -3.5794  -16.9221   22.7602 C.1     1  UNL1       -0.0597
      8 C          -4.6521  -16.5144   23.7261 C.1     1  UNL1       -0.0598
      9 C          -2.5066  -17.3298   21.7942 C.ar    1  UNL1        0.0420
     10 C          -2.4094  -18.7558   21.3394 C.ar    1  UNL1        0.0082
     11 C          -1.3367  -19.1635   20.3734 C.ar    1  UNL1        0.0006
     12 C          -0.3612  -18.1451   19.8623 C.ar    1  UNL1        0.0000
     13 C          -0.4585  -16.7190   20.3171 C.ar    1  UNL1        0.0006
     14 C          -1.5312  -16.3114   21.2830 C.ar    1  UNL1        0.0082
     15 C          -9.6570  -15.5741   24.7591 C.3     1  UNL1        0.0715
     16 C         -10.1135  -16.4004   23.5935 C.ar    1  UNL1        0.0586
     17 C         -10.5518  -17.8339   23.6468 C.ar    1  UNL1        0.1134
     18 N         -10.9211  -18.2578   22.2560 N.ar    1  UNL1       -0.2229
     19 C         -10.7110  -17.0861   21.3432 C.ar    1  UNL1        0.1748
     20 N         -10.2119  -15.9382   22.1698 N.ar    1  UNL1       -0.3379
     21 H          -9.9881  -15.0393   21.8364 H       1  UNL1        0.1672
@<TRIPOS>BOND
     1     7     8    3
     2     8     1    1
     3     1     2   ar
     4     2     3   ar
     5     3     4   ar
     6     4     5   ar
     7     5    15    1
     8    15    16    1
     9    16    17   ar
    10    17    18   ar
    11    18    19   ar
    12    19    20   ar
    13     5     6   ar
    14     7     9    1
    15     9    10   ar
    16    10    11   ar
    17    11    12   ar
    18    12    13   ar
    19    13    14   ar
    20     6     1   ar
    21    14     9   ar
    22    20    16   ar
    23    20    21    1
@<TRIPOS>MOLECULE
*****
 21 23 0 0 0
SMALL
GASTEIGER

@<TRIPOS>ATOM
      1 C          -6.4878  -17.3704   23.2219 C.ar    1  UNL1        0.0417
      2 C          -5.8057  -16.2130   23.8891 C.ar    1  UNL1        0.0082
      3 C          -4.3162  -16.0642   23.7942 C.ar    1  UNL1        0.0003
      4 C          -3.5087  -17.0728   23.0321 C.ar    1  UNL1       -0.0038
      5 C          -4.1908  -18.2301   22.3649 C.ar    1  UNL1       -0.0156
      6 C          -5.6804  -18.3789   22.4597 C.ar    1  UNL1        0.0044
      7 C          -9.4670  -17.6681   23.4116 C.1     1  UNL1       -0.0597
      8 C          -7.9774  -17.5192   23.3167 C.1     1  UNL1       -0.0598
      9 C         -10.9566  -17.8169   23.5064 C.ar    1  UNL1        0.0420
     10 C         -11.5625  -18.5891   24.6407 C.ar    1  UNL1        0.0082
     11 C         -13.0520  -18.7379   24.7355 C.ar    1  UNL1        0.0006
     12 C         -13.9357  -18.1145   23.6960 C.ar    1  UNL1        0.0000
     13 C         -13.3299  -17.3423   22.5618 C.ar    1  UNL1        0.0006
     14 C         -11.8403  -17.1935   22.4670 C.ar    1  UNL1        0.0082
     15 C          -3.3834  -19.2387   21.6027 C.3     1  UNL1        0.0715
     16 C          -2.3306  -18.7815   20.6370 C.ar    1  UNL1        0.0586
     17 C          -2.4901  -18.6619   19.1503 C.ar    1  UNL1        0.1134
     18 N          -1.1915  -18.1701   18.5829 N.ar    1  UNL1       -0.2229
     19 C          -0.2294  -17.9859   19.7189 C.ar    1  UNL1        0.1748
     20 N          -0.9334  -18.3638   20.9884 N.ar    1  UNL1       -0.3379
     21 H          -0.5464  -18.3415   21.8934 H       1  UNL1        0.1672
@<TRIPOS>BOND
     1     7     8    3
     2     8     1    1
     3     1     2   ar
     4     2     3   ar
     5     3     4   ar
     6     4     5   ar
     7     5    15    1
     8    15    16    1
     9    16    17   ar
    10    17    18   ar
    11    18    19   ar
    12    19    20   ar
    13     5     6   ar
    14     7     9    1
    15     9    10   ar
    16    10    11   ar
    17    11    12   ar
    18    12    13   ar
    19    13    14   ar
    20     6     1   ar
    21    14     9   ar
    22    20    16   ar
    23    20    21    1
@<TRIPOS>MOLECULE
*****
 21 23 0 0 0
SMALL
GASTEIGER

@<TRIPOS>ATOM
      1 C           5.6963   -0.3661   35.1552 C.ar    1  UNL1        0.0417
      2 C           7.1508   -0.0843   35.3896 C.ar    1  UNL1        0.0082
      3 C           8.1773   -0.5791   34.4142 C.ar    1  UNL1        0.0003
      4 C           7.7493   -1.3558   33.2044 C.ar    1  UNL1       -0.0038
      5 C           6.2948   -1.6377   32.9700 C.ar    1  UNL1       -0.0156
      6 C           5.2683   -1.1428   33.9454 C.ar    1  UNL1        0.0044
      7 C           3.6432    0.6235   37.1059 C.1     1  UNL1       -0.0597
      8 C           4.6697    0.1287   36.1306 C.1     1  UNL1       -0.0598
      9 C           2.6166    1.1184   38.0813 C.ar    1  UNL1        0.0420
     10 C           2.2335    2.5685   38.0958 C.ar    1  UNL1        0.0082
     11 C           1.2070    3.0633   39.0712 C.ar    1  UNL1        0.0006
     12 C           0.5635    2.1079   40.0320 C.ar    1  UNL1        0.0000
     13 C           0.9466    0.6578   40.0175 C.ar    1  UNL1        0.0006
     14 C           1.9731    0.1630   39.0421 C.ar    1  UNL1        0.0082
     15 C           5.8668   -2.4144   31.7602 C.3     1  UNL1        0.0715
     16 C           6.4986   -3.7409   31.4584 C.ar    1  UNL1        0.0586
     17 C           7.2606   -4.0920   30.2150 C.ar    1  UNL1        0.1134
     18 N           7.7124   -5.5174   30.3351 N.ar    1  UNL1       -0.2229
     19 C           7.2295   -6.0472   31.6528 C.ar    1  UNL1        0.1748
     20 N           6.4794   -4.9493   32.3470 N.ar    1  UNL1       -0.3379
     21 H           6.0499   -5.0109   33.2307 H       1  UNL1        0.1672
@<TRIPOS>BOND
     1     7     8    3
     2     8     1    1
     3     1     2   ar
     4     2     3   ar
     5     3     4   ar
     6     4     5   ar
     7     5    15    1
     8    15    16    1
     9    16    17   ar
    10    17    18   ar
    11    18    19   ar
    12    19    20   ar
    13     5     6   ar
    14     7     9    1
    15     9    10   ar
    16    10    11   ar
    17    11    12   ar
    18    12    13   ar
    19    13    14   ar
    20     6     1   ar
    21    14     9   ar
    22    20    16   ar
    23    20    21    1
@<TRIPOS>MOLECULE
*****
 21 23 0 0 0
SMALL
GASTEIGER

@<TRIPOS>ATOM
      1 C           1.4265    0.7431   20.9963 C.ar    1  UNL1        0.0417
      2 C           0.6599    1.4422   19.9130 C.ar    1  UNL1        0.0082
      3 C           1.0006    1.1942   18.4734 C.ar    1  UNL1        0.0003
      4 C           2.1079    0.2471   18.1172 C.ar    1  UNL1       -0.0038
      5 C           2.8745   -0.4520   19.2005 C.ar    1  UNL1       -0.0156
      6 C           2.5338   -0.2040   20.6400 C.ar    1  UNL1        0.0044
      7 C           0.7452    1.2392   23.8755 C.1     1  UNL1       -0.0597
      8 C           1.0858    0.9911   22.4359 C.1     1  UNL1       -0.0598
      9 C           0.4045    1.4872   25.3151 C.ar    1  UNL1        0.0420
     10 C          -0.8984    2.1368   25.6764 C.ar    1  UNL1        0.0082
     11 C          -1.2390    2.3848   27.1160 C.ar    1  UNL1        0.0006
     12 C          -0.2768    1.9831   28.1943 C.ar    1  UNL1        0.0000
     13 C           1.0261    1.3335   27.8330 C.ar    1  UNL1        0.0006
     14 C           1.3667    1.0855   26.3935 C.ar    1  UNL1        0.0082
     15 C           3.9817   -1.3992   18.8442 C.3     1  UNL1        0.0715
     16 C           3.9777   -2.7966   19.3892 C.ar    1  UNL1        0.0586
     17 C           4.5829   -3.2380   20.6888 C.ar    1  UNL1        0.1134
     18 N           4.3470   -4.7123   20.8330 N.ar    1  UNL1       -0.2229
     19 C           3.5960   -5.1822   19.6224 C.ar    1  UNL1        0.1748
     20 N           3.3678   -3.9983   18.7301 N.ar    1  UNL1       -0.3379
     21 H           2.8999   -4.0081   17.8640 H       1  UNL1        0.1672
@<TRIPOS>BOND
     1     7     8    3
     2     8     1    1
     3     1     2   ar
     4     2     3   ar
     5     3     4   ar
     6     4     5   ar
     7     5    15    1
     8    15    16    1
     9    16    17   ar
    10    17    18   ar
    11    18    19   ar
    12    19    20   ar
    13     5     6   ar
    14     7     9    1
    15     9    10   ar
    16    10    11   ar
    17    11    12   ar
    18    12    13   ar
    19    13    14   ar
    20     6     1   ar
    21    14     9   ar
    22    20    16   ar
    23    20    21    1
@<TRIPOS>MOLECULE
*****
 21 23 0 0 0
SMALL
GASTEIGER

@<TRIPOS>ATOM
      1 C           4.8065   -2.6692   23.3371 C.ar    1  UNL1        0.0417
      2 C           4.0633   -1.7027   24.2110 C.ar    1  UNL1        0.0082
      3 C           3.1178   -0.7122   23.5987 C.ar    1  UNL1        0.0003
      4 C           2.9155   -0.6882   22.1126 C.ar    1  UNL1       -0.0038
      5 C           3.6586   -1.6547   21.2388 C.ar    1  UNL1       -0.0156
      6 C           4.6041   -2.6452   21.8510 C.ar    1  UNL1        0.0044
      7 C           6.6975   -4.6503   24.5616 C.1     1  UNL1       -0.0597
      8 C           5.7520   -3.6597   23.9494 C.1     1  UNL1       -0.0598
      9 C           7.6431   -5.6408   25.1739 C.ar    1  UNL1        0.0420
     10 C           8.1871   -5.4056   26.5517 C.ar    1  UNL1        0.0082
     11 C           9.1326   -6.3961   27.1639 C.ar    1  UNL1        0.0006
     12 C           9.5341   -7.6219   26.3982 C.ar    1  UNL1        0.0000
     13 C           8.9901   -7.8571   25.0203 C.ar    1  UNL1        0.0006
     14 C           8.0446   -6.8666   24.4081 C.ar    1  UNL1        0.0082
     15 C           3.4563   -1.6307   19.7527 C.3     1  UNL1        0.0715
     16 C           4.6338   -1.4670   18.8380 C.ar    1  UNL1        0.0586
     17 C           5.4175   -2.5768   18.2024 C.ar    1  UNL1        0.1134
     18 N           6.5025   -1.9604   17.3698 N.ar    1  UNL1       -0.2229
     19 C           6.3892   -0.4696   17.4909 C.ar    1  UNL1        0.1748
     20 N           5.2344   -0.1646   18.3982 N.ar    1  UNL1       -0.3379
     21 H           4.9249    0.7328   18.6593 H       1  UNL1        0.1672
@<TRIPOS>BOND
     1     7     8    3
     2     8     1    1
     3     1     2   ar
     4     2     3   ar
     5     3     4   ar
     6     4     5   ar
     7     5    15    1
     8    15    16    1
     9    16    17   ar
    10    17    18   ar
    11    18    19   ar
    12    19    20   ar
    13     5     6   ar
    14     7     9    1
    15     9    10   ar
    16    10    11   ar
    17    11    12   ar
    18    12    13   ar
    19    13    14   ar
    20     6     1   ar
    21    14     9   ar
    22    20    16   ar
    23    20    21    1
@<TRIPOS>MOLECULE
*****
 21 23 0 0 0
SMALL
GASTEIGER

@<TRIPOS>ATOM
      1 C          -0.0208    1.9572   24.4573 C.ar    1  UNL1        0.0417
      2 C          -0.5588    3.3549   24.3725 C.ar    1  UNL1        0.0082
      3 C          -1.2658    3.9589   25.5494 C.ar    1  UNL1        0.0003
      4 C          -1.4350    3.1654   26.8110 C.ar    1  UNL1       -0.0038
      5 C          -0.8970    1.7678   26.8958 C.ar    1  UNL1       -0.0156
      6 C          -0.1900    1.1637   25.7189 C.ar    1  UNL1        0.0044
      7 C           1.3933    0.7489   22.1035 C.1     1  UNL1       -0.0597
      8 C           0.6863    1.3531   23.2804 C.1     1  UNL1       -0.0598
      9 C           2.1004    0.1448   20.9266 C.ar    1  UNL1        0.0420
     10 C           2.0991    0.8549   19.6054 C.ar    1  UNL1        0.0082
     11 C           2.8062    0.2507   18.4285 C.ar    1  UNL1        0.0006
     12 C           3.5146   -1.0636   18.5729 C.ar    1  UNL1        0.0000
     13 C           3.5159   -1.7737   19.8942 C.ar    1  UNL1        0.0006
     14 C           2.8088   -1.1695   21.0710 C.ar    1  UNL1        0.0082
     15 C          -1.0661    0.9742   28.1574 C.3     1  UNL1        0.0715
     16 C           0.1329    0.6152   28.9840 C.ar    1  UNL1        0.0586
     17 C           0.6181    1.3490   30.1990 C.ar    1  UNL1        0.1134
     18 N           1.8424    0.6465   30.7066 N.ar    1  UNL1       -0.2229
     19 C           2.1139   -0.5215   29.8054 C.ar    1  UNL1        0.1748
     20 N           1.0574   -0.5409   28.7408 N.ar    1  UNL1       -0.3379
     21 H           0.9837   -1.1971   28.0106 H       1  UNL1        0.1672
@<TRIPOS>BOND
     1     7     8    3
     2     8     1    1
     3     1     2   ar
     4     2     3   ar
     5     3     4   ar
     6     4     5   ar
     7     5    15    1
     8    15    16    1
     9    16    17   ar
    10    17    18   ar
    11    18    19   ar
    12    19    20   ar
    13     5     6   ar
    14     7     9    1
    15     9    10   ar
    16    10    11   ar
    17    11    12   ar
    18    12    13   ar
    19    13    14   ar
    20     6     1   ar
    21    14     9   ar
    22    20    16   ar
    23    20    21    1
@<TRIPOS>MOLECULE
*****
 21 23 0 0 0
SMALL
GASTEIGER

@<TRIPOS>ATOM
      1 C           1.9365    0.4401   20.7550 C.ar    1  UNL1        0.0417
      2 C           2.2048    1.3453   19.5895 C.ar    1  UNL1        0.0082
      3 C           2.9228    0.8202   18.3818 C.ar    1  UNL1        0.0003
      4 C           3.3726   -0.6101   18.3396 C.ar    1  UNL1       -0.0038
      5 C           3.1043   -1.5154   19.5051 C.ar    1  UNL1       -0.0156
      6 C           2.3863   -0.9903   20.7128 C.ar    1  UNL1        0.0044
      7 C           0.5004    1.4903   23.1706 C.1     1  UNL1       -0.0597
      8 C           1.2184    0.9652   21.9628 C.1     1  UNL1       -0.0598
      9 C          -0.2176    2.0154   24.3784 C.ar    1  UNL1        0.0420
     10 C          -1.0954    3.2261   24.2616 C.ar    1  UNL1        0.0082
     11 C          -1.8134    3.7511   25.4694 C.ar    1  UNL1        0.0006
     12 C          -1.6537    3.0655   26.7939 C.ar    1  UNL1        0.0000
     13 C          -0.7759    1.8547   26.9107 C.ar    1  UNL1        0.0006
     14 C          -0.0579    1.3297   25.7029 C.ar    1  UNL1        0.0082
     15 C           3.5541   -2.9457   19.4630 C.3     1  UNL1        0.0715
     16 C           4.7161   -3.3915   20.3001 C.ar    1  UNL1        0.0586
     17 C           4.6469   -3.8749   21.7185 C.ar    1  UNL1        0.1134
     18 N           6.0395   -4.2144   22.1610 N.ar    1  UNL1       -0.2229
     19 C           6.9693   -3.9408   21.0160 C.ar    1  UNL1        0.1748
     20 N           6.1514   -3.4323   19.8660 N.ar    1  UNL1       -0.3379
     21 H           6.4961   -3.1712   18.9816 H       1  UNL1        0.1672
@<TRIPOS>BOND
     1     7     8    3
     2     8     1    1
     3     1     2   ar
     4     2     3   ar
     5     3     4   ar
     6     4     5   ar
     7     5    15    1
     8    15    16    1
     9    16    17   ar
    10    17    18   ar
    11    18    19   ar
    12    19    20   ar
    13     5     6   ar
    14     7     9    1
    15     9    10   ar
    16    10    11   ar
    17    11    12   ar
    18    12    13   ar
    19    13    14   ar
    20     6     1   ar
    21    14     9   ar
    22    20    16   ar
    23    20    21    1
@<TRIPOS>MOLECULE
*****
 21 23 0 0 0
SMALL
GASTEIGER

@<TRIPOS>ATOM
      1 C          -7.4489  -18.3788   21.9026 C.ar    1  UNL1        0.0417
      2 C          -8.7189  -18.5666   21.1269 C.ar    1  UNL1        0.0082
      3 C          -8.7185  -19.3959   19.8770 C.ar    1  UNL1        0.0003
      4 C          -7.4482  -20.0374   19.4029 C.ar    1  UNL1       -0.0038
      5 C          -6.1783  -19.8496   20.1786 C.ar    1  UNL1       -0.0156
      6 C          -6.1786  -19.0203   21.4285 C.ar    1  UNL1        0.0044
      7 C          -7.4494  -16.7201   24.4024 C.1     1  UNL1       -0.0597
      8 C          -7.4491  -17.5495   23.1525 C.1     1  UNL1       -0.0598
      9 C          -7.4497  -15.8908   25.6523 C.ar    1  UNL1        0.0420
     10 C          -8.7226  -15.6928   26.4208 C.ar    1  UNL1        0.0082
     11 C          -8.7228  -14.8635   27.6706 C.ar    1  UNL1        0.0006
     12 C          -7.4502  -14.2322   28.1521 C.ar    1  UNL1        0.0000
     13 C          -6.1773  -14.4302   27.3836 C.ar    1  UNL1        0.0006
     14 C          -6.1771  -15.2595   26.1338 C.ar    1  UNL1        0.0082
     15 C          -4.9080  -20.4912   19.7045 C.3     1  UNL1        0.0715
     16 C          -3.5914  -19.8125   19.9409 C.ar    1  UNL1        0.0586
     17 C          -2.7110  -19.9900   21.1424 C.ar    1  UNL1        0.1134
     18 N          -1.4994  -19.1242   20.9613 N.ar    1  UNL1       -0.2229
     19 C          -1.6310  -18.4117   19.6479 C.ar    1  UNL1        0.1748
     20 N          -2.9238  -18.8370   19.0172 N.ar    1  UNL1       -0.3379
     21 H          -3.2730  -18.5299   18.1495 H       1  UNL1        0.1672
@<TRIPOS>BOND
     1     7     8    3
     2     8     1    1
     3     1     2   ar
     4     2     3   ar
     5     3     4   ar
     6     4     5   ar
     7     5    15    1
     8    15    16    1
     9    16    17   ar
    10    17    18   ar
    11    18    19   ar
    12    19    20   ar
    13     5     6   ar
    14     7     9    1
    15     9    10   ar
    16    10    11   ar
    17    11    12   ar
    18    12    13   ar
    19    13    14   ar
    20     6     1   ar
    21    14     9   ar
    22    20    16   ar
    23    20    21    1
