@<TRIPOS>MOLECULE
*****
 32 35 0 0 0
SMALL
GASTEIGER

@<TRIPOS>ATOM
      1 N           4.4877   -1.7818   20.1862 N.pl3   1  UNL1       -0.3077
      2 C           5.6699   -1.1297   20.8398 C.3     1  UNL1        0.0908
      3 C           6.8885   -1.9410   21.1664 C.3     1  UNL1        0.0229
      4 C           6.9250   -3.4045   20.8393 C.3     1  UNL1        0.0194
      5 C           5.7429   -4.0566   20.1856 C.3     1  UNL1        0.0229
      6 C           4.5242   -3.2452   19.8591 C.3     1  UNL1        0.0908
      7 C           3.0685   -0.4447   18.4692 C.ar    1  UNL1       -0.0033
      8 C           1.8499    0.3667   18.1427 C.ar    1  UNL1       -0.0027
      9 C           0.8318    0.6522   19.2066 C.ar    1  UNL1       -0.0002
     10 C           1.0323    0.1264   20.5970 C.ar    1  UNL1        0.0012
     11 C           2.2509   -0.6849   20.9235 C.ar    1  UNL1        0.0142
     12 C           3.2690   -0.9704   19.8596 C.ar    1  UNL1        0.0441
     13 C           4.0866   -0.7302   17.4053 C.3     1  UNL1        0.0692
     14 O           6.6577   -0.6370   17.0435 O.co2   1  UNL1       -0.5488
     15 C           5.3645    0.0539   17.3602 C.2     1  UNL1        0.0548
     16 O           5.3493    1.5290   17.6319 O.co2   1  UNL1       -0.5488
     17 C           8.1437   -4.2158   21.1659 C.3     1  UNL1        0.0722
     18 N           8.1253   -5.1613   22.3302 N.3     1  UNL1       -0.2724
     19 C           8.8789   -6.4562   22.2567 C.3     1  UNL1        0.0758
     20 C           8.8606   -7.4017   23.4210 C.3     1  UNL1        0.0609
     21 C           8.0887   -7.0524   24.6588 C.3     1  UNL1        0.1687
     22 C           7.3351   -5.7576   24.7322 C.3     1  UNL1        0.0609
     23 C           7.3534   -4.8120   23.5679 C.3     1  UNL1        0.0758
     24 O           8.0703   -7.9980   25.8230 O.3     1  UNL1       -0.4790
     25 C           8.2518   -7.4748   27.2171 C.ar    1  UNL1        0.1393
     26 C           9.3520   -8.0133   28.0830 C.ar    1  UNL1        0.0378
     27 C           9.5334   -7.4901   29.4770 C.ar    1  UNL1        0.0154
     28 C           8.6147   -6.4284   30.0052 C.ar    1  UNL1        0.0684
     29 CL          8.7963   -5.9053   31.3992 Cl      1  UNL1       -0.0814
     30 C           7.5146   -5.8900   29.1393 C.ar    1  UNL1        0.0712
     31 CL          6.5959   -4.8283   29.6675 Cl      1  UNL1       -0.0813
     32 C           7.3331   -6.4132   27.7452 C.ar    1  UNL1        0.0491
@<TRIPOS>UNITY_ATOM_ATTR
14 1
charge -1
@<TRIPOS>BOND
     1    14    15   ar
     2    15    16   ar
     3    15    13    1
     4    13     7    1
     5     7     8   ar
     6     8     9   ar
     7     9    10   ar
     8    10    11   ar
     9    11    12   ar
    10    12     1    1
    11     1     2    1
    12     2     3    1
    13     3     4    1
    14     4    17    1
    15    17    18    1
    16    18    19    1
    17    19    20    1
    18    20    21    1
    19    21    24    1
    20    24    25    1
    21    25    26   ar
    22    26    27   ar
    23    27    28   ar
    24    28    29    1
    25    28    30   ar
    26    30    31    1
    27    30    32   ar
    28    21    22    1
    29    22    23    1
    30     4     5    1
    31     5     6    1
    32    12     7   ar
    33     6     1    1
    34    23    18    1
    35    32    25   ar
@<TRIPOS>MOLECULE
*****
 32 35 0 0 0
SMALL
GASTEIGER

@<TRIPOS>ATOM
      1 N           4.9017   -1.5154   20.4567 N.pl3   1  UNL1       -0.3077
      2 C           5.3686   -2.7495   19.7433 C.3     1  UNL1        0.0908
      3 C           6.6677   -3.3926   20.1289 C.3     1  UNL1        0.0229
      4 C           7.5000   -2.8016   21.2281 C.3     1  UNL1        0.0194
      5 C           7.0331   -1.5674   21.9415 C.3     1  UNL1        0.0229
      6 C           5.7339   -0.9243   21.5558 C.3     1  UNL1        0.0908
      7 C           3.5692    0.1536   18.9772 C.ar    1  UNL1       -0.0033
      8 C           2.2701    0.7967   18.5915 C.ar    1  UNL1       -0.0027
      9 C           1.0044    0.4137   19.2996 C.ar    1  UNL1       -0.0002
     10 C           1.0378   -0.6122   20.3933 C.ar    1  UNL1        0.0012
     11 C           2.3369   -1.2552   20.7790 C.ar    1  UNL1        0.0142
     12 C           3.6026   -0.8723   20.0709 C.ar    1  UNL1        0.0441
     13 C           4.8349    0.5366   18.2692 C.3     1  UNL1        0.0692
     14 O           6.6649   -0.1578   16.5606 O.co2   1  UNL1       -0.5488
     15 C           5.2336   -0.1729   17.0092 C.2     1  UNL1        0.0548
     16 O           4.2009   -0.8975   16.1976 O.co2   1  UNL1       -0.5488
     17 C           8.7990   -3.4446   21.6138 C.3     1  UNL1        0.0722
     18 N           8.8583   -4.3647   22.7970 N.3     1  UNL1       -0.2724
     19 C           9.2929   -3.8405   24.1336 C.3     1  UNL1        0.0758
     20 C           9.3521   -4.7606   25.3168 C.3     1  UNL1        0.0609
     21 C           8.9768   -6.2047   25.1635 C.3     1  UNL1        0.1687
     22 C           8.5423   -6.7288   23.8270 C.3     1  UNL1        0.0609
     23 C           8.4830   -5.8088   22.6437 C.3     1  UNL1        0.0758
     24 O           9.0361   -7.1247   26.3467 O.3     1  UNL1       -0.4790
     25 C           8.4970   -6.6767   27.6729 C.ar    1  UNL1        0.1393
     26 C           7.2138   -5.9026   27.7380 C.ar    1  UNL1        0.0378
     27 C           6.6747   -5.4546   29.0642 C.ar    1  UNL1        0.0154
     28 C           7.4187   -5.7807   30.3251 C.ar    1  UNL1        0.0684
     29 CL          6.8796   -5.3326   31.6513 Cl      1  UNL1       -0.0814
     30 C           8.7019   -6.5548   30.2600 C.ar    1  UNL1        0.0712
     31 CL          9.4459   -6.8809   31.5210 Cl      1  UNL1       -0.0813
     32 C           9.2410   -7.0028   28.9338 C.ar    1  UNL1        0.0491
@<TRIPOS>UNITY_ATOM_ATTR
14 1
charge -1
@<TRIPOS>BOND
     1    14    15   ar
     2    15    16   ar
     3    15    13    1
     4    13     7    1
     5     7     8   ar
     6     8     9   ar
     7     9    10   ar
     8    10    11   ar
     9    11    12   ar
    10    12     1    1
    11     1     2    1
    12     2     3    1
    13     3     4    1
    14     4    17    1
    15    17    18    1
    16    18    19    1
    17    19    20    1
    18    20    21    1
    19    21    24    1
    20    24    25    1
    21    25    26   ar
    22    26    27   ar
    23    27    28   ar
    24    28    29    1
    25    28    30   ar
    26    30    31    1
    27    30    32   ar
    28    21    22    1
    29    22    23    1
    30     4     5    1
    31     5     6    1
    32    12     7   ar
    33     6     1    1
    34    23    18    1
    35    32    25   ar
@<TRIPOS>MOLECULE
*****
 32 35 0 0 0
SMALL
GASTEIGER

@<TRIPOS>ATOM
      1 N           4.5731   -1.3115   20.8140 N.pl3   1  UNL1       -0.3077
      2 C           5.0371   -2.6388   20.2914 C.3     1  UNL1        0.0908
      3 C           6.2625   -3.2846   20.8668 C.3     1  UNL1        0.0229
      4 C           7.0241   -2.6031   21.9649 C.3     1  UNL1        0.0194
      5 C           6.5602   -1.2759   22.4875 C.3     1  UNL1        0.0229
      6 C           5.3346   -0.6301   21.9120 C.3     1  UNL1        0.0908
      7 C           3.4591    0.2034   19.0212 C.ar    1  UNL1       -0.0033
      8 C           2.2336    0.8491   18.4458 C.ar    1  UNL1       -0.0027
      9 C           0.8965    0.6257   19.0878 C.ar    1  UNL1       -0.0002
     10 C           0.7849   -0.2434   20.3052 C.ar    1  UNL1        0.0012
     11 C           2.0104   -0.8892   20.8806 C.ar    1  UNL1        0.0142
     12 C           3.3475   -0.6657   20.2386 C.ar    1  UNL1        0.0441
     13 C           4.7963    0.4269   18.3792 C.3     1  UNL1        0.0692
     14 O           4.1096   -0.9596   16.2920 O.co2   1  UNL1       -0.5488
     15 C           5.1753   -0.3423   17.1485 C.2     1  UNL1        0.0548
     16 O           6.6198   -0.4944   16.7743 O.co2   1  UNL1       -0.5488
     17 C           8.2496   -3.2489   22.5402 C.3     1  UNL1        0.0722
     18 N           8.1938   -3.8894   23.8955 N.3     1  UNL1       -0.2724
     19 C           9.3476   -3.7423   24.8426 C.3     1  UNL1        0.0758
     20 C           9.2917   -4.3828   26.1978 C.3     1  UNL1        0.0609
     21 C           8.0822   -5.1704   26.6059 C.3     1  UNL1        0.1687
     22 C           6.9284   -5.3175   25.6588 C.3     1  UNL1        0.0609
     23 C           6.9842   -4.6770   24.3035 C.3     1  UNL1        0.0758
     24 O           8.0263   -5.8109   27.9612 O.3     1  UNL1       -0.4790
     25 C           7.4845   -5.0445   29.1312 C.ar    1  UNL1        0.1393
     26 C           7.4565   -5.6743   30.4923 C.ar    1  UNL1        0.0378
     27 C           6.9147   -4.9079   31.6623 C.ar    1  UNL1        0.0154
     28 C           6.4009   -3.5116   31.4713 C.ar    1  UNL1        0.0684
     29 CL          5.8591   -2.7452   32.6414 Cl      1  UNL1       -0.0814
     30 C           6.4289   -2.8818   30.1103 C.ar    1  UNL1        0.0712
     31 CL          5.9151   -1.4856   29.9193 Cl      1  UNL1       -0.0813
     32 C           6.9707   -3.6482   28.9402 C.ar    1  UNL1        0.0491
@<TRIPOS>UNITY_ATOM_ATTR
14 1
charge -1
@<TRIPOS>BOND
     1    14    15   ar
     2    15    16   ar
     3    15    13    1
     4    13     7    1
     5     7     8   ar
     6     8     9   ar
     7     9    10   ar
     8    10    11   ar
     9    11    12   ar
    10    12     1    1
    11     1     2    1
    12     2     3    1
    13     3     4    1
    14     4    17    1
    15    17    18    1
    16    18    19    1
    17    19    20    1
    18    20    21    1
    19    21    24    1
    20    24    25    1
    21    25    26   ar
    22    26    27   ar
    23    27    28   ar
    24    28    29    1
    25    28    30   ar
    26    30    31    1
    27    30    32   ar
    28    21    22    1
    29    22    23    1
    30     4     5    1
    31     5     6    1
    32    12     7   ar
    33     6     1    1
    34    23    18    1
    35    32    25   ar
@<TRIPOS>MOLECULE
*****
 32 35 0 0 0
SMALL
GASTEIGER

@<TRIPOS>ATOM
      1 N           4.0751   -1.5965   20.0721 N.pl3   1  UNL1       -0.3077
      2 C           3.9975   -2.9989   19.5456 C.3     1  UNL1        0.0908
      3 C           5.1131   -3.9644   19.8160 C.3     1  UNL1        0.0229
      4 C           6.3065   -3.5274   20.6128 C.3     1  UNL1        0.0194
      5 C           6.3842   -2.1250   21.1393 C.3     1  UNL1        0.0229
      6 C           5.2684   -1.1595   20.8689 C.3     1  UNL1        0.0908
      7 C           3.1589    0.4922   18.8278 C.ar    1  UNL1       -0.0033
      8 C           2.0432    1.4575   18.5574 C.ar    1  UNL1       -0.0027
      9 C           0.7279    1.2997   19.2610 C.ar    1  UNL1       -0.0002
     10 C           0.5282    0.1765   20.2348 C.ar    1  UNL1        0.0012
     11 C           1.6440   -0.7889   20.5052 C.ar    1  UNL1        0.0142
     12 C           2.9593   -0.6310   19.8017 C.ar    1  UNL1        0.0441
     13 C           4.4743    0.6500   18.1243 C.3     1  UNL1        0.0692
     14 O           6.3765   -0.6950   16.9742 O.co2   1  UNL1       -0.5488
     15 C           4.9184   -0.3768   17.1251 C.2     1  UNL1        0.0548
     16 O           3.9044   -1.0854   16.2767 O.co2   1  UNL1       -0.5488
     17 C           7.4222   -4.4928   20.8832 C.3     1  UNL1        0.0722
     18 N           7.8249   -4.7972   22.2957 N.3     1  UNL1       -0.2724
     19 C           9.1312   -5.4804   22.5725 C.3     1  UNL1        0.0758
     20 C           9.5339   -5.7848   23.9850 C.3     1  UNL1        0.0609
     21 C           8.6303   -5.4060   25.1207 C.3     1  UNL1        0.1687
     22 C           7.3239   -4.7227   24.8439 C.3     1  UNL1        0.0609
     23 C           6.9213   -4.4184   23.4314 C.3     1  UNL1        0.0758
     24 O           9.0329   -5.7103   26.5332 O.3     1  UNL1       -0.4790
     25 C           8.3122   -5.0582   27.6757 C.ar    1  UNL1        0.1393
     26 C           7.4051   -5.8704   28.5518 C.ar    1  UNL1        0.0378
     27 C           6.6843   -5.2182   29.6942 C.ar    1  UNL1        0.0154
     28 C           6.8708   -3.7539   29.9606 C.ar    1  UNL1        0.0684
     29 CL          6.1500   -3.1017   31.1032 Cl      1  UNL1       -0.0814
     30 C           7.7779   -2.9417   29.0846 C.ar    1  UNL1        0.0712
     31 CL          7.9643   -1.4774   29.3510 Cl      1  UNL1       -0.0813
     32 C           8.4986   -3.5938   27.9421 C.ar    1  UNL1        0.0491
@<TRIPOS>UNITY_ATOM_ATTR
14 1
charge -1
@<TRIPOS>BOND
     1    14    15   ar
     2    15    16   ar
     3    15    13    1
     4    13     7    1
     5     7     8   ar
     6     8     9   ar
     7     9    10   ar
     8    10    11   ar
     9    11    12   ar
    10    12     1    1
    11     1     2    1
    12     2     3    1
    13     3     4    1
    14     4    17    1
    15    17    18    1
    16    18    19    1
    17    19    20    1
    18    20    21    1
    19    21    24    1
    20    24    25    1
    21    25    26   ar
    22    26    27   ar
    23    27    28   ar
    24    28    29    1
    25    28    30   ar
    26    30    31    1
    27    30    32   ar
    28    21    22    1
    29    22    23    1
    30     4     5    1
    31     5     6    1
    32    12     7   ar
    33     6     1    1
    34    23    18    1
    35    32    25   ar
@<TRIPOS>MOLECULE
*****
 32 35 0 0 0
SMALL
GASTEIGER

@<TRIPOS>ATOM
      1 N           5.6420   -2.4576   21.0330 N.pl3   1  UNL1       -0.3077
      2 C           4.8571   -3.0129   22.1844 C.3     1  UNL1        0.0908
      3 C           5.5301   -3.8923   23.1961 C.3     1  UNL1        0.0229
      4 C           6.9880   -4.2165   23.0565 C.3     1  UNL1        0.0194
      5 C           7.7729   -3.6612   21.9052 C.3     1  UNL1        0.0229
      6 C           7.0998   -2.7817   20.8934 C.3     1  UNL1        0.0908
      7 C           4.6913   -2.0981   18.6420 C.ar    1  UNL1       -0.0033
      8 C           4.0183   -1.2186   17.6303 C.ar    1  UNL1       -0.0027
      9 C           3.6229    0.1808   17.9979 C.ar    1  UNL1       -0.0002
     10 C           3.9004    0.7008   19.3772 C.ar    1  UNL1        0.0012
     11 C           4.5735   -0.1787   20.3889 C.ar    1  UNL1        0.0142
     12 C           4.9689   -1.5781   20.0213 C.ar    1  UNL1        0.0441
     13 C           5.0868   -3.4975   18.2743 C.3     1  UNL1        0.0692
     14 O           2.8182   -4.4992   19.0491 O.co2   1  UNL1       -0.5488
     15 C           4.2848   -4.6605   18.7786 C.2     1  UNL1        0.0548
     16 O           4.9494   -5.9848   19.0123 O.co2   1  UNL1       -0.5488
     17 C           7.6610   -5.0959   24.0682 C.3     1  UNL1        0.0722
     18 N           7.6281   -4.7279   25.5220 N.3     1  UNL1       -0.2724
     19 C           8.5200   -3.6390   26.0404 C.3     1  UNL1        0.0758
     20 C           8.4871   -3.2710   27.4942 C.3     1  UNL1        0.0609
     21 C           7.5622   -3.9918   28.4296 C.3     1  UNL1        0.1687
     22 C           6.6703   -5.0807   27.9112 C.3     1  UNL1        0.0609
     23 C           6.7032   -5.4487   26.4574 C.3     1  UNL1        0.0758
     24 O           7.5293   -3.6238   29.8833 O.3     1  UNL1       -0.4790
     25 C           6.4270   -2.7548   30.4122 C.ar    1  UNL1        0.1393
     26 C           5.8056   -1.7120   29.5309 C.ar    1  UNL1        0.0378
     27 C           4.7034   -0.8430   30.0598 C.ar    1  UNL1        0.0154
     28 C           4.2224   -1.0167   31.4700 C.ar    1  UNL1        0.0684
     29 CL          3.1201   -0.1476   31.9988 Cl      1  UNL1       -0.0814
     30 C           4.8437   -2.0594   32.3512 C.ar    1  UNL1        0.0712
     31 CL          4.3628   -2.2331   33.7614 Cl      1  UNL1       -0.0813
     32 C           5.9461   -2.9285   31.8224 C.ar    1  UNL1        0.0491
@<TRIPOS>UNITY_ATOM_ATTR
14 1
charge -1
@<TRIPOS>BOND
     1    14    15   ar
     2    15    16   ar
     3    15    13    1
     4    13     7    1
     5     7     8   ar
     6     8     9   ar
     7     9    10   ar
     8    10    11   ar
     9    11    12   ar
    10    12     1    1
    11     1     2    1
    12     2     3    1
    13     3     4    1
    14     4    17    1
    15    17    18    1
    16    18    19    1
    17    19    20    1
    18    20    21    1
    19    21    24    1
    20    24    25    1
    21    25    26   ar
    22    26    27   ar
    23    27    28   ar
    24    28    29    1
    25    28    30   ar
    26    30    31    1
    27    30    32   ar
    28    21    22    1
    29    22    23    1
    30     4     5    1
    31     5     6    1
    32    12     7   ar
    33     6     1    1
    34    23    18    1
    35    32    25   ar
@<TRIPOS>MOLECULE
*****
 32 35 0 0 0
SMALL
GASTEIGER

@<TRIPOS>ATOM
      1 N           3.0769   -0.5934   20.3039 N.pl3   1  UNL1       -0.3077
      2 C           1.6351   -0.8297   19.9642 C.3     1  UNL1        0.0908
      3 C           0.8244    0.2632   19.3333 C.3     1  UNL1        0.0229
      4 C           1.4554    1.5925   19.0420 C.3     1  UNL1        0.0194
      5 C           2.8972    1.8288   19.3816 C.3     1  UNL1        0.0229
      6 C           3.7080    0.7358   20.0126 C.3     1  UNL1        0.0908
      7 C           4.5279   -2.7365   20.0762 C.ar    1  UNL1       -0.0033
      8 C           5.3387   -3.8294   20.7072 C.ar    1  UNL1       -0.0027
      9 C           5.5092   -3.8723   22.1968 C.ar    1  UNL1       -0.0002
     10 C           4.8689   -2.8222   23.0555 C.ar    1  UNL1        0.0012
     11 C           4.0582   -1.7293   22.4245 C.ar    1  UNL1        0.0142
     12 C           3.8877   -1.6864   20.9349 C.ar    1  UNL1        0.0441
     13 C           4.3574   -2.6937   18.5865 C.3     1  UNL1        0.0692
     14 O           6.7562   -2.3603   17.6459 O.co2   1  UNL1       -0.5488
     15 C           5.3258   -1.9190   17.7427 C.2     1  UNL1        0.0548
     16 O           4.8640   -0.7029   16.9958 O.co2   1  UNL1       -0.5488
     17 C           0.6446    2.6854   18.4110 C.3     1  UNL1        0.0722
     18 N          -0.6061    3.1732   19.0801 N.3     1  UNL1       -0.2724
     19 C          -0.8295    2.9056   20.5390 C.3     1  UNL1        0.0758
     20 C          -2.0803    3.3933   21.2081 C.3     1  UNL1        0.0609
     21 C          -3.1077    4.1487   20.4183 C.3     1  UNL1        0.1687
     22 C          -2.8843    4.4162   18.9594 C.3     1  UNL1        0.0609
     23 C          -1.6335    3.9285   18.2903 C.3     1  UNL1        0.0758
     24 O          -4.3585    4.6364   21.0874 O.3     1  UNL1       -0.4790
     25 C          -4.4506    4.6530   22.5844 C.ar    1  UNL1        0.1393
     26 C          -5.0595    3.4907   23.3113 C.ar    1  UNL1        0.0378
     27 C          -5.1517    3.5074   24.8084 C.ar    1  UNL1        0.0154
     28 C          -4.6349    4.6863   25.5786 C.ar    1  UNL1        0.0684
     29 CL         -4.7271    4.7029   27.0757 Cl      1  UNL1       -0.0814
     30 C          -4.0260    5.8485   24.8517 C.ar    1  UNL1        0.0712
     31 CL         -3.5092    7.0274   25.6219 Cl      1  UNL1       -0.0813
     32 C          -3.9338    5.8319   23.3546 C.ar    1  UNL1        0.0491
@<TRIPOS>UNITY_ATOM_ATTR
14 1
charge -1
@<TRIPOS>BOND
     1    14    15   ar
     2    15    16   ar
     3    15    13    1
     4    13     7    1
     5     7     8   ar
     6     8     9   ar
     7     9    10   ar
     8    10    11   ar
     9    11    12   ar
    10    12     1    1
    11     1     2    1
    12     2     3    1
    13     3     4    1
    14     4    17    1
    15    17    18    1
    16    18    19    1
    17    19    20    1
    18    20    21    1
    19    21    24    1
    20    24    25    1
    21    25    26   ar
    22    26    27   ar
    23    27    28   ar
    24    28    29    1
    25    28    30   ar
    26    30    31    1
    27    30    32   ar
    28    21    22    1
    29    22    23    1
    30     4     5    1
    31     5     6    1
    32    12     7   ar
    33     6     1    1
    34    23    18    1
    35    32    25   ar
@<TRIPOS>MOLECULE
*****
 32 35 0 0 0
SMALL
GASTEIGER

@<TRIPOS>ATOM
      1 N           2.7741   -0.4783   20.3688 N.pl3   1  UNL1       -0.3077
      2 C           1.2752   -0.5080   20.3199 C.3     1  UNL1        0.0908
      3 C           0.5263    0.5791   19.6077 C.3     1  UNL1        0.0229
      4 C           1.2764    1.6960   18.9443 C.3     1  UNL1        0.0194
      5 C           2.7753    1.7258   18.9932 C.3     1  UNL1        0.0229
      6 C           3.5242    0.6386   19.7055 C.3     1  UNL1        0.0908
      7 C           4.0268   -2.7539   20.3170 C.ar    1  UNL1       -0.0033
      8 C           4.7756   -3.8410   21.0293 C.ar    1  UNL1       -0.0027
      9 C           5.0207   -3.7397   22.5056 C.ar    1  UNL1       -0.0002
     10 C           4.5169   -2.5513   23.2697 C.ar    1  UNL1        0.0012
     11 C           3.7681   -1.4641   22.5575 C.ar    1  UNL1        0.0142
     12 C           3.5230   -1.5654   21.0811 C.ar    1  UNL1        0.0441
     13 C           3.7817   -2.8552   18.8406 C.3     1  UNL1        0.0692
     14 O           4.3134   -1.2286   16.8857 O.co2   1  UNL1       -0.5488
     15 C           4.7643   -2.2622   17.8748 C.2     1  UNL1        0.0548
     16 O           6.1979   -2.7029   17.8981 O.co2   1  UNL1       -0.5488
     17 C           0.5275    2.7831   18.2321 C.3     1  UNL1        0.0722
     18 N          -0.3860    3.6919   19.0000 N.3     1  UNL1       -0.2724
     19 C          -1.7861    3.9303   18.5174 C.3     1  UNL1        0.0758
     20 C          -2.6996    4.8390   19.2854 C.3     1  UNL1        0.0609
     21 C          -2.2130    5.5093   20.5360 C.3     1  UNL1        0.1687
     22 C          -0.8130    5.2708   21.0185 C.3     1  UNL1        0.0609
     23 C           0.1005    4.3621   20.2506 C.3     1  UNL1        0.0758
     24 O          -3.1265    6.4180   21.3039 O.3     1  UNL1       -0.4790
     25 C          -4.3914    5.8783   21.9029 C.ar    1  UNL1        0.1393
     26 C          -5.6972    6.0601   21.1874 C.ar    1  UNL1        0.0378
     27 C          -6.9621    5.5204   21.7864 C.ar    1  UNL1        0.0154
     28 C          -6.9212    4.7989   23.1008 C.ar    1  UNL1        0.0684
     29 CL         -8.1862    4.2591   23.6997 Cl      1  UNL1       -0.0814
     30 C          -5.6155    4.6170   23.8162 C.ar    1  UNL1        0.0712
     31 CL         -5.5746    3.8954   25.1306 Cl      1  UNL1       -0.0813
     32 C          -4.3505    5.1567   23.2173 C.ar    1  UNL1        0.0491
@<TRIPOS>UNITY_ATOM_ATTR
14 1
charge -1
@<TRIPOS>BOND
     1    14    15   ar
     2    15    16   ar
     3    15    13    1
     4    13     7    1
     5     7     8   ar
     6     8     9   ar
     7     9    10   ar
     8    10    11   ar
     9    11    12   ar
    10    12     1    1
    11     1     2    1
    12     2     3    1
    13     3     4    1
    14     4    17    1
    15    17    18    1
    16    18    19    1
    17    19    20    1
    18    20    21    1
    19    21    24    1
    20    24    25    1
    21    25    26   ar
    22    26    27   ar
    23    27    28   ar
    24    28    29    1
    25    28    30   ar
    26    30    31    1
    27    30    32   ar
    28    21    22    1
    29    22    23    1
    30     4     5    1
    31     5     6    1
    32    12     7   ar
    33     6     1    1
    34    23    18    1
    35    32    25   ar
@<TRIPOS>MOLECULE
*****
 32 35 0 0 0
SMALL
GASTEIGER

@<TRIPOS>ATOM
      1 N           5.7471   -2.7834   20.5721 N.pl3   1  UNL1       -0.3077
      2 C           6.0358   -1.3168   20.4463 C.3     1  UNL1        0.0908
      3 C           5.1586   -0.4503   19.5921 C.3     1  UNL1        0.0229
      4 C           3.9927   -1.0504   18.8636 C.3     1  UNL1        0.0194
      5 C           3.7040   -2.5170   18.9894 C.3     1  UNL1        0.0229
      6 C           4.5812   -3.3835   19.8437 C.3     1  UNL1        0.0908
      7 C           6.2697   -3.8902   22.8638 C.ar    1  UNL1       -0.0033
      8 C           7.1469   -4.7567   23.7179 C.ar    1  UNL1       -0.0027
      9 C           8.3788   -5.3828   23.1346 C.ar    1  UNL1       -0.0002
     10 C           8.7335   -5.1425   21.6972 C.ar    1  UNL1        0.0012
     11 C           7.8563   -4.2760   20.8430 C.ar    1  UNL1        0.0142
     12 C           6.6244   -3.6499   21.4263 C.ar    1  UNL1        0.0441
     13 C           5.0377   -3.2641   23.4471 C.3     1  UNL1        0.0692
     14 O           6.3222   -1.1070   24.1157 O.co2   1  UNL1       -0.5488
     15 C           5.1516   -2.0285   24.2899 C.2     1  UNL1        0.0548
     16 O           4.0948   -1.7145   25.3071 O.co2   1  UNL1       -0.5488
     17 C           3.1155   -0.1839   18.0094 C.3     1  UNL1        0.0722
     18 N           2.1441    0.7627   18.6501 N.3     1  UNL1       -0.2724
     19 C           2.2621    2.2378   18.4055 C.3     1  UNL1        0.0758
     20 C           1.2907    3.1844   19.0462 C.3     1  UNL1        0.0609
     21 C           0.2013    2.6558   19.9315 C.3     1  UNL1        0.1687
     22 C           0.0834    1.1806   20.1761 C.3     1  UNL1        0.0609
     23 C           1.0547    0.2340   19.5354 C.3     1  UNL1        0.0758
     24 O          -0.7700    3.6023   20.5721 O.3     1  UNL1       -0.4790
     25 C          -2.2160    3.5762   20.1743 C.ar    1  UNL1        0.1393
     26 C          -3.2647    3.2091   21.1822 C.ar    1  UNL1        0.0378
     27 C          -4.7107    3.1829   20.7844 C.ar    1  UNL1        0.0154
     28 C          -5.1082    3.5238   19.3787 C.ar    1  UNL1        0.0684
     29 CL         -6.5543    3.4977   18.9810 Cl      1  UNL1       -0.0814
     30 C          -4.0596    3.8909   18.3709 C.ar    1  UNL1        0.0712
     31 CL         -4.4571    4.2318   16.9653 Cl      1  UNL1       -0.0813
     32 C          -2.6135    3.9171   18.7687 C.ar    1  UNL1        0.0491
@<TRIPOS>UNITY_ATOM_ATTR
14 1
charge -1
@<TRIPOS>BOND
     1    14    15   ar
     2    15    16   ar
     3    15    13    1
     4    13     7    1
     5     7     8   ar
     6     8     9   ar
     7     9    10   ar
     8    10    11   ar
     9    11    12   ar
    10    12     1    1
    11     1     2    1
    12     2     3    1
    13     3     4    1
    14     4    17    1
    15    17    18    1
    16    18    19    1
    17    19    20    1
    18    20    21    1
    19    21    24    1
    20    24    25    1
    21    25    26   ar
    22    26    27   ar
    23    27    28   ar
    24    28    29    1
    25    28    30   ar
    26    30    31    1
    27    30    32   ar
    28    21    22    1
    29    22    23    1
    30     4     5    1
    31     5     6    1
    32    12     7   ar
    33     6     1    1
    34    23    18    1
    35    32    25   ar
@<TRIPOS>MOLECULE
*****
 32 35 0 0 0
SMALL
GASTEIGER

@<TRIPOS>ATOM
      1 N           4.4208   -1.0742   20.0380 N.pl3   1  UNL1       -0.3077
      2 C           3.0271   -1.3941   20.4909 C.3     1  UNL1        0.0908
      3 C           1.8604   -0.6535   19.9077 C.3     1  UNL1        0.0229
      4 C           2.0873    0.4070   18.8715 C.3     1  UNL1        0.0194
      5 C           3.4811    0.7270   18.4185 C.3     1  UNL1        0.0229
      6 C           4.6478   -0.0137   19.0018 C.3     1  UNL1        0.0908
      7 C           6.0512   -3.0966   19.9950 C.ar    1  UNL1       -0.0033
      8 C           7.2180   -3.8372   20.5783 C.ar    1  UNL1       -0.0027
      9 C           7.9210   -3.2961   21.7878 C.ar    1  UNL1       -0.0002
     10 C           7.4574   -2.0144   22.4140 C.ar    1  UNL1        0.0012
     11 C           6.2907   -1.2738   21.8307 C.ar    1  UNL1        0.0142
     12 C           5.5876   -1.8149   20.6212 C.ar    1  UNL1        0.0441
     13 C           5.3482   -3.6377   18.7855 C.3     1  UNL1        0.0692
     14 O           4.9085   -6.1908   18.9825 O.co2   1  UNL1       -0.5488
     15 C           4.3908   -4.7840   18.9247 C.2     1  UNL1        0.0548
     16 O           2.9158   -4.5237   19.0062 O.co2   1  UNL1       -0.5488
     17 C           0.9206    1.1477   18.2883 C.3     1  UNL1        0.0722
     18 N           0.1833    2.1576   19.1167 N.3     1  UNL1       -0.2724
     19 C          -0.0519    1.9027   20.5761 C.3     1  UNL1        0.0758
     20 C          -0.7892    2.9127   21.4045 C.3     1  UNL1        0.0609
     21 C          -1.2912    4.1776   20.7737 C.3     1  UNL1        0.1687
     22 C          -1.0560    4.4325   19.3144 C.3     1  UNL1        0.0609
     23 C          -0.3187    3.4225   18.4859 C.3     1  UNL1        0.0758
     24 O          -2.0285    5.1875   21.6022 O.3     1  UNL1       -0.4790
     25 C          -3.4488    4.9301   22.0100 C.ar    1  UNL1        0.1393
     26 C          -4.5505    5.0342   20.9973 C.ar    1  UNL1        0.0378
     27 C          -5.9708    4.7768   21.4051 C.ar    1  UNL1        0.0154
     28 C          -6.2896    4.4152   22.8256 C.ar    1  UNL1        0.0684
     29 CL         -7.7100    4.1578   23.2333 Cl      1  UNL1       -0.0814
     30 C          -5.1879    4.3111   23.8382 C.ar    1  UNL1        0.0712
     31 CL         -5.5066    3.9495   25.2587 Cl      1  UNL1       -0.0813
     32 C          -3.7675    4.5685   23.4305 C.ar    1  UNL1        0.0491
@<TRIPOS>UNITY_ATOM_ATTR
14 1
charge -1
@<TRIPOS>BOND
     1    14    15   ar
     2    15    16   ar
     3    15    13    1
     4    13     7    1
     5     7     8   ar
     6     8     9   ar
     7     9    10   ar
     8    10    11   ar
     9    11    12   ar
    10    12     1    1
    11     1     2    1
    12     2     3    1
    13     3     4    1
    14     4    17    1
    15    17    18    1
    16    18    19    1
    17    19    20    1
    18    20    21    1
    19    21    24    1
    20    24    25    1
    21    25    26   ar
    22    26    27   ar
    23    27    28   ar
    24    28    29    1
    25    28    30   ar
    26    30    31    1
    27    30    32   ar
    28    21    22    1
    29    22    23    1
    30     4     5    1
    31     5     6    1
    32    12     7   ar
    33     6     1    1
    34    23    18    1
    35    32    25   ar
