@<TRIPOS>MOLECULE
*****
 29 33 0 0 0
SMALL
GASTEIGER

@<TRIPOS>ATOM
      1 C          -1.5620    3.9805   23.6540 C.ar    1  UNL1        0.1545
      2 N          -0.6030    3.4133   22.6498 N.ar    1  UNL1       -0.1971
      3 C          -1.1134    2.8751   21.3461 C.ar    1  UNL1        0.2219
      4 N          -2.5829    2.9040   21.0465 N.ar    1  UNL1       -0.2053
      5 C          -3.5420    3.4712   22.0507 C.ar    1  UNL1        0.1353
      6 S          -5.0332    3.6322   22.0348 S.2     1  UNL1       -0.0458
      7 C          -5.4444    4.2699   23.3287 C.ar    1  UNL1        0.1292
      8 N          -4.2073    4.5031   24.1443 N.ar    1  UNL1       -0.2324
      9 C          -3.0315    4.0094   23.3545 C.ar    1  UNL1        0.1372
     10 C          -0.9007    2.1010   25.8967 C.3     1  UNL1        0.0241
     11 C          -0.7209    3.5790   26.0792 C.3     1  UNL1        0.1039
     12 C          -0.2105    4.1172   27.3829 C.3     1  UNL1        0.1618
     13 O          -0.0307    5.5952   27.5653 O.3     1  UNL1       -0.3502
     14 C          -0.3614    6.5349   26.4439 C.3     1  UNL1        0.1636
     15 C          -0.8718    5.9967   25.1401 C.3     1  UNL1        0.1242
     16 N          -1.0516    4.5188   24.9577 N.pl3   1  UNL1       -0.2885
     17 N          -0.1542    2.3078   20.3418 N.pl3   1  UNL1       -0.2747
     18 C           0.1503    0.8391   20.3420 C.3     1  UNL1        0.1256
     19 C           1.1094    0.2718   19.3378 C.3     1  UNL1        0.1637
     20 O           1.7639    1.1734   18.3334 O.3     1  UNL1       -0.3502
     21 C           1.4593    2.6421   18.3333 C.3     1  UNL1        0.1619
     22 C           0.5003    3.2094   19.3375 C.3     1  UNL1        0.1052
     23 C           0.1957    4.6781   19.3373 C.3     1  UNL1        0.0242
     24 C          -6.8466    4.6141   23.7355 C.ar    1  UNL1        0.0992
     25 C          -7.2592    5.7926   24.5667 C.ar    1  UNL1        0.0429
     26 C          -8.7499    5.7471   24.7275 C.ar    1  UNL1        0.1215
     27 N          -9.2585    4.5405   23.9958 N.ar    1  UNL1       -0.1710
     28 N          -8.0821    3.8403   23.3826 N.ar    1  UNL1       -0.2737
     29 H          -8.1152    3.0173   22.8433 H       1  UNL1        0.1890
@<TRIPOS>BOND
     1    11    10    1
     2    11    12    1
     3    12    13    1
     4    13    14    1
     5    14    15    1
     6    15    16    1
     7    16     1    1
     8     1     2   ar
     9     2     3   ar
    10     3    17    1
    11    17    18    1
    12    18    19    1
    13    19    20    1
    14    20    21    1
    15    21    22    1
    16    22    23    1
    17     3     4   ar
    18     4     5   ar
    19     5     6   ar
    20     6     7   ar
    21     7    24    1
    22    24    25   ar
    23    25    26   ar
    24    26    27   ar
    25    27    28   ar
    26     7     8   ar
    27     8     9   ar
    28    16    11    1
    29     9     1   ar
    30    22    17    1
    31     9     5   ar
    32    28    24   ar
    33    28    29    1
@<TRIPOS>MOLECULE
*****
 29 33 0 0 0
SMALL
GASTEIGER

@<TRIPOS>ATOM
      1 C           5.8538   -1.8278   29.6094 C.ar    1  UNL1        0.1545
      2 N           5.7804   -1.1512   30.9462 N.ar    1  UNL1       -0.1971
      3 C           6.2045   -1.8861   32.1830 C.ar    1  UNL1        0.2219
      4 N           6.7020   -3.2977   32.0833 N.ar    1  UNL1       -0.2053
      5 C           6.7754   -3.9743   30.7466 C.ar    1  UNL1        0.1353
      6 S           7.2198   -5.3481   30.3400 S.2     1  UNL1       -0.0458
      7 C           7.0705   -5.4621   28.8519 C.ar    1  UNL1        0.1292
      8 N           6.5336   -4.1589   28.3386 N.ar    1  UNL1       -0.2324
      9 C           6.3512   -3.2394   29.5096 C.ar    1  UNL1        0.1372
     10 C           7.8357   -0.1487   28.1087 C.3     1  UNL1        0.0241
     11 C           6.4207   -0.2532   27.6221 C.3     1  UNL1        0.1039
     12 C           5.9967    0.4817   26.3852 C.3     1  UNL1        0.1618
     13 O           4.5815    0.3772   25.8987 O.3     1  UNL1       -0.3502
     14 C           3.5906   -0.4623   26.6491 C.3     1  UNL1        0.1636
     15 C           4.0146   -1.1974   27.8861 C.3     1  UNL1        0.1242
     16 N           5.4297   -1.0928   28.3725 N.pl3   1  UNL1       -0.2885
     17 N           6.1311   -1.2095   33.5198 N.pl3   1  UNL1       -0.2747
     18 C           4.8472   -1.2181   34.2953 C.3     1  UNL1        0.1256
     19 C           4.7738   -0.5415   35.6320 C.3     1  UNL1        0.1637
     20 O           5.9844    0.1438   36.1932 O.3     1  UNL1       -0.3502
     21 C           7.2683    0.1524   35.4177 C.3     1  UNL1        0.1619
     22 C           7.3417   -0.5242   34.0810 C.3     1  UNL1        0.1052
     23 C           8.6256   -0.5155   33.3053 C.3     1  UNL1        0.0242
     24 C           7.4000   -6.6677   28.0225 C.ar    1  UNL1        0.0992
     25 C           8.5284   -7.6250   28.2680 C.ar    1  UNL1        0.0429
     26 C           8.4849   -8.6767   27.1992 C.ar    1  UNL1        0.1215
     27 N           7.3295   -8.3693   26.2932 N.ar    1  UNL1       -0.1710
     28 N           6.6591   -7.1277   26.8021 N.ar    1  UNL1       -0.2737
     29 H           5.8711   -6.6912   26.4048 H       1  UNL1        0.1890
@<TRIPOS>BOND
     1    11    10    1
     2    11    12    1
     3    12    13    1
     4    13    14    1
     5    14    15    1
     6    15    16    1
     7    16     1    1
     8     1     2   ar
     9     2     3   ar
    10     3    17    1
    11    17    18    1
    12    18    19    1
    13    19    20    1
    14    20    21    1
    15    21    22    1
    16    22    23    1
    17     3     4   ar
    18     4     5   ar
    19     5     6   ar
    20     6     7   ar
    21     7    24    1
    22    24    25   ar
    23    25    26   ar
    24    26    27   ar
    25    27    28   ar
    26     7     8   ar
    27     8     9   ar
    28    16    11    1
    29     9     1   ar
    30    22    17    1
    31     9     5   ar
    32    28    24   ar
    33    28    29    1
@<TRIPOS>MOLECULE
*****
 29 33 0 0 0
SMALL
GASTEIGER

@<TRIPOS>ATOM
      1 C           3.8999    0.5588   33.6203 C.ar    1  UNL1        0.1545
      2 N           3.9909    1.0676   35.0284 N.ar    1  UNL1       -0.1971
      3 C           3.0249    2.1071   35.5142 C.ar    1  UNL1        0.2219
      4 N           1.9677    2.6379   34.5919 N.ar    1  UNL1       -0.2053
      5 C           1.8767    2.1292   33.1837 C.ar    1  UNL1        0.1353
      6 S           0.9477    2.4625   32.0542 S.2     1  UNL1       -0.0458
      7 C           1.3396    1.6290   30.8704 C.ar    1  UNL1        0.1292
      8 N           2.5109    0.7805   31.2682 N.ar    1  UNL1       -0.2324
      9 C           2.8428    1.0896   32.6979 C.ar    1  UNL1        0.1372
     10 C           6.5516    1.3878   32.4885 C.3     1  UNL1        0.0241
     11 C           6.1920   -0.0662   32.5685 C.3     1  UNL1        0.1039
     12 C           7.1580   -1.1056   32.0828 C.3     1  UNL1        0.1618
     13 O           6.7983   -2.5597   32.1628 O.3     1  UNL1       -0.3502
     14 C           5.4725   -2.9742   32.7288 C.3     1  UNL1        0.1636
     15 C           4.5063   -1.9347   33.2146 C.3     1  UNL1        0.1242
     16 N           4.8660   -0.4807   33.1345 N.pl3   1  UNL1       -0.2885
     17 N           3.1159    2.6158   36.9224 N.pl3   1  UNL1       -0.2747
     18 C           2.2007    2.0696   37.9779 C.3     1  UNL1        0.1256
     19 C           2.2917    2.5783   39.3860 C.3     1  UNL1        0.1637
     20 O           3.2980    3.6333   39.7387 O.3     1  UNL1       -0.3502
     21 C           4.2133    4.1795   38.6833 C.3     1  UNL1        0.1619
     22 C           4.1222    3.6708   37.2752 C.3     1  UNL1        0.1052
     23 C           5.0375    4.2170   36.2197 C.3     1  UNL1        0.0242
     24 C           0.6767    1.6417   29.5248 C.ar    1  UNL1        0.0992
     25 C           0.0284    0.4693   28.8503 C.ar    1  UNL1        0.0429
     26 C          -0.5032    0.9320   27.5262 C.ar    1  UNL1        0.1215
     27 N          -0.1835    2.3905   27.3824 N.ar    1  UNL1       -0.1710
     28 N           0.5458    2.8291   28.6177 N.ar    1  UNL1       -0.2737
     29 H           0.8798    3.7370   28.8009 H       1  UNL1        0.1890
@<TRIPOS>BOND
     1    11    10    1
     2    11    12    1
     3    12    13    1
     4    13    14    1
     5    14    15    1
     6    15    16    1
     7    16     1    1
     8     1     2   ar
     9     2     3   ar
    10     3    17    1
    11    17    18    1
    12    18    19    1
    13    19    20    1
    14    20    21    1
    15    21    22    1
    16    22    23    1
    17     3     4   ar
    18     4     5   ar
    19     5     6   ar
    20     6     7   ar
    21     7    24    1
    22    24    25   ar
    23    25    26   ar
    24    26    27   ar
    25    27    28   ar
    26     7     8   ar
    27     8     9   ar
    28    16    11    1
    29     9     1   ar
    30    22    17    1
    31     9     5   ar
    32    28    24   ar
    33    28    29    1
@<TRIPOS>MOLECULE
*****
 29 33 0 0 0
SMALL
GASTEIGER

@<TRIPOS>ATOM
      1 C           2.8013    0.7470   22.2883 C.ar    1  UNL1        0.1545
      2 N           3.5499    0.2675   21.0802 N.ar    1  UNL1       -0.1971
      3 C           4.6169   -0.7767   21.2247 C.ar    1  UNL1        0.2219
      4 N           4.9354   -1.3415   22.5774 N.ar    1  UNL1       -0.2053
      5 C           4.1868   -0.8620   23.7855 C.ar    1  UNL1        0.1353
      6 S           4.2803   -1.2315   25.2362 S.2     1  UNL1       -0.0458
      7 C           3.2710   -0.4156   25.9883 C.ar    1  UNL1        0.1292
      8 N           2.5537    0.4581   25.0024 N.ar    1  UNL1       -0.2324
      9 C           3.1197    0.1823   23.6410 C.ar    1  UNL1        0.1372
     10 C           0.3358    0.1601   20.6831 C.3     1  UNL1        0.0241
     11 C           0.5014    1.4978   21.3411 C.3     1  UNL1        0.1039
     12 C          -0.5656    2.5420   21.1966 C.3     1  UNL1        0.1618
     13 O          -0.4000    3.8798   21.8547 O.3     1  UNL1       -0.3502
     14 C           0.8327    4.1732   22.6574 C.3     1  UNL1        0.1636
     15 C           1.8999    3.1290   22.8019 C.3     1  UNL1        0.1242
     16 N           1.7342    1.7913   22.1438 N.pl3   1  UNL1       -0.2885
     17 N           5.3656   -1.2563   20.0165 N.pl3   1  UNL1       -0.2747
     18 C           6.6516   -0.5941   19.6194 C.3     1  UNL1        0.1256
     19 C           7.4003   -1.0736   18.4113 C.3     1  UNL1        0.1637
     20 O           6.8628   -2.2152   17.6002 O.3     1  UNL1       -0.3502
     21 C           5.5768   -2.8774   17.9973 C.3     1  UNL1        0.1619
     22 C           4.8281   -2.3979   19.2054 C.3     1  UNL1        0.1052
     23 C           3.5421   -3.0600   19.6025 C.3     1  UNL1        0.0242
     24 C           3.0227   -0.4648   27.4668 C.ar    1  UNL1        0.0992
     25 C           4.0735   -0.5076   28.5364 C.ar    1  UNL1        0.0429
     26 C           3.3801   -0.5491   29.8659 C.ar    1  UNL1        0.1215
     27 N           1.9008   -0.5320   29.6180 N.ar    1  UNL1       -0.1710
     28 N           1.6799   -0.4799   28.1352 N.ar    1  UNL1       -0.2737
     29 H           0.8069   -0.4592   27.6806 H       1  UNL1        0.1890
@<TRIPOS>BOND
     1    11    10    1
     2    11    12    1
     3    12    13    1
     4    13    14    1
     5    14    15    1
     6    15    16    1
     7    16     1    1
     8     1     2   ar
     9     2     3   ar
    10     3    17    1
    11    17    18    1
    12    18    19    1
    13    19    20    1
    14    20    21    1
    15    21    22    1
    16    22    23    1
    17     3     4   ar
    18     4     5   ar
    19     5     6   ar
    20     6     7   ar
    21     7    24    1
    22    24    25   ar
    23    25    26   ar
    24    26    27   ar
    25    27    28   ar
    26     7     8   ar
    27     8     9   ar
    28    16    11    1
    29     9     1   ar
    30    22    17    1
    31     9     5   ar
    32    28    24   ar
    33    28    29    1
@<TRIPOS>MOLECULE
*****
 29 33 0 0 0
SMALL
GASTEIGER

@<TRIPOS>ATOM
      1 C           6.1231   -2.5984   24.2998 C.ar    1  UNL1        0.1545
      2 N           5.9745   -2.2096   22.8587 N.ar    1  UNL1       -0.1971
      3 C           6.4807   -3.1206   21.7800 C.ar    1  UNL1        0.2219
      4 N           7.1356   -4.4206   22.1424 N.ar    1  UNL1       -0.2053
      5 C           7.2842   -4.8094   23.5834 C.ar    1  UNL1        0.1353
      6 S           7.8819   -6.0182   24.2403 S.2     1  UNL1       -0.0458
      7 C           7.7450   -5.8542   25.7250 C.ar    1  UNL1        0.1292
      8 N           7.0628   -4.5440   25.9857 N.ar    1  UNL1       -0.2324
      9 C           6.7780   -3.8983   24.6621 C.ar    1  UNL1        0.1372
     10 C           8.0419   -0.8690   25.8253 C.3     1  UNL1        0.0241
     11 C           6.5763   -0.8225   26.1413 C.3     1  UNL1        0.1039
     12 C           6.0702    0.0886   27.2199 C.3     1  UNL1        0.1618
     13 O           4.6045    0.1351   27.5359 O.3     1  UNL1       -0.3502
     14 C           3.6451   -0.7296   26.7731 C.3     1  UNL1        0.1636
     15 C           4.1513   -1.6408   25.6943 C.3     1  UNL1        0.1242
     16 N           5.6169   -1.6872   25.3785 N.pl3   1  UNL1       -0.2885
     17 N           6.3320   -2.7318   20.3389 N.pl3   1  UNL1       -0.2747
     18 C           7.3280   -1.8064   19.7051 C.3     1  UNL1        0.1256
     19 C           7.1794   -1.4176   18.2641 C.3     1  UNL1        0.1637
     20 O           6.0347   -1.9541   17.4567 O.3     1  UNL1       -0.3502
     21 C           5.0387   -2.8795   18.0904 C.3     1  UNL1        0.1619
     22 C           5.1873   -3.2684   19.5315 C.3     1  UNL1        0.1052
     23 C           4.1914   -4.1938   20.1653 C.3     1  UNL1        0.0242
     24 C           8.2089   -6.8292   26.7663 C.ar    1  UNL1        0.0992
     25 C           8.4230   -8.3000   26.5638 C.ar    1  UNL1        0.0429
     26 C           8.8866   -8.8844   27.8651 C.ar    1  UNL1        0.1215
     27 N           8.9591   -7.7748   28.8720 N.ar    1  UNL1       -0.1710
     28 N           8.5403   -6.5046   28.1927 N.ar    1  UNL1       -0.2737
     29 H           8.4914   -5.6142   28.6100 H       1  UNL1        0.1890
@<TRIPOS>BOND
     1    11    10    1
     2    11    12    1
     3    12    13    1
     4    13    14    1
     5    14    15    1
     6    15    16    1
     7    16     1    1
     8     1     2   ar
     9     2     3   ar
    10     3    17    1
    11    17    18    1
    12    18    19    1
    13    19    20    1
    14    20    21    1
    15    21    22    1
    16    22    23    1
    17     3     4   ar
    18     4     5   ar
    19     5     6   ar
    20     6     7   ar
    21     7    24    1
    22    24    25   ar
    23    25    26   ar
    24    26    27   ar
    25    27    28   ar
    26     7     8   ar
    27     8     9   ar
    28    16    11    1
    29     9     1   ar
    30    22    17    1
    31     9     5   ar
    32    28    24   ar
    33    28    29    1
@<TRIPOS>MOLECULE
*****
 29 33 0 0 0
SMALL
GASTEIGER

@<TRIPOS>ATOM
      1 C           0.2850    3.9523   19.1015 C.ar    1  UNL1        0.1545
      2 N          -0.9191    4.2951   19.9277 N.ar    1  UNL1       -0.1971
      3 C          -1.5487    3.2533   20.8040 C.ar    1  UNL1        0.2219
      4 N          -0.9742    1.8685   20.8543 N.ar    1  UNL1       -0.2053
      5 C           0.2300    1.5257   20.0282 C.ar    1  UNL1        0.1353
      6 S           1.0121    0.2552   19.8729 S.2     1  UNL1       -0.0458
      7 C           2.1250    0.5119   18.9006 C.ar    1  UNL1        0.1292
      8 N           2.0308    1.9411   18.4549 N.ar    1  UNL1       -0.2324
      9 C           0.8596    2.5677   19.1518 C.ar    1  UNL1        0.1372
     10 C          -0.8303    4.4866   16.3683 C.3     1  UNL1        0.0241
     11 C           0.3569    5.2615   16.8585 C.3     1  UNL1        0.1039
     12 C           0.9865    6.3033   15.9821 C.3     1  UNL1        0.1618
     13 O           2.1737    7.0781   16.4723 O.3     1  UNL1       -0.3502
     14 C           2.7313    6.8109   17.8389 C.3     1  UNL1        0.1636
     15 C           2.1018    5.7690   18.7154 C.3     1  UNL1        0.1242
     16 N           0.9146    4.9943   18.2252 N.pl3   1  UNL1       -0.2885
     17 N          -2.7529    3.5961   21.6302 N.pl3   1  UNL1       -0.2747
     18 C          -2.6131    3.8048   23.1090 C.3     1  UNL1        0.1256
     19 C          -3.8173    4.1476   23.9352 C.3     1  UNL1        0.1637
     20 O          -5.1612    4.2816   23.2826 O.3     1  UNL1       -0.3502
     21 C          -5.3009    4.0728   21.8037 C.3     1  UNL1        0.1619
     22 C          -4.0968    3.7301   20.9776 C.3     1  UNL1        0.1052
     23 C          -4.2365    3.5213   19.4987 C.3     1  UNL1        0.0242
     24 C           3.1520   -0.4854   18.4526 C.ar    1  UNL1        0.0992
     25 C           3.6440   -1.6605   19.2446 C.ar    1  UNL1        0.0429
     26 C           4.6633   -2.3841   18.4155 C.ar    1  UNL1        0.1215
     27 N           4.8013   -1.6563   17.1111 N.ar    1  UNL1       -0.1710
     28 N           3.8672   -0.4828   17.1341 N.ar    1  UNL1       -0.2737
     29 H           3.7450    0.1739   16.4108 H       1  UNL1        0.1890
@<TRIPOS>BOND
     1    11    10    1
     2    11    12    1
     3    12    13    1
     4    13    14    1
     5    14    15    1
     6    15    16    1
     7    16     1    1
     8     1     2   ar
     9     2     3   ar
    10     3    17    1
    11    17    18    1
    12    18    19    1
    13    19    20    1
    14    20    21    1
    15    21    22    1
    16    22    23    1
    17     3     4   ar
    18     4     5   ar
    19     5     6   ar
    20     6     7   ar
    21     7    24    1
    22    24    25   ar
    23    25    26   ar
    24    26    27   ar
    25    27    28   ar
    26     7     8   ar
    27     8     9   ar
    28    16    11    1
    29     9     1   ar
    30    22    17    1
    31     9     5   ar
    32    28    24   ar
    33    28    29    1
@<TRIPOS>MOLECULE
*****
 29 33 0 0 0
SMALL
GASTEIGER

@<TRIPOS>ATOM
      1 C           4.4742   -0.7072   21.0939 C.ar    1  UNL1        0.1545
      2 N           3.4233    0.3501   20.9273 N.ar    1  UNL1       -0.1971
      3 C           2.6295    0.8119   22.1131 C.ar    1  UNL1        0.2219
      4 N           2.8864    0.2165   23.4657 N.ar    1  UNL1       -0.2053
      5 C           3.9373   -0.8408   23.6324 C.ar    1  UNL1        0.1353
      6 S           4.4100   -1.6056   24.8330 S.2     1  UNL1       -0.0458
      7 C           5.4961   -2.5401   24.3891 C.ar    1  UNL1        0.1292
      8 N           5.6946   -2.3529   22.9141 N.ar    1  UNL1       -0.2324
      9 C           4.7312   -1.3026   22.4464 C.ar    1  UNL1        0.1372
     10 C           3.5594   -3.0853   19.5104 C.3     1  UNL1        0.0241
     11 C           4.8107   -2.3581   19.1161 C.3     1  UNL1        0.1039
     12 C           5.6046   -2.8199   17.9303 C.3     1  UNL1        0.1618
     13 O           6.8560   -2.0927   17.5361 O.3     1  UNL1       -0.3502
     14 C           7.3133   -0.9036   18.3278 C.3     1  UNL1        0.1636
     15 C           6.5194   -0.4417   19.5138 C.3     1  UNL1        0.1242
     16 N           5.2682   -1.1690   19.9080 N.pl3   1  UNL1       -0.2885
     17 N           1.5785    1.8693   21.9465 N.pl3   1  UNL1       -0.2747
     18 C           1.7569    3.2122   22.5905 C.3     1  UNL1        0.1256
     19 C           0.7061    4.2695   22.4239 C.3     1  UNL1        0.1637
     20 O          -0.5232    3.9839   21.6132 O.3     1  UNL1       -0.3502
     21 C          -0.7017    2.6410   20.9691 C.3     1  UNL1        0.1619
     22 C           0.3492    1.5837   21.1358 C.3     1  UNL1        0.1052
     23 C           0.1709    0.2407   20.4917 C.3     1  UNL1        0.0242
     24 C           6.2512   -3.4943   25.2662 C.ar    1  UNL1        0.0992
     25 C           7.2265   -4.5351   24.8020 C.ar    1  UNL1        0.0429
     26 C           7.7417   -5.2594   26.0104 C.ar    1  UNL1        0.1215
     27 N           7.0848   -4.6661   27.2214 N.ar    1  UNL1       -0.1710
     28 N           6.1636   -3.5752   26.7615 N.ar    1  UNL1       -0.2737
     29 H           5.6004   -3.0114   27.3395 H       1  UNL1        0.1890
@<TRIPOS>BOND
     1    11    10    1
     2    11    12    1
     3    12    13    1
     4    13    14    1
     5    14    15    1
     6    15    16    1
     7    16     1    1
     8     1     2   ar
     9     2     3   ar
    10     3    17    1
    11    17    18    1
    12    18    19    1
    13    19    20    1
    14    20    21    1
    15    21    22    1
    16    22    23    1
    17     3     4   ar
    18     4     5   ar
    19     5     6   ar
    20     6     7   ar
    21     7    24    1
    22    24    25   ar
    23    25    26   ar
    24    26    27   ar
    25    27    28   ar
    26     7     8   ar
    27     8     9   ar
    28    16    11    1
    29     9     1   ar
    30    22    17    1
    31     9     5   ar
    32    28    24   ar
    33    28    29    1
@<TRIPOS>MOLECULE
*****
 29 33 0 0 0
SMALL
GASTEIGER

@<TRIPOS>ATOM
      1 C          -7.6297  -16.8917   24.0504 C.ar    1  UNL1        0.1545
      2 N          -9.1253  -17.0003   24.0141 N.ar    1  UNL1       -0.1971
      3 C          -9.7904  -17.8524   22.9742 C.ar    1  UNL1        0.2219
      4 N          -8.9599  -18.5960   21.9704 N.ar    1  UNL1       -0.2053
      5 C          -7.4643  -18.4874   22.0068 C.ar    1  UNL1        0.1353
      6 S          -6.3926  -19.0994   21.1542 S.2     1  UNL1       -0.0458
      7 C          -5.0651  -18.6255   21.6673 C.ar    1  UNL1        0.1292
      8 N          -5.3164  -17.7206   22.8369 N.ar    1  UNL1       -0.2324
      9 C          -6.7992  -17.6352   23.0467 C.ar    1  UNL1        0.1372
     10 C          -8.6895  -16.8491   26.8566 C.3     1  UNL1        0.0241
     11 C          -7.4945  -16.0182   26.4936 C.3     1  UNL1        0.1039
     12 C          -6.8295  -15.1662   27.5335 C.3     1  UNL1        0.1618
     13 O          -5.6345  -14.3353   27.1704 O.3     1  UNL1       -0.3502
     14 C          -5.1047  -14.3567   25.7673 C.3     1  UNL1        0.1636
     15 C          -5.7697  -15.2088   24.7272 C.3     1  UNL1        0.1242
     16 N          -6.9646  -16.0396   25.0904 N.pl3   1  UNL1       -0.2885
     17 N         -11.2861  -17.9610   22.9379 N.pl3   1  UNL1       -0.2747
     18 C         -12.0416  -18.3303   24.1800 C.3     1  UNL1        0.1256
     19 C         -13.5372  -18.4389   24.1437 C.3     1  UNL1        0.1637
     20 O         -14.2773  -18.1781   22.8653 O.3     1  UNL1       -0.3502
     21 C         -13.5218  -17.8088   21.6232 C.3     1  UNL1        0.1619
     22 C         -12.0262  -17.7002   21.6595 C.3     1  UNL1        0.1052
     23 C         -11.2706  -17.3309   20.4174 C.3     1  UNL1        0.0242
     24 C          -3.7221  -18.9921   21.1087 C.ar    1  UNL1        0.0992
     25 C          -3.0418  -18.3342   19.9449 C.ar    1  UNL1        0.0429
     26 C          -1.7229  -19.0164   19.7329 C.ar    1  UNL1        0.1215
     27 N          -1.5879  -20.0959   20.7656 N.ar    1  UNL1       -0.1710
     28 N          -2.8236  -20.0808   21.6160 N.ar    1  UNL1       -0.2737
     29 H          -3.0118  -20.6803   22.3739 H       1  UNL1        0.1890
@<TRIPOS>BOND
     1    11    10    1
     2    11    12    1
     3    12    13    1
     4    13    14    1
     5    14    15    1
     6    15    16    1
     7    16     1    1
     8     1     2   ar
     9     2     3   ar
    10     3    17    1
    11    17    18    1
    12    18    19    1
    13    19    20    1
    14    20    21    1
    15    21    22    1
    16    22    23    1
    17     3     4   ar
    18     4     5   ar
    19     5     6   ar
    20     6     7   ar
    21     7    24    1
    22    24    25   ar
    23    25    26   ar
    24    26    27   ar
    25    27    28   ar
    26     7     8   ar
    27     8     9   ar
    28    16    11    1
    29     9     1   ar
    30    22    17    1
    31     9     5   ar
    32    28    24   ar
    33    28    29    1
@<TRIPOS>MOLECULE
*****
 29 33 0 0 0
SMALL
GASTEIGER

@<TRIPOS>ATOM
      1 C           6.4561   -3.0135   24.4388 C.ar    1  UNL1        0.1545
      2 N           6.6617   -2.9539   22.9542 N.ar    1  UNL1       -0.1971
      3 C           5.7722   -2.0925   22.1078 C.ar    1  UNL1        0.2219
      4 N           4.6769   -1.2904   22.7460 N.ar    1  UNL1       -0.2053
      5 C           4.4713   -1.3500   24.2306 C.ar    1  UNL1        0.1353
      6 S           3.4821   -0.6760   25.1346 S.2     1  UNL1       -0.0458
      7 C           3.7604   -1.1210   26.5398 C.ar    1  UNL1        0.1292
      8 N           4.9215   -2.0700   26.5042 N.ar    1  UNL1       -0.2324
      9 C           5.3609   -2.2115   25.0770 C.ar    1  UNL1        0.1372
     10 C           9.0571   -1.9287   25.4674 C.3     1  UNL1        0.0241
     11 C           8.6463   -3.3326   25.7996 C.3     1  UNL1        0.1039
     12 C           9.5358   -4.1940   26.6459 C.3     1  UNL1        0.1618
     13 O           9.1250   -5.5980   26.9781 O.3     1  UNL1       -0.3502
     14 C           7.8244   -6.1403   26.4638 C.3     1  UNL1        0.1636
     15 C           6.9348   -5.2788   25.6174 C.3     1  UNL1        0.1242
     16 N           7.3457   -3.8750   25.2853 N.pl3   1  UNL1       -0.2885
     17 N           5.9779   -2.0330   20.6231 N.pl3   1  UNL1       -0.2747
     18 C           6.8960   -1.0035   20.0338 C.3     1  UNL1        0.1256
     19 C           7.1017   -0.9440   18.5491 C.3     1  UNL1        0.1637
     20 O           6.3892   -1.9139   17.6538 O.3     1  UNL1       -0.3502
     21 C           5.4710   -2.9434   18.2431 C.3     1  UNL1        0.1619
     22 C           5.2654   -3.0029   19.7277 C.3     1  UNL1        0.1052
     23 C           4.3473   -4.0323   20.3172 C.3     1  UNL1        0.0242
     24 C           3.0093   -0.6924   27.7654 C.ar    1  UNL1        0.0992
     25 C           3.5755   -0.5720   29.1493 C.ar    1  UNL1        0.0429
     26 C           2.4764   -0.1141   30.0615 C.ar    1  UNL1        0.1215
     27 N           1.2309    0.0486   29.2415 N.ar    1  UNL1       -0.1710
     28 N           1.5603   -0.3088   27.8224 N.ar    1  UNL1       -0.2737
     29 H           0.9352   -0.2942   27.0620 H       1  UNL1        0.1890
@<TRIPOS>BOND
     1    11    10    1
     2    11    12    1
     3    12    13    1
     4    13    14    1
     5    14    15    1
     6    15    16    1
     7    16     1    1
     8     1     2   ar
     9     2     3   ar
    10     3    17    1
    11    17    18    1
    12    18    19    1
    13    19    20    1
    14    20    21    1
    15    21    22    1
    16    22    23    1
    17     3     4   ar
    18     4     5   ar
    19     5     6   ar
    20     6     7   ar
    21     7    24    1
    22    24    25   ar
    23    25    26   ar
    24    26    27   ar
    25    27    28   ar
    26     7     8   ar
    27     8     9   ar
    28    16    11    1
    29     9     1   ar
    30    22    17    1
    31     9     5   ar
    32    28    24   ar
    33    28    29    1
