@<TRIPOS>MOLECULE
*****
 35 38 0 0 0
SMALL
GASTEIGER

@<TRIPOS>ATOM
      1 N          -5.7122  -15.2046   23.1433 N.am    1  UNL1       -0.2683
      2 C          -4.6750  -16.2572   22.8859 C.2     1  UNL1        0.3045
      3 O          -5.0423  -17.7091   22.9725 O.2     1  UNL1       -0.2525
      4 N          -3.2706  -15.8581   22.5419 N.am    1  UNL1       -0.2887
      5 H          -5.4712  -14.2518   23.0865 H       1  UNL1        0.1564
      6 H          -3.0296  -14.9053   22.4850 H       1  UNL1        0.1510
      7 C          -9.5589  -16.0993   22.7527 C.ar    1  UNL1        0.0386
      8 C          -9.9254  -16.4021   24.1753 C.ar    1  UNL1        0.0032
      9 C          -8.8875  -16.3057   25.2539 C.ar    1  UNL1        0.0014
     10 C          -7.4831  -15.9066   24.9099 C.ar    1  UNL1        0.0147
     11 C          -7.1166  -15.6038   23.4873 C.ar    1  UNL1        0.0517
     12 C          -8.1545  -15.7001   22.4087 C.ar    1  UNL1        0.0178
     13 C         -12.6551  -17.0509   23.1492 C.3     1  UNL1        0.1573
     14 N         -12.0199  -16.6330   21.8562 N.ar    1  UNL1       -0.2113
     15 N         -12.6964  -16.5792   20.5185 N.ar    1  UNL1       -0.0429
     16 N         -11.6913  -16.1084   19.5094 N.ar    1  UNL1       -0.0227
     17 N         -10.3937  -15.8714   20.2235 N.ar    1  UNL1       -0.1081
     18 C         -10.5968  -16.1956   21.6739 C.ar    1  UNL1        0.1839
     19 C          -2.2334  -16.9108   22.2845 C.3     1  UNL1        0.0924
     20 C          -1.7521  -17.1634   20.8864 C.3     1  UNL1        0.0386
     21 C          -2.7402  -17.4289   19.7896 C.3     1  UNL1        0.0738
     22 N          -3.7036  -18.5725   19.9086 N.3     1  UNL1       -0.2726
     23 C          -3.1955  -19.9546   20.1942 C.3     1  UNL1        0.0721
     24 C          -4.1589  -21.0982   20.3133 C.3     1  UNL1        0.0174
     25 C          -5.6305  -20.8595   20.1466 C.3     1  UNL1        0.0031
     26 C          -6.1385  -19.4774   19.8610 C.3     1  UNL1        0.0204
     27 C          -5.1751  -18.3339   19.7420 C.3     1  UNL1        0.0724
     28 C          -7.6101  -19.2388   19.6944 C.3     1  UNL1        0.0277
     29 C          -8.5443  -19.4842   20.8419 C.ar    1  UNL1       -0.0220
     30 C         -10.0086  -19.6866   20.5869 C.ar    1  UNL1       -0.0020
     31 C         -10.9429  -19.9320   21.7345 C.ar    1  UNL1        0.0293
     32 C         -10.4128  -19.9751   23.1371 C.ar    1  UNL1        0.1401
     33 F         -11.3471  -20.2205   24.2847 F       1  UNL1       -0.2042
     34 C          -8.9486  -19.7727   23.3921 C.ar    1  UNL1        0.0293
     35 C          -8.0143  -19.5273   22.2445 C.ar    1  UNL1       -0.0020
@<TRIPOS>BOND
     1    13    14    1
     2    14    15   ar
     3    15    16   ar
     4    16    17   ar
     5    17    18   ar
     6    18     7    1
     7     7     8   ar
     8     8     9   ar
     9     9    10   ar
    10    10    11   ar
    11    11     1    1
    12     1     2   am
    13     2     3    2
    14     2     4   am
    15     4    19    1
    16    19    20    1
    17    20    21    1
    18    21    22    1
    19    22    23    1
    20    23    24    1
    21    24    25    1
    22    25    26    1
    23    26    28    1
    24    28    29    1
    25    29    30   ar
    26    30    31   ar
    27    31    32   ar
    28    32    33    1
    29    32    34   ar
    30    34    35   ar
    31    26    27    1
    32    11    12   ar
    33    18    14   ar
    34    12     7   ar
    35    27    22    1
    36    35    29   ar
    37     1     5    1
    38     4     6    1
@<TRIPOS>MOLECULE
*****
 35 38 0 0 0
SMALL
GASTEIGER

@<TRIPOS>ATOM
      1 N          -8.5060  -15.0789   21.7175 N.am    1  UNL1       -0.2683
      2 C          -7.6222  -15.5851   22.8187 C.2     1  UNL1        0.3045
      3 O          -8.0883  -16.7069   23.6988 O.2     1  UNL1       -0.2525
      4 N          -6.2723  -14.9696   23.0400 N.am    1  UNL1       -0.2887
      5 H          -8.2000  -14.3427   21.1400 H       1  UNL1        0.1564
      6 H          -5.9664  -14.2333   22.4624 H       1  UNL1        0.1510
      7 C         -11.9037  -17.0120   22.4019 C.ar    1  UNL1        0.0386
      8 C         -12.5556  -16.9256   21.0538 C.ar    1  UNL1        0.0032
      9 C         -11.8575  -16.2236   19.9269 C.ar    1  UNL1        0.0014
     10 C         -10.5077  -15.6081   20.1481 C.ar    1  UNL1        0.0147
     11 C          -9.8558  -15.6945   21.4963 C.ar    1  UNL1        0.0517
     12 C         -10.5538  -16.3965   22.6232 C.ar    1  UNL1        0.0178
     13 C         -10.4986  -18.9568   24.6141 C.3     1  UNL1        0.1573
     14 N         -11.9559  -18.6079   24.5457 N.ar    1  UNL1       -0.2113
     15 N         -13.0231  -19.0917   25.4821 N.ar    1  UNL1       -0.0429
     16 N         -14.3286  -18.4968   25.0441 N.ar    1  UNL1       -0.0227
     17 N         -14.0682  -17.6453   23.8370 N.ar    1  UNL1       -0.1081
     18 C         -12.6017  -17.7140   23.5289 C.ar    1  UNL1        0.1839
     19 C          -5.3886  -15.4758   24.1413 C.3     1  UNL1        0.0924
     20 C          -4.5625  -16.7104   23.9324 C.3     1  UNL1        0.0386
     21 C          -3.4377  -16.7011   22.9402 C.3     1  UNL1        0.0738
     22 N          -3.4436  -17.6648   21.7907 N.3     1  UNL1       -0.2726
     23 C          -2.3898  -17.5702   20.7273 C.3     1  UNL1        0.0721
     24 C          -2.3957  -18.5339   19.5778 C.3     1  UNL1        0.0174
     25 C          -3.4554  -19.5921   19.4917 C.3     1  UNL1        0.0031
     26 C          -4.5091  -19.6866   20.5550 C.3     1  UNL1        0.0204
     27 C          -4.5032  -18.7229   21.7045 C.3     1  UNL1        0.0724
     28 C          -5.5688  -20.7448   20.4689 C.3     1  UNL1        0.0277
     29 C          -6.9830  -20.3652   20.1433 C.ar    1  UNL1       -0.0220
     30 C          -7.6029  -20.8165   18.8540 C.ar    1  UNL1       -0.0020
     31 C          -9.0170  -20.4370   18.5284 C.ar    1  UNL1        0.0293
     32 C          -9.8114  -19.6060   19.4921 C.ar    1  UNL1        0.1401
     33 F         -11.2256  -19.2265   19.1666 F       1  UNL1       -0.2042
     34 C          -9.1916  -19.1547   20.7813 C.ar    1  UNL1        0.0293
     35 C          -7.7774  -19.5343   21.1069 C.ar    1  UNL1       -0.0020
@<TRIPOS>BOND
     1    13    14    1
     2    14    15   ar
     3    15    16   ar
     4    16    17   ar
     5    17    18   ar
     6    18     7    1
     7     7     8   ar
     8     8     9   ar
     9     9    10   ar
    10    10    11   ar
    11    11     1    1
    12     1     2   am
    13     2     3    2
    14     2     4   am
    15     4    19    1
    16    19    20    1
    17    20    21    1
    18    21    22    1
    19    22    23    1
    20    23    24    1
    21    24    25    1
    22    25    26    1
    23    26    28    1
    24    28    29    1
    25    29    30   ar
    26    30    31   ar
    27    31    32   ar
    28    32    33    1
    29    32    34   ar
    30    34    35   ar
    31    26    27    1
    32    11    12   ar
    33    18    14   ar
    34    12     7   ar
    35    27    22    1
    36    35    29   ar
    37     1     5    1
    38     4     6    1
@<TRIPOS>MOLECULE
*****
 35 38 0 0 0
SMALL
GASTEIGER

@<TRIPOS>ATOM
      1 N         -13.3127   -4.5860   19.8076 N.am    1  UNL1       -0.2683
      2 C         -12.0796   -5.1284   19.1481 C.2     1  UNL1        0.3045
      3 O         -12.1632   -6.3649   18.3029 O.2     1  UNL1       -0.2525
      4 N         -10.7628   -4.4345   19.3337 N.am    1  UNL1       -0.2887
      5 H         -13.2578   -3.7745   20.3623 H       1  UNL1        0.1564
      6 H         -10.7079   -3.6230   19.8884 H       1  UNL1        0.1510
      7 C         -15.9847   -7.4461   19.1515 C.ar    1  UNL1        0.0386
      8 C         -17.2631   -6.6679   19.2509 C.ar    1  UNL1        0.0032
      9 C         -17.2248   -5.1957   19.5358 C.ar    1  UNL1        0.0014
     10 C         -15.9080   -4.5018   19.7214 C.ar    1  UNL1        0.0147
     11 C         -14.6295   -5.2800   19.6220 C.ar    1  UNL1        0.0517
     12 C         -14.6679   -6.7521   19.3371 C.ar    1  UNL1        0.0178
     13 C         -18.4921   -9.4496   19.7419 C.3     1  UNL1        0.1573
     14 N         -17.1755   -9.8392   19.1379 N.ar    1  UNL1       -0.2113
     15 N         -16.7803  -11.2181   18.6993 N.ar    1  UNL1       -0.0429
     16 N         -15.3834  -11.1495   18.1569 N.ar    1  UNL1       -0.0227
     17 N         -14.9154   -9.7281   18.2603 N.ar    1  UNL1       -0.1081
     18 C         -16.0230   -8.9183   18.8666 C.ar    1  UNL1        0.1839
     19 C          -9.5295   -4.9770   18.6741 C.3     1  UNL1        0.0924
     20 C          -9.2682   -4.6940   17.2244 C.3     1  UNL1        0.0386
     21 C          -9.6043   -3.3497   16.6502 C.3     1  UNL1        0.0738
     22 N         -11.0173   -2.8479   16.6930 N.3     1  UNL1       -0.2726
     23 C         -12.1025   -3.6010   15.9821 C.3     1  UNL1        0.0721
     24 C         -13.5154   -3.0992   16.0249 C.3     1  UNL1        0.0174
     25 C         -13.8432   -1.8443   16.7785 C.3     1  UNL1        0.0031
     26 C         -12.7580   -1.0913   17.4893 C.3     1  UNL1        0.0204
     27 C         -11.3451   -1.5930   17.4466 C.3     1  UNL1        0.0724
     28 C         -13.0857    0.1636   18.2430 C.3     1  UNL1        0.0277
     29 C         -14.4245    0.3145   18.9024 C.ar    1  UNL1       -0.0220
     30 C         -15.0842    1.6604   18.9612 C.ar    1  UNL1       -0.0020
     31 C         -16.4231    1.8112   19.6206 C.ar    1  UNL1        0.0293
     32 C         -17.1022    0.6161   20.2212 C.ar    1  UNL1        0.1401
     33 F         -18.4410    0.7669   20.8806 F       1  UNL1       -0.2042
     34 C         -16.4425   -0.7297   20.1623 C.ar    1  UNL1        0.0293
     35 C         -15.1037   -0.8806   19.5029 C.ar    1  UNL1       -0.0020
@<TRIPOS>BOND
     1    13    14    1
     2    14    15   ar
     3    15    16   ar
     4    16    17   ar
     5    17    18   ar
     6    18     7    1
     7     7     8   ar
     8     8     9   ar
     9     9    10   ar
    10    10    11   ar
    11    11     1    1
    12     1     2   am
    13     2     3    2
    14     2     4   am
    15     4    19    1
    16    19    20    1
    17    20    21    1
    18    21    22    1
    19    22    23    1
    20    23    24    1
    21    24    25    1
    22    25    26    1
    23    26    28    1
    24    28    29    1
    25    29    30   ar
    26    30    31   ar
    27    31    32   ar
    28    32    33    1
    29    32    34   ar
    30    34    35   ar
    31    26    27    1
    32    11    12   ar
    33    18    14   ar
    34    12     7   ar
    35    27    22    1
    36    35    29   ar
    37     1     5    1
    38     4     6    1
@<TRIPOS>MOLECULE
*****
 35 38 0 0 0
SMALL
GASTEIGER

@<TRIPOS>ATOM
      1 N         -15.1020   -7.2263   19.6801 N.am    1  UNL1       -0.2683
      2 C         -14.1216   -7.2174   18.5448 C.2     1  UNL1        0.3045
      3 O         -14.5669   -6.8065   17.1726 O.2     1  UNL1       -0.2525
      4 N         -12.6960   -7.6193   18.7818 N.am    1  UNL1       -0.2887
      5 H         -14.8097   -7.4959   20.5807 H       1  UNL1        0.1564
      6 H         -12.4038   -7.8889   19.6824 H       1  UNL1        0.1510
      7 C         -18.3821   -5.0049   19.4438 C.ar    1  UNL1        0.0386
      8 C         -19.3788   -6.0205   18.9693 C.ar    1  UNL1        0.0032
      9 C         -18.9498   -7.4381   18.7317 C.ar    1  UNL1        0.0014
     10 C         -17.5242   -7.8400   18.9687 C.ar    1  UNL1        0.0147
     11 C         -16.5276   -6.8244   19.4432 C.ar    1  UNL1        0.0517
     12 C         -16.9565   -5.4068   19.6807 C.ar    1  UNL1        0.0178
     13 C         -19.0975   -2.8057   17.1413 C.3     1  UNL1        0.1573
     14 N         -19.1399   -2.5764   18.6231 N.ar    1  UNL1       -0.2113
     15 N         -19.5186   -1.2961   19.3066 N.ar    1  UNL1       -0.0429
     16 N         -19.4238   -1.5156   20.7875 N.ar    1  UNL1       -0.0227
     17 N         -18.9866   -2.9316   21.0191 N.ar    1  UNL1       -0.1081
     18 C         -18.8111   -3.5873   19.6814 C.ar    1  UNL1        0.1839
     19 C         -11.7157   -7.6103   17.6464 C.3     1  UNL1        0.0924
     20 C         -10.2423   -7.6100   17.9278 C.3     1  UNL1        0.0386
     21 C          -9.6085   -6.4319   18.6061 C.3     1  UNL1        0.0738
     22 N          -9.8474   -5.0468   18.0822 N.3     1  UNL1       -0.2726
     23 C          -9.2612   -4.6317   16.7653 C.3     1  UNL1        0.0721
     24 C          -9.5000   -3.2466   16.2413 C.3     1  UNL1        0.0174
     25 C         -10.3251   -2.2767   17.0342 C.3     1  UNL1        0.0031
     26 C         -10.9112   -2.6918   18.3510 C.3     1  UNL1        0.0204
     27 C         -10.6724   -4.0769   18.8750 C.3     1  UNL1        0.0724
     28 C         -11.7363   -1.7219   19.1439 C.3     1  UNL1        0.0277
     29 C         -13.0949   -1.3171   18.6538 C.ar    1  UNL1       -0.0220
     30 C         -14.2909   -2.1639   18.9742 C.ar    1  UNL1       -0.0020
     31 C         -15.6495   -1.7591   18.4841 C.ar    1  UNL1        0.0293
     32 C         -15.8122   -0.5074   17.6736 C.ar    1  UNL1        0.1401
     33 F         -17.1708   -0.1025   17.1835 F       1  UNL1       -0.2042
     34 C         -14.6163    0.3394   17.3533 C.ar    1  UNL1        0.0293
     35 C         -13.2576   -0.0654   17.8434 C.ar    1  UNL1       -0.0020
@<TRIPOS>BOND
     1    13    14    1
     2    14    15   ar
     3    15    16   ar
     4    16    17   ar
     5    17    18   ar
     6    18     7    1
     7     7     8   ar
     8     8     9   ar
     9     9    10   ar
    10    10    11   ar
    11    11     1    1
    12     1     2   am
    13     2     3    2
    14     2     4   am
    15     4    19    1
    16    19    20    1
    17    20    21    1
    18    21    22    1
    19    22    23    1
    20    23    24    1
    21    24    25    1
    22    25    26    1
    23    26    28    1
    24    28    29    1
    25    29    30   ar
    26    30    31   ar
    27    31    32   ar
    28    32    33    1
    29    32    34   ar
    30    34    35   ar
    31    26    27    1
    32    11    12   ar
    33    18    14   ar
    34    12     7   ar
    35    27    22    1
    36    35    29   ar
    37     1     5    1
    38     4     6    1
@<TRIPOS>MOLECULE
*****
 35 38 0 0 0
SMALL
GASTEIGER

@<TRIPOS>ATOM
      1 N           4.9468   -3.1689   33.0855 N.am    1  UNL1       -0.2683
      2 C           6.1053   -3.4738   32.1828 C.2     1  UNL1        0.3045
      3 O           6.8096   -2.3609   31.4646 O.2     1  UNL1       -0.2525
      4 N           6.5595   -4.8914   31.9981 N.am    1  UNL1       -0.2887
      5 H           4.4846   -3.8993   33.5568 H       1  UNL1        0.1564
      6 H           6.0973   -5.6217   32.4694 H       1  UNL1        0.1510
      7 C           3.2499    0.3477   32.3760 C.ar    1  UNL1        0.0386
      8 C           3.5841    1.0839   33.6395 C.ar    1  UNL1        0.0032
      9 C           4.3726    0.4024   34.7182 C.ar    1  UNL1        0.0014
     10 C           4.8268   -1.0152   34.5336 C.ar    1  UNL1        0.0147
     11 C           4.4926   -1.7513   33.2701 C.ar    1  UNL1        0.0517
     12 C           3.7041   -1.0699   32.1914 C.ar    1  UNL1        0.0178
     13 C           4.3994    1.3124   29.4781 C.3     1  UNL1        0.1573
     14 N           2.9897    1.4726   29.9651 N.ar    1  UNL1       -0.2113
     15 N           1.8610    2.1043   29.2057 N.ar    1  UNL1       -0.0429
     16 N           0.6349    2.0514   30.0683 N.ar    1  UNL1       -0.0227
     17 N           1.0060    1.3869   31.3609 N.ar    1  UNL1       -0.1081
     18 C           2.4614    1.0292   31.2971 C.ar    1  UNL1        0.1839
     19 C           7.7181   -5.1961   31.0953 C.3     1  UNL1        0.0924
     20 C           7.5023   -5.9876   29.8395 C.3     1  UNL1        0.0386
     21 C           6.7882   -5.3672   28.6754 C.3     1  UNL1        0.0738
     22 N           7.1767   -5.7359   27.2742 N.3     1  UNL1       -0.2726
     23 C           7.4550   -7.1680   26.9253 C.3     1  UNL1        0.0721
     24 C           7.8435   -7.5367   25.5242 C.3     1  UNL1        0.0174
     25 C           7.9535   -6.4732   24.4719 C.3     1  UNL1        0.0031
     26 C           7.6751   -5.0412   24.8209 C.3     1  UNL1        0.0204
     27 C           7.2867   -4.6725   26.2220 C.3     1  UNL1        0.0724
     28 C           7.7852   -3.9778   23.7686 C.3     1  UNL1        0.0277
     29 C           6.7340   -3.8639   22.7047 C.ar    1  UNL1       -0.0220
     30 C           5.3094   -3.5875   23.0844 C.ar    1  UNL1       -0.0020
     31 C           4.2582   -3.4736   22.0204 C.ar    1  UNL1        0.0293
     32 C           4.6316   -3.6361   20.5767 C.ar    1  UNL1        0.1401
     33 F           3.5804   -3.5222   19.5127 F       1  UNL1       -0.2042
     34 C           6.0562   -3.9125   20.1971 C.ar    1  UNL1        0.0293
     35 C           7.1074   -4.0264   21.2610 C.ar    1  UNL1       -0.0020
@<TRIPOS>BOND
     1    13    14    1
     2    14    15   ar
     3    15    16   ar
     4    16    17   ar
     5    17    18   ar
     6    18     7    1
     7     7     8   ar
     8     8     9   ar
     9     9    10   ar
    10    10    11   ar
    11    11     1    1
    12     1     2   am
    13     2     3    2
    14     2     4   am
    15     4    19    1
    16    19    20    1
    17    20    21    1
    18    21    22    1
    19    22    23    1
    20    23    24    1
    21    24    25    1
    22    25    26    1
    23    26    28    1
    24    28    29    1
    25    29    30   ar
    26    30    31   ar
    27    31    32   ar
    28    32    33    1
    29    32    34   ar
    30    34    35   ar
    31    26    27    1
    32    11    12   ar
    33    18    14   ar
    34    12     7   ar
    35    27    22    1
    36    35    29   ar
    37     1     5    1
    38     4     6    1
@<TRIPOS>MOLECULE
*****
 35 38 0 0 0
SMALL
GASTEIGER

@<TRIPOS>ATOM
      1 N           2.4672   -0.7778   21.7456 N.am    1  UNL1       -0.2683
      2 C           1.8211    0.5739   21.6729 C.2     1  UNL1        0.3045
      3 O           2.6109    1.8022   22.0159 O.2     1  UNL1       -0.2525
      4 N           0.3851    0.6975   21.2573 N.am    1  UNL1       -0.2887
      5 H           1.9488   -1.5840   21.5205 H       1  UNL1        0.1564
      6 H          -0.1333   -0.1086   21.0322 H       1  UNL1        0.1510
      7 C           5.7255   -1.9842   23.6634 C.ar    1  UNL1        0.0386
      8 C           6.7750   -1.1485   22.9926 C.ar    1  UNL1        0.0032
      9 C           6.3886   -0.1893   21.9061 C.ar    1  UNL1        0.0014
     10 C           4.9527   -0.0657   21.4905 C.ar    1  UNL1        0.0147
     11 C           3.9031   -0.9014   22.1613 C.ar    1  UNL1        0.0517
     12 C           4.2895   -1.8607   23.2477 C.ar    1  UNL1        0.0178
     13 C           5.6618   -1.3784   26.8694 C.3     1  UNL1        0.1573
     14 N           6.0826   -2.6651   26.2235 N.ar    1  UNL1       -0.2113
     15 N           6.5480   -3.8992   26.9378 N.ar    1  UNL1       -0.0429
     16 N           6.8650   -4.9405   25.9057 N.ar    1  UNL1       -0.0227
     17 N           6.5955   -4.3499   24.5535 N.ar    1  UNL1       -0.1081
     18 C           6.1119   -2.9436   24.7499 C.ar    1  UNL1        0.1839
     19 C          -0.2610    2.0493   21.1846 C.3     1  UNL1        0.0924
     20 C          -0.1232    2.8806   19.9437 C.3     1  UNL1        0.0386
     21 C           0.3225    2.2446   18.6605 C.3     1  UNL1        0.0738
     22 N           1.7692    1.9062   18.4540 N.3     1  UNL1       -0.2726
     23 C           2.8194    2.9622   18.6334 C.3     1  UNL1        0.0721
     24 C           4.2661    2.6239   18.4269 C.3     1  UNL1        0.0174
     25 C           4.6626    1.2296   18.0409 C.3     1  UNL1        0.0031
     26 C           3.6124    0.1737   17.8615 C.3     1  UNL1        0.0204
     27 C           2.1657    0.5121   18.0680 C.3     1  UNL1        0.0724
     28 C           4.0089   -1.2205   17.4755 C.3     1  UNL1        0.0277
     29 C           4.8088   -2.0627   18.4246 C.ar    1  UNL1       -0.0220
     30 C           4.1199   -3.0701   19.2967 C.ar    1  UNL1       -0.0020
     31 C           4.9199   -3.9123   20.2459 C.ar    1  UNL1        0.0293
     32 C           6.4088   -3.7469   20.3229 C.ar    1  UNL1        0.1401
     33 F           7.2088   -4.5891   21.2720 F       1  UNL1       -0.2042
     34 C           7.0977   -2.7395   19.4508 C.ar    1  UNL1        0.0293
     35 C           6.2977   -1.8974   18.5017 C.ar    1  UNL1       -0.0020
@<TRIPOS>BOND
     1    13    14    1
     2    14    15   ar
     3    15    16   ar
     4    16    17   ar
     5    17    18   ar
     6    18     7    1
     7     7     8   ar
     8     8     9   ar
     9     9    10   ar
    10    10    11   ar
    11    11     1    1
    12     1     2   am
    13     2     3    2
    14     2     4   am
    15     4    19    1
    16    19    20    1
    17    20    21    1
    18    21    22    1
    19    22    23    1
    20    23    24    1
    21    24    25    1
    22    25    26    1
    23    26    28    1
    24    28    29    1
    25    29    30   ar
    26    30    31   ar
    27    31    32   ar
    28    32    33    1
    29    32    34   ar
    30    34    35   ar
    31    26    27    1
    32    11    12   ar
    33    18    14   ar
    34    12     7   ar
    35    27    22    1
    36    35    29   ar
    37     1     5    1
    38     4     6    1
