@<TRIPOS>MOLECULE
*****
 33 38 0 0 0
SMALL
GASTEIGER

@<TRIPOS>ATOM
      1 C          -7.9173  -19.0931   19.9316 C.3     1  UNL1        0.0749
      2 C          -8.2766  -18.2662   21.1303 C.3     1  UNL1        0.0444
      3 C          -9.7173  -18.0435   21.4833 C.ar    1  UNL1       -0.0101
      4 C         -10.7988  -18.6479   20.6376 C.ar    1  UNL1       -0.0091
      5 C         -12.2396  -18.4252   20.9907 C.ar    1  UNL1       -0.0032
      6 C         -12.5988  -17.5982   22.1895 C.ar    1  UNL1        0.0010
      7 C         -11.5174  -16.9939   23.0352 C.ar    1  UNL1        0.0142
      8 C         -10.0766  -17.2165   22.6821 C.ar    1  UNL1        0.0436
      9 C         -10.4395  -19.4748   19.4389 C.3     1  UNL1        0.0954
     10 N          -8.9988  -19.6975   19.0858 N.3     1  UNL1       -0.2934
     11 H          -8.8685  -19.3382   18.1402 H       1  UNL1        0.1236
     12 N          -8.9952  -16.6122   23.5278 N.pl3   1  UNL1       -0.3049
     13 C          -7.8317  -15.9235   22.8781 C.3     1  UNL1        0.1081
     14 C          -6.7502  -15.3192   23.7238 C.3     1  UNL1        0.0938
     15 N          -6.8322  -15.4036   25.2192 N.3     1  UNL1       -0.2709
     16 C          -5.9238  -14.9053   26.3039 C.3     1  UNL1        0.0722
     17 C          -6.5259  -15.2860   27.6240 C.3     1  UNL1        0.0188
     18 C          -7.8063  -16.0196   27.3551 C.3     1  UNL1        0.0191
     19 C          -7.9956  -16.0923   25.8689 C.3     1  UNL1        0.0774
     20 C          -9.0771  -16.6966   25.0232 C.3     1  UNL1        0.1067
     21 C          -6.4765  -19.3158   19.5785 C.3     1  UNL1        0.0886
     22 C          -5.5555  -21.4090   20.8114 C.3     1  UNL1        0.0899
     23 N          -5.5441  -19.9267   20.5821 N.3     1  UNL1       -0.2667
     24 C          -4.6003  -19.0552   21.3566 C.3     1  UNL1        0.0978
     25 C          -4.8929  -18.7204   22.7891 C.3     1  UNL1        0.0224
     26 C          -3.9491  -17.8489   23.5636 C.3     1  UNL1        0.0065
     27 C          -2.7127  -17.3123   22.9054 C.3     1  UNL1        0.0277
     28 C          -2.4200  -17.6470   21.4728 C.ar    1  UNL1       -0.0073
     29 C          -1.1836  -17.1104   20.8147 C.ar    1  UNL1       -0.0015
     30 C          -0.8909  -17.4452   19.3822 C.ar    1  UNL1        0.0203
     31 C          -1.8348  -18.3166   18.6077 C.ar    1  UNL1        0.0985
     32 N          -3.0712  -18.8533   19.2658 N.ar    1  UNL1       -0.2471
     33 C          -3.3638  -18.5185   20.6984 C.ar    1  UNL1        0.0695
@<TRIPOS>BOND
     1    22    23    1
     2    23    21    1
     3     1    21    1
     4     1     2    1
     5     2     3    1
     6     3     4   ar
     7     4     5   ar
     8     5     6   ar
     9     6     7   ar
    10     7     8   ar
    11     8    12    1
    12    12    13    1
    13    13    14    1
    14    14    15    1
    15    15    16    1
    16    16    17    1
    17    17    18    1
    18    19    18    1
    19    19    20    1
    20     4     9    1
    21     9    10    1
    22    24    23    1
    23    24    25    1
    24    25    26    1
    25    26    27    1
    26    27    28    1
    27    28    29   ar
    28    29    30   ar
    29    30    31   ar
    30    31    32   ar
    31    32    33   ar
    32    10     1    1
    33    33    24    1
    34     8     3   ar
    35    20    12    1
    36    33    28   ar
    37    19    15    1
    38    10    11    1
@<TRIPOS>MOLECULE
*****
 33 38 0 0 0
SMALL
GASTEIGER

@<TRIPOS>ATOM
      1 C          -8.7678  -15.8077   22.5663 C.3     1  UNL1        0.0749
      2 C          -7.3526  -16.2615   22.7697 C.3     1  UNL1        0.0444
      3 C          -6.7203  -16.1606   24.1261 C.ar    1  UNL1       -0.0101
      4 C          -7.5032  -15.6061   25.2792 C.ar    1  UNL1       -0.0091
      5 C          -6.8709  -15.5053   26.6357 C.ar    1  UNL1       -0.0032
      6 C          -5.4557  -15.9590   26.8391 C.ar    1  UNL1        0.0010
      7 C          -4.6728  -16.5136   25.6860 C.ar    1  UNL1        0.0142
      8 C          -5.3051  -16.6144   24.3296 C.ar    1  UNL1        0.0436
      9 C          -8.9184  -15.1524   25.0758 C.3     1  UNL1        0.0954
     10 N          -9.5507  -15.2532   23.7193 N.3     1  UNL1       -0.2934
     11 H          -9.8344  -14.3096   23.4559 H       1  UNL1        0.1236
     12 N          -4.5222  -17.1689   23.1765 N.pl3   1  UNL1       -0.3049
     13 C          -4.9742  -18.4292   22.5001 C.3     1  UNL1        0.1081
     14 C          -4.1913  -18.9837   21.3470 C.3     1  UNL1        0.0938
     15 N          -2.9564  -18.2780   20.8703 N.3     1  UNL1       -0.2709
     16 C          -1.9882  -18.5844   19.7665 C.3     1  UNL1        0.0722
     17 C          -0.9379  -17.5136   19.7606 C.3     1  UNL1        0.0188
     18 C          -1.2570  -16.5453   20.8609 C.3     1  UNL1        0.0191
     19 C          -2.5045  -17.0178   21.5468 C.3     1  UNL1        0.0774
     20 C          -3.2874  -16.4632   22.6998 C.3     1  UNL1        0.1067
     21 C          -9.4001  -15.9085   21.2098 C.3     1  UNL1        0.0886
     22 C         -11.1011  -17.0513   19.6127 C.3     1  UNL1        0.0899
     23 N         -10.5847  -16.8042   20.9992 N.3     1  UNL1       -0.2667
     24 C         -11.2530  -17.4529   22.1750 C.3     1  UNL1        0.0978
     25 C         -12.5854  -16.9538   22.6499 C.3     1  UNL1        0.0224
     26 C         -13.2536  -17.6025   23.8258 C.3     1  UNL1        0.0065
     27 C         -12.5895  -18.7502   24.5268 C.3     1  UNL1        0.0277
     28 C         -11.2570  -19.2494   24.0519 C.ar    1  UNL1       -0.0073
     29 C         -10.5928  -20.3972   24.7529 C.ar    1  UNL1       -0.0015
     30 C          -9.2604  -20.8963   24.2781 C.ar    1  UNL1        0.0203
     31 C          -8.5922  -20.2476   23.1022 C.ar    1  UNL1        0.0985
     32 N          -9.2563  -19.0999   22.4012 N.ar    1  UNL1       -0.2471
     33 C         -10.5887  -18.6008   22.8761 C.ar    1  UNL1        0.0695
@<TRIPOS>BOND
     1    22    23    1
     2    23    21    1
     3     1    21    1
     4     1     2    1
     5     2     3    1
     6     3     4   ar
     7     4     5   ar
     8     5     6   ar
     9     6     7   ar
    10     7     8   ar
    11     8    12    1
    12    12    13    1
    13    13    14    1
    14    14    15    1
    15    15    16    1
    16    16    17    1
    17    17    18    1
    18    19    18    1
    19    19    20    1
    20     4     9    1
    21     9    10    1
    22    24    23    1
    23    24    25    1
    24    25    26    1
    25    26    27    1
    26    27    28    1
    27    28    29   ar
    28    29    30   ar
    29    30    31   ar
    30    31    32   ar
    31    32    33   ar
    32    10     1    1
    33    33    24    1
    34     8     3   ar
    35    20    12    1
    36    33    28   ar
    37    19    15    1
    38    10    11    1
@<TRIPOS>MOLECULE
*****
 33 38 0 0 0
SMALL
GASTEIGER

@<TRIPOS>ATOM
      1 C          -5.2968  -18.3026   21.6947 C.3     1  UNL1        0.0749
      2 C          -6.4965  -17.5724   22.2213 C.3     1  UNL1        0.0444
      3 C          -6.3810  -16.7366   23.4615 C.ar    1  UNL1       -0.0101
      4 C          -5.0658  -16.6310   24.1750 C.ar    1  UNL1       -0.0091
      5 C          -4.9504  -15.7951   25.4152 C.ar    1  UNL1       -0.0032
      6 C          -6.1501  -15.0650   25.9419 C.ar    1  UNL1        0.0010
      7 C          -7.4653  -15.1706   25.2284 C.ar    1  UNL1        0.0142
      8 C          -7.5808  -16.0064   23.9882 C.ar    1  UNL1        0.0436
      9 C          -3.8661  -17.3612   23.6484 C.3     1  UNL1        0.0954
     10 N          -3.9816  -18.1970   22.4082 N.3     1  UNL1       -0.2934
     11 H          -3.7094  -19.1456   22.6660 H       1  UNL1        0.1236
     12 N          -8.8960  -16.1120   23.2747 N.pl3   1  UNL1       -0.3049
     13 C         -10.1166  -16.5710   24.0160 C.3     1  UNL1        0.1081
     14 C         -11.4319  -16.6767   23.3025 C.3     1  UNL1        0.0938
     15 N         -11.5264  -16.3232   21.8477 N.3     1  UNL1       -0.2709
     16 C         -12.6777  -16.3290   20.8863 C.3     1  UNL1        0.0722
     17 C         -12.1686  -15.8736   19.5508 C.3     1  UNL1        0.0188
     18 C         -10.7027  -15.5863   19.6870 C.3     1  UNL1        0.0191
     19 C         -10.3058  -15.8642   21.1066 C.3     1  UNL1        0.0774
     20 C          -8.9906  -15.7586   21.8201 C.3     1  UNL1        0.1067
     21 C          -5.4122  -19.1385   20.4545 C.3     1  UNL1        0.0886
     22 C          -5.9186  -21.6867   20.4697 C.3     1  UNL1        0.0899
     23 N          -6.3985  -20.2672   20.3998 N.3     1  UNL1       -0.2667
     24 C          -7.8648  -19.9765   20.2753 C.3     1  UNL1        0.0978
     25 C          -8.4461  -19.6096   18.9422 C.3     1  UNL1        0.0224
     26 C          -9.9124  -19.3189   18.8177 C.3     1  UNL1        0.0065
     27 C         -10.7974  -19.3952   20.0263 C.3     1  UNL1        0.0277
     28 C         -10.2161  -19.7621   21.3596 C.ar    1  UNL1       -0.0073
     29 C         -11.1011  -19.8384   22.5683 C.ar    1  UNL1       -0.0015
     30 C         -10.5198  -20.2053   23.9014 C.ar    1  UNL1        0.0203
     31 C          -9.0535  -20.4960   24.0259 C.ar    1  UNL1        0.0985
     32 N          -8.1685  -20.4197   22.8173 N.ar    1  UNL1       -0.2471
     33 C          -8.7498  -20.0528   21.4841 C.ar    1  UNL1        0.0695
@<TRIPOS>BOND
     1    22    23    1
     2    23    21    1
     3     1    21    1
     4     1     2    1
     5     2     3    1
     6     3     4   ar
     7     4     5   ar
     8     5     6   ar
     9     6     7   ar
    10     7     8   ar
    11     8    12    1
    12    12    13    1
    13    13    14    1
    14    14    15    1
    15    15    16    1
    16    16    17    1
    17    17    18    1
    18    19    18    1
    19    19    20    1
    20     4     9    1
    21     9    10    1
    22    24    23    1
    23    24    25    1
    24    25    26    1
    25    26    27    1
    26    27    28    1
    27    28    29   ar
    28    29    30   ar
    29    30    31   ar
    30    31    32   ar
    31    32    33   ar
    32    10     1    1
    33    33    24    1
    34     8     3   ar
    35    20    12    1
    36    33    28   ar
    37    19    15    1
    38    10    11    1
@<TRIPOS>MOLECULE
*****
 33 38 0 0 0
SMALL
GASTEIGER

@<TRIPOS>ATOM
      1 C          -5.8365  -19.9960   20.9833 C.3     1  UNL1        0.0749
      2 C          -5.4665  -18.8638   21.8949 C.3     1  UNL1        0.0444
      3 C          -4.1424  -18.1767   21.7381 C.ar    1  UNL1       -0.0101
      4 C          -3.1883  -18.6219   20.6696 C.ar    1  UNL1       -0.0091
      5 C          -1.8641  -17.9348   20.5129 C.ar    1  UNL1       -0.0032
      6 C          -1.4941  -16.8026   21.4245 C.ar    1  UNL1        0.0010
      7 C          -2.4482  -16.3574   22.4929 C.ar    1  UNL1        0.0142
      8 C          -3.7723  -17.0444   22.6497 C.ar    1  UNL1        0.0436
      9 C          -3.5583  -19.7542   19.7580 C.3     1  UNL1        0.0954
     10 N          -4.8824  -20.4412   19.9149 N.3     1  UNL1       -0.2934
     11 H          -4.6841  -21.4265   20.0891 H       1  UNL1        0.1236
     12 N          -4.7264  -16.5992   23.7181 N.pl3   1  UNL1       -0.3049
     13 C          -4.2280  -16.3441   25.1097 C.3     1  UNL1        0.1081
     14 C          -5.1821  -15.8989   26.1782 C.3     1  UNL1        0.0938
     15 N          -6.6346  -15.7088   25.8549 N.3     1  UNL1       -0.2709
     16 C          -7.8019  -15.2812   26.6941 C.3     1  UNL1        0.0722
     17 C          -9.0217  -15.2720   25.8212 C.3     1  UNL1        0.0188
     18 C          -8.6082  -15.6940   24.4425 C.3     1  UNL1        0.0191
     19 C          -7.1328  -15.9640   24.4633 C.3     1  UNL1        0.0774
     20 C          -6.1787  -16.4092   23.3949 C.3     1  UNL1        0.1067
     21 C          -7.1607  -20.6831   21.1400 C.3     1  UNL1        0.0886
     22 C          -8.8287  -19.6180   19.4567 C.3     1  UNL1        0.0899
     23 N          -8.4313  -19.9338   20.8683 N.3     1  UNL1       -0.2667
     24 C          -9.3046  -19.5000   22.0082 C.3     1  UNL1        0.0978
     25 C          -9.1910  -20.1793   23.3407 C.3     1  UNL1        0.0224
     26 C         -10.0644  -19.7456   24.4805 C.3     1  UNL1        0.0065
     27 C         -11.0513  -18.6326   24.2878 C.3     1  UNL1        0.0277
     28 C         -11.1650  -17.9533   22.9552 C.ar    1  UNL1       -0.0073
     29 C         -12.1519  -16.8403   22.7625 C.ar    1  UNL1       -0.0015
     30 C         -12.2655  -16.1610   21.4300 C.ar    1  UNL1        0.0203
     31 C         -11.3922  -16.5948   20.2902 C.ar    1  UNL1        0.0985
     32 N         -10.4052  -17.7077   20.4829 N.ar    1  UNL1       -0.2471
     33 C         -10.2916  -18.3870   21.8154 C.ar    1  UNL1        0.0695
@<TRIPOS>BOND
     1    22    23    1
     2    23    21    1
     3     1    21    1
     4     1     2    1
     5     2     3    1
     6     3     4   ar
     7     4     5   ar
     8     5     6   ar
     9     6     7   ar
    10     7     8   ar
    11     8    12    1
    12    12    13    1
    13    13    14    1
    14    14    15    1
    15    15    16    1
    16    16    17    1
    17    17    18    1
    18    19    18    1
    19    19    20    1
    20     4     9    1
    21     9    10    1
    22    24    23    1
    23    24    25    1
    24    25    26    1
    25    26    27    1
    26    27    28    1
    27    28    29   ar
    28    29    30   ar
    29    30    31   ar
    30    31    32   ar
    31    32    33   ar
    32    10     1    1
    33    33    24    1
    34     8     3   ar
    35    20    12    1
    36    33    28   ar
    37    19    15    1
    38    10    11    1
@<TRIPOS>MOLECULE
*****
 33 38 0 0 0
SMALL
GASTEIGER

@<TRIPOS>ATOM
      1 C          -3.8231  -17.9194   23.2506 C.3     1  UNL1        0.0749
      2 C          -5.0052  -18.5838   22.6096 C.3     1  UNL1        0.0444
      3 C          -4.8010  -19.5552   21.4849 C.ar    1  UNL1       -0.0101
      4 C          -3.4146  -19.8620   21.0014 C.ar    1  UNL1       -0.0091
      5 C          -3.2104  -20.8334   19.8767 C.ar    1  UNL1       -0.0032
      6 C          -4.3925  -21.4978   19.2357 C.ar    1  UNL1        0.0010
      7 C          -5.7789  -21.1910   19.7192 C.ar    1  UNL1        0.0142
      8 C          -5.9832  -20.2197   20.8438 C.ar    1  UNL1        0.0436
      9 C          -2.2325  -19.1975   21.6425 C.3     1  UNL1        0.0954
     10 N          -2.4367  -18.2262   22.7671 N.3     1  UNL1       -0.2934
     11 H          -2.0259  -17.3412   22.4700 H       1  UNL1        0.1236
     12 N          -7.3695  -19.9128   21.3274 N.pl3   1  UNL1       -0.3049
     13 C          -8.4102  -19.4273   20.3622 C.3     1  UNL1        0.1081
     14 C          -9.7965  -19.1204   20.8458 C.3     1  UNL1        0.0938
     15 N         -10.1423  -19.2991   22.2944 N.3     1  UNL1       -0.2709
     16 C         -11.4150  -19.0787   23.0571 C.3     1  UNL1        0.0722
     17 C         -11.1609  -19.4280   24.4936 C.3     1  UNL1        0.0188
     18 C          -9.7312  -19.8643   24.6186 C.3     1  UNL1        0.0191
     19 C          -9.1017  -19.7846   23.2595 C.3     1  UNL1        0.0774
     20 C          -7.7153  -20.0915   22.7759 C.3     1  UNL1        0.1067
     21 C          -4.0273  -16.9480   24.3753 C.3     1  UNL1        0.0886
     22 C          -4.5272  -14.6587   23.2530 C.3     1  UNL1        0.0899
     23 N          -4.9261  -15.7619   24.1879 N.3     1  UNL1       -0.2667
     24 C          -6.2239  -15.6788   24.9355 C.3     1  UNL1        0.0978
     25 C          -6.2215  -15.5084   26.4257 C.3     1  UNL1        0.0224
     26 C          -7.5193  -15.4253   27.1733 C.3     1  UNL1        0.0065
     27 C          -8.8195  -15.5125   26.4305 C.3     1  UNL1        0.0277
     28 C          -8.8220  -15.6829   24.9402 C.ar    1  UNL1       -0.0073
     29 C         -10.1223  -15.7702   24.1975 C.ar    1  UNL1       -0.0015
     30 C         -10.1247  -15.9406   22.7072 C.ar    1  UNL1        0.0203
     31 C          -8.8269  -16.0237   21.9597 C.ar    1  UNL1        0.0985
     32 N          -7.5267  -15.9364   22.7024 N.ar    1  UNL1       -0.2471
     33 C          -7.5242  -15.7660   24.1927 C.ar    1  UNL1        0.0695
@<TRIPOS>BOND
     1    22    23    1
     2    23    21    1
     3     1    21    1
     4     1     2    1
     5     2     3    1
     6     3     4   ar
     7     4     5   ar
     8     5     6   ar
     9     6     7   ar
    10     7     8   ar
    11     8    12    1
    12    12    13    1
    13    13    14    1
    14    14    15    1
    15    15    16    1
    16    16    17    1
    17    17    18    1
    18    19    18    1
    19    19    20    1
    20     4     9    1
    21     9    10    1
    22    24    23    1
    23    24    25    1
    24    25    26    1
    25    26    27    1
    26    27    28    1
    27    28    29   ar
    28    29    30   ar
    29    30    31   ar
    30    31    32   ar
    31    32    33   ar
    32    10     1    1
    33    33    24    1
    34     8     3   ar
    35    20    12    1
    36    33    28   ar
    37    19    15    1
    38    10    11    1
@<TRIPOS>MOLECULE
*****
 33 38 0 0 0
SMALL
GASTEIGER

@<TRIPOS>ATOM
      1 C          -9.0541  -15.8697   22.8949 C.3     1  UNL1        0.0749
      2 C          -7.5939  -15.9836   23.2186 C.3     1  UNL1        0.0444
      3 C          -7.1167  -15.7534   24.6219 C.ar    1  UNL1       -0.0101
      4 C          -8.0996  -15.4094   25.7014 C.ar    1  UNL1       -0.0091
      5 C          -7.6223  -15.1792   27.1048 C.ar    1  UNL1       -0.0032
      6 C          -6.1621  -15.2931   27.4285 C.ar    1  UNL1        0.0010
      7 C          -5.1792  -15.6371   26.3489 C.ar    1  UNL1        0.0142
      8 C          -5.6564  -15.8673   24.9456 C.ar    1  UNL1        0.0436
      9 C          -9.5598  -15.2955   25.3777 C.3     1  UNL1        0.0954
     10 N         -10.0371  -15.5256   23.9745 N.3     1  UNL1       -0.2934
     11 H         -10.5102  -14.6711   23.6805 H       1  UNL1        0.1236
     12 N          -4.6735  -16.2113   23.8661 N.pl3   1  UNL1       -0.3049
     13 C          -4.0898  -15.1268   23.0098 C.3     1  UNL1        0.1081
     14 C          -3.1068  -15.4708   21.9303 C.3     1  UNL1        0.0938
     15 N          -2.7076  -16.8994   21.7069 N.3     1  UNL1       -0.2709
     16 C          -1.7683  -17.5375   20.7269 C.3     1  UNL1        0.0722
     17 C          -1.7715  -19.0165   20.9775 C.3     1  UNL1        0.0188
     18 C          -2.7128  -19.2923   22.1123 C.3     1  UNL1        0.0191
     19 C          -3.2913  -17.9839   22.5631 C.3     1  UNL1        0.0774
     20 C          -4.2743  -17.6398   23.6427 C.3     1  UNL1        0.1067
     21 C          -9.5314  -16.0998   21.4916 C.3     1  UNL1        0.0886
     22 C         -10.7300  -17.6986   19.8309 C.3     1  UNL1        0.0899
     23 N          -9.8462  -17.4902   21.0250 N.3     1  UNL1       -0.2667
     24 C          -9.2772  -18.6722   21.7523 C.3     1  UNL1        0.0978
     25 C         -10.0450  -19.3016   22.8767 C.3     1  UNL1        0.0224
     26 C          -9.4760  -20.4837   23.6041 C.3     1  UNL1        0.0065
     27 C          -8.1392  -21.0363   23.2070 C.3     1  UNL1        0.0277
     28 C          -7.3714  -20.4069   22.0826 C.ar    1  UNL1       -0.0073
     29 C          -6.0347  -20.9595   21.6855 C.ar    1  UNL1       -0.0015
     30 C          -5.2669  -20.3301   20.5611 C.ar    1  UNL1        0.0203
     31 C          -5.8359  -19.1480   19.8338 C.ar    1  UNL1        0.0985
     32 N          -7.1726  -18.5954   20.2308 N.ar    1  UNL1       -0.2471
     33 C          -7.9404  -19.2248   21.3552 C.ar    1  UNL1        0.0695
@<TRIPOS>BOND
     1    22    23    1
     2    23    21    1
     3     1    21    1
     4     1     2    1
     5     2     3    1
     6     3     4   ar
     7     4     5   ar
     8     5     6   ar
     9     6     7   ar
    10     7     8   ar
    11     8    12    1
    12    12    13    1
    13    13    14    1
    14    14    15    1
    15    15    16    1
    16    16    17    1
    17    17    18    1
    18    19    18    1
    19    19    20    1
    20     4     9    1
    21     9    10    1
    22    24    23    1
    23    24    25    1
    24    25    26    1
    25    26    27    1
    26    27    28    1
    27    28    29   ar
    28    29    30   ar
    29    30    31   ar
    30    31    32   ar
    31    32    33   ar
    32    10     1    1
    33    33    24    1
    34     8     3   ar
    35    20    12    1
    36    33    28   ar
    37    19    15    1
    38    10    11    1
@<TRIPOS>MOLECULE
*****
 33 38 0 0 0
SMALL
GASTEIGER

@<TRIPOS>ATOM
      1 C           4.2793   -1.9424   24.1567 C.3     1  UNL1        0.0749
      2 C           3.6957   -1.4224   22.8765 C.3     1  UNL1        0.0444
      3 C           4.0321   -2.0870   21.5746 C.ar    1  UNL1       -0.0101
      4 C           4.9522   -3.2714   21.5528 C.ar    1  UNL1       -0.0091
      5 C           5.2887   -3.9360   20.2508 C.ar    1  UNL1       -0.0032
      6 C           4.7050   -3.4161   18.9706 C.ar    1  UNL1        0.0010
      7 C           3.7849   -2.2316   18.9923 C.ar    1  UNL1        0.0142
      8 C           3.4485   -1.5670   20.2943 C.ar    1  UNL1        0.0436
      9 C           5.5358   -3.7914   22.8331 C.3     1  UNL1        0.0954
     10 N           5.1994   -3.1268   24.1350 N.3     1  UNL1       -0.2934
     11 H           6.0815   -2.8221   24.5466 H       1  UNL1        0.1236
     12 N           2.5284   -0.3826   20.3160 N.pl3   1  UNL1       -0.3049
     13 C           1.0426   -0.5864   20.2860 C.3     1  UNL1        0.1081
     14 C           0.1225    0.5980   20.3078 C.3     1  UNL1        0.0938
     15 N           0.6882    1.9864   20.3595 N.3     1  UNL1       -0.2709
     16 C           0.0344    3.3360   20.3905 C.3     1  UNL1        0.0722
     17 C           1.1162    4.3740   20.4397 C.3     1  UNL1        0.0188
     18 C           2.4385    3.6658   20.4390 C.3     1  UNL1        0.0191
     19 C           2.1740    2.1901   20.3894 C.3     1  UNL1        0.0774
     20 C           3.0941    1.0057   20.3677 C.3     1  UNL1        0.1067
     21 C           3.9428   -1.2778   25.4588 C.3     1  UNL1        0.0886
     22 C           4.8962    1.1314   25.6506 C.3     1  UNL1        0.0899
     23 N           3.7246    0.2053   25.5095 N.3     1  UNL1       -0.2667
     24 C           2.3349    0.7625   25.4191 C.3     1  UNL1        0.0978
     25 C           1.8313    1.3145   24.1185 C.3     1  UNL1        0.0224
     26 C           0.4416    1.8717   24.0281 C.3     1  UNL1        0.0065
     27 C          -0.4446    1.8768   25.2383 C.3     1  UNL1        0.0277
     28 C           0.0590    1.3248   26.5390 C.ar    1  UNL1       -0.0073
     29 C          -0.8272    1.3299   27.7492 C.ar    1  UNL1       -0.0015
     30 C          -0.3236    0.7779   29.0498 C.ar    1  UNL1        0.0203
     31 C           1.0662    0.2207   29.1402 C.ar    1  UNL1        0.0985
     32 N           1.9523    0.2156   27.9300 N.ar    1  UNL1       -0.2471
     33 C           1.4487    0.7676   26.6294 C.ar    1  UNL1        0.0695
@<TRIPOS>BOND
     1    22    23    1
     2    23    21    1
     3     1    21    1
     4     1     2    1
     5     2     3    1
     6     3     4   ar
     7     4     5   ar
     8     5     6   ar
     9     6     7   ar
    10     7     8   ar
    11     8    12    1
    12    12    13    1
    13    13    14    1
    14    14    15    1
    15    15    16    1
    16    16    17    1
    17    17    18    1
    18    19    18    1
    19    19    20    1
    20     4     9    1
    21     9    10    1
    22    24    23    1
    23    24    25    1
    24    25    26    1
    25    26    27    1
    26    27    28    1
    27    28    29   ar
    28    29    30   ar
    29    30    31   ar
    30    31    32   ar
    31    32    33   ar
    32    10     1    1
    33    33    24    1
    34     8     3   ar
    35    20    12    1
    36    33    28   ar
    37    19    15    1
    38    10    11    1
