@<TRIPOS>MOLECULE
*****
 26 28 0 0 0
SMALL
GASTEIGER

@<TRIPOS>ATOM
      1 C         -13.0821  -17.7918   21.4882 C.3     1  UNL1        0.0522
      2 C         -11.6638  -17.5284   21.8993 C.ar    1  UNL1        0.0625
      3 C         -11.3742  -16.6050   23.0453 C.ar    1  UNL1        0.0522
      4 C          -9.9558  -16.3416   23.4563 C.ar    1  UNL1        0.1482
      5 C          -8.8271  -17.0015   22.7213 C.ar    1  UNL1        0.0612
      6 C          -9.1167  -17.9248   21.5752 C.ar    1  UNL1        0.1374
      7 N         -10.5350  -18.1883   21.1642 N.ar    1  UNL1       -0.2449
      8 C          -7.9879  -18.5848   20.8401 C.2     1  UNL1        0.2684
      9 O          -8.2481  -19.2866   19.5402 O.2     1  UNL1       -0.2681
     10 N          -6.5989  -18.5430   21.4049 N.am    1  UNL1       -0.2645
     11 H          -6.4281  -18.0824   22.2581 H       1  UNL1        0.1566
     12 C          -5.4701  -19.2030   20.6698 C.ar    1  UNL1        0.1368
     13 C          -5.4550  -20.6933   20.5005 C.ar    1  UNL1        0.0346
     14 C          -4.3263  -21.3532   19.7654 C.ar    1  UNL1        0.0068
     15 C          -3.2126  -20.5228   19.1996 C.ar    1  UNL1        0.0498
     16 C          -3.2277  -19.0325   19.3688 C.ar    1  UNL1        0.2234
     17 F          -2.1141  -18.2020   18.8030 F       1  UNL1       -0.1832
     18 N          -4.3565  -18.3726   20.1039 N.ar    1  UNL1       -0.2029
     19 O          -9.6663  -15.4182   24.6025 O.3     1  UNL1       -0.4518
     20 C          -8.2870  -15.3605   25.1891 C.ar    1  UNL1        0.1666
     21 C          -7.1520  -14.8014   24.3833 C.ar    1  UNL1        0.1364
     22 N          -5.7727  -14.7438   24.9699 N.ar    1  UNL1       -0.2368
     23 C          -5.5284  -15.2452   26.3624 C.ar    1  UNL1        0.1286
     24 C          -6.6633  -15.8042   27.1682 C.ar    1  UNL1        0.1623
     25 F          -6.4190  -16.3056   28.5607 F       1  UNL1       -0.2024
     26 C          -8.0426  -15.8618   26.5815 C.ar    1  UNL1        0.0703
@<TRIPOS>BOND
     1     1     2    1
     2     2     3   ar
     3     3     4   ar
     4     4    19    1
     5    19    20    1
     6    20    21   ar
     7    21    22   ar
     8    22    23   ar
     9    23    24   ar
    10    24    25    1
    11    24    26   ar
    12     4     5   ar
    13     5     6   ar
    14     6     8    1
    15     8     9    2
    16     8    10   am
    17    10    12    1
    18    12    13   ar
    19    13    14   ar
    20    14    15   ar
    21    15    16   ar
    22    16    17    1
    23    16    18   ar
    24     6     7   ar
    25     7     2   ar
    26    26    20   ar
    27    18    12   ar
    28    10    11    1
@<TRIPOS>MOLECULE
*****
 26 28 0 0 0
SMALL
GASTEIGER

@<TRIPOS>ATOM
      1 C         -11.4414  -20.0054   21.1084 C.3     1  UNL1        0.0522
      2 C         -10.2776  -19.1997   21.6049 C.ar    1  UNL1        0.0625
      3 C         -10.4867  -18.1469   22.6526 C.ar    1  UNL1        0.0522
      4 C          -9.3230  -17.3412   23.1491 C.ar    1  UNL1        0.1482
      5 C          -7.9500  -17.5883   22.5978 C.ar    1  UNL1        0.0612
      6 C          -7.7409  -18.6411   21.5500 C.ar    1  UNL1        0.1374
      7 N          -8.9047  -19.4468   21.0536 N.ar    1  UNL1       -0.2449
      8 C          -6.3679  -18.8882   20.9986 C.2     1  UNL1        0.2684
      9 O          -6.1874  -19.7845   19.8094 O.2     1  UNL1       -0.2681
     10 N          -5.1755  -18.2391   21.6364 N.am    1  UNL1       -0.2645
     11 H          -5.2940  -17.6509   22.4169 H       1  UNL1        0.1566
     12 C          -3.8026  -18.4862   21.0851 C.ar    1  UNL1        0.1368
     13 C          -2.8124  -19.2929   21.8717 C.ar    1  UNL1        0.0346
     14 C          -1.4395  -19.5400   21.3203 C.ar    1  UNL1        0.0068
     15 C          -1.0568  -18.9804   19.9823 C.ar    1  UNL1        0.0498
     16 C          -2.0469  -18.1738   19.1956 C.ar    1  UNL1        0.2234
     17 F          -1.6642  -17.6142   17.8576 F       1  UNL1       -0.1832
     18 N          -3.4198  -17.9267   19.7470 N.ar    1  UNL1       -0.2029
     19 O          -9.5322  -16.2884   24.1969 O.3     1  UNL1       -0.4518
     20 C          -8.5161  -16.1000   25.2841 C.ar    1  UNL1        0.1666
     21 C          -8.7996  -16.5986   26.6702 C.ar    1  UNL1        0.1364
     22 N          -7.7835  -16.4102   27.7574 N.ar    1  UNL1       -0.2368
     23 C          -6.4839  -15.7232   27.4586 C.ar    1  UNL1        0.1286
     24 C          -6.2005  -15.2247   26.0726 C.ar    1  UNL1        0.1623
     25 F          -4.9009  -14.5377   25.7738 F       1  UNL1       -0.2024
     26 C          -7.2166  -15.4130   24.9854 C.ar    1  UNL1        0.0703
@<TRIPOS>BOND
     1     1     2    1
     2     2     3   ar
     3     3     4   ar
     4     4    19    1
     5    19    20    1
     6    20    21   ar
     7    21    22   ar
     8    22    23   ar
     9    23    24   ar
    10    24    25    1
    11    24    26   ar
    12     4     5   ar
    13     5     6   ar
    14     6     8    1
    15     8     9    2
    16     8    10   am
    17    10    12    1
    18    12    13   ar
    19    13    14   ar
    20    14    15   ar
    21    15    16   ar
    22    16    17    1
    23    16    18   ar
    24     6     7   ar
    25     7     2   ar
    26    26    20   ar
    27    18    12   ar
    28    10    11    1
@<TRIPOS>MOLECULE
*****
 26 28 0 0 0
SMALL
GASTEIGER

@<TRIPOS>ATOM
      1 C          -9.2350  -21.1927   17.4632 C.3     1  UNL1        0.0522
      2 C          -8.8304  -20.4277   18.6884 C.ar    1  UNL1        0.0625
      3 C          -9.8737  -19.9619   19.6602 C.ar    1  UNL1        0.0522
      4 C          -9.4691  -19.1969   20.8854 C.ar    1  UNL1        0.1482
      5 C          -8.0213  -18.8978   21.1388 C.ar    1  UNL1        0.0612
      6 C          -6.9780  -19.3637   20.1670 C.ar    1  UNL1        0.1374
      7 N          -7.3826  -20.1286   18.9417 N.ar    1  UNL1       -0.2449
      8 C          -5.5301  -19.0646   20.4203 C.2     1  UNL1        0.2684
      9 O          -4.8726  -19.5512   21.6776 O.2     1  UNL1       -0.2681
     10 N          -4.7397  -18.2789   19.4163 N.am    1  UNL1       -0.2645
     11 H          -5.1713  -17.9596   18.5911 H       1  UNL1        0.1566
     12 C          -3.2918  -17.9798   19.6696 C.ar    1  UNL1        0.1368
     13 C          -2.2284  -18.7799   18.9775 C.ar    1  UNL1        0.0346
     14 C          -0.7806  -18.4808   19.2308 C.ar    1  UNL1        0.0068
     15 C          -0.3961  -17.3816   20.1763 C.ar    1  UNL1        0.0498
     16 C          -1.4595  -16.5816   20.8685 C.ar    1  UNL1        0.2234
     17 F          -1.0750  -15.4824   21.8140 F       1  UNL1       -0.1832
     18 N          -2.9073  -16.8807   20.6152 N.ar    1  UNL1       -0.2029
     19 O         -10.5125  -18.7310   21.8573 O.3     1  UNL1       -0.4518
     20 C         -10.1102  -18.2773   23.2293 C.ar    1  UNL1        0.1666
     21 C         -10.1512  -19.2393   24.3795 C.ar    1  UNL1        0.1364
     22 N          -9.7489  -18.7855   25.7514 N.ar    1  UNL1       -0.2368
     23 C          -9.3055  -17.3698   25.9732 C.ar    1  UNL1        0.1286
     24 C          -9.2645  -16.4078   24.8230 C.ar    1  UNL1        0.1623
     25 F          -8.8211  -14.9921   25.0447 F       1  UNL1       -0.2024
     26 C          -9.6668  -16.8616   23.4510 C.ar    1  UNL1        0.0703
@<TRIPOS>BOND
     1     1     2    1
     2     2     3   ar
     3     3     4   ar
     4     4    19    1
     5    19    20    1
     6    20    21   ar
     7    21    22   ar
     8    22    23   ar
     9    23    24   ar
    10    24    25    1
    11    24    26   ar
    12     4     5   ar
    13     5     6   ar
    14     6     8    1
    15     8     9    2
    16     8    10   am
    17    10    12    1
    18    12    13   ar
    19    13    14   ar
    20    14    15   ar
    21    15    16   ar
    22    16    17    1
    23    16    18   ar
    24     6     7   ar
    25     7     2   ar
    26    26    20   ar
    27    18    12   ar
    28    10    11    1
@<TRIPOS>MOLECULE
*****
 26 28 0 0 0
SMALL
GASTEIGER

@<TRIPOS>ATOM
      1 C         -10.7600  -19.2201   19.2362 C.3     1  UNL1        0.0522
      2 C          -9.4571  -19.1352   19.9746 C.ar    1  UNL1        0.0625
      3 C          -8.2266  -19.7721   19.4001 C.ar    1  UNL1        0.0522
      4 C          -6.9236  -19.6872   20.1385 C.ar    1  UNL1        0.1482
      5 C          -6.8512  -18.9653   21.4513 C.ar    1  UNL1        0.0612
      6 C          -8.0817  -18.3283   22.0258 C.ar    1  UNL1        0.1374
      7 N          -9.3846  -18.4133   21.2874 N.ar    1  UNL1       -0.2449
      8 C          -8.0093  -17.6064   23.3387 C.2     1  UNL1        0.2684
      9 O          -9.0876  -17.8025   24.3629 O.2     1  UNL1       -0.2681
     10 N          -6.8588  -16.6883   23.6273 N.am    1  UNL1       -0.2645
     11 H          -6.1511  -16.5596   22.9551 H       1  UNL1        0.1566
     12 C          -6.7864  -15.9664   24.9402 C.ar    1  UNL1        0.1368
     13 C          -5.4912  -15.3595   25.3920 C.ar    1  UNL1        0.0346
     14 C          -5.4189  -14.6376   26.7049 C.ar    1  UNL1        0.0068
     15 C          -6.6417  -14.5226   27.5659 C.ar    1  UNL1        0.0498
     16 C          -7.9369  -15.1294   27.1141 C.ar    1  UNL1        0.2234
     17 F          -9.1598  -15.0144   27.9751 F       1  UNL1       -0.1832
     18 N          -8.0092  -15.8513   25.8013 N.ar    1  UNL1       -0.2029
     19 O          -5.6931  -20.3243   19.5639 O.3     1  UNL1       -0.4518
     20 C          -4.3365  -19.7976   19.9275 C.ar    1  UNL1        0.1666
     21 C          -3.5663  -20.4223   21.0530 C.ar    1  UNL1        0.1364
     22 N          -2.2097  -19.8957   21.4166 N.ar    1  UNL1       -0.2368
     23 C          -1.6232  -18.7443   20.6547 C.ar    1  UNL1        0.1286
     24 C          -2.3933  -18.1196   19.5293 C.ar    1  UNL1        0.1623
     25 F          -1.8069  -16.9682   18.7673 F       1  UNL1       -0.2024
     26 C          -3.7500  -18.6463   19.1657 C.ar    1  UNL1        0.0703
@<TRIPOS>BOND
     1     1     2    1
     2     2     3   ar
     3     3     4   ar
     4     4    19    1
     5    19    20    1
     6    20    21   ar
     7    21    22   ar
     8    22    23   ar
     9    23    24   ar
    10    24    25    1
    11    24    26   ar
    12     4     5   ar
    13     5     6   ar
    14     6     8    1
    15     8     9    2
    16     8    10   am
    17    10    12    1
    18    12    13   ar
    19    13    14   ar
    20    14    15   ar
    21    15    16   ar
    22    16    17    1
    23    16    18   ar
    24     6     7   ar
    25     7     2   ar
    26    26    20   ar
    27    18    12   ar
    28    10    11    1
@<TRIPOS>MOLECULE
*****
 26 28 0 0 0
SMALL
GASTEIGER

@<TRIPOS>ATOM
      1 C           6.8423   -1.5818   33.2516 C.3     1  UNL1        0.0522
      2 C           5.7455   -0.6121   33.5783 C.ar    1  UNL1        0.0625
      3 C           5.7520    0.1131   34.8912 C.ar    1  UNL1        0.0522
      4 C           4.6552    1.0829   35.2179 C.ar    1  UNL1        0.1482
      5 C           3.5519    1.3274   34.2315 C.ar    1  UNL1        0.0612
      6 C           3.5454    0.6022   32.9185 C.ar    1  UNL1        0.1374
      7 N           4.6422   -0.3676   32.5919 N.ar    1  UNL1       -0.2449
      8 C           2.4421    0.8467   31.9321 C.2     1  UNL1        0.2684
      9 O           1.2114    1.5935   32.3533 O.2     1  UNL1       -0.2681
     10 N           2.5696    0.3444   30.5245 N.am    1  UNL1       -0.2645
     11 H           3.3775   -0.1458   30.2480 H       1  UNL1        0.1566
     12 C           1.4663    0.5889   29.5380 C.ar    1  UNL1        0.1368
     13 C           1.5630    1.7332   28.5730 C.ar    1  UNL1        0.0346
     14 C           0.4598    1.9776   27.5866 C.ar    1  UNL1        0.0068
     15 C          -0.7402    1.0778   27.5652 C.ar    1  UNL1        0.0498
     16 C          -0.8369   -0.0665   28.5302 C.ar    1  UNL1        0.2234
     17 F          -2.0368   -0.9663   28.5088 F       1  UNL1       -0.1832
     18 N           0.2664   -0.3109   29.5166 N.ar    1  UNL1       -0.2029
     19 O           4.6617    1.8081   36.5309 O.3     1  UNL1       -0.4518
     20 C           3.4114    1.8754   37.3568 C.ar    1  UNL1        0.1666
     21 C           2.4954    3.0571   37.2359 C.ar    1  UNL1        0.1364
     22 N           1.2450    3.1244   38.0618 N.ar    1  UNL1       -0.2368
     23 C           0.9106    2.0099   39.0085 C.ar    1  UNL1        0.1286
     24 C           1.8266    0.8282   39.1293 C.ar    1  UNL1        0.1623
     25 F           1.4922   -0.2863   40.0759 F       1  UNL1       -0.2024
     26 C           3.0769    0.7609   38.3034 C.ar    1  UNL1        0.0703
@<TRIPOS>BOND
     1     1     2    1
     2     2     3   ar
     3     3     4   ar
     4     4    19    1
     5    19    20    1
     6    20    21   ar
     7    21    22   ar
     8    22    23   ar
     9    23    24   ar
    10    24    25    1
    11    24    26   ar
    12     4     5   ar
    13     5     6   ar
    14     6     8    1
    15     8     9    2
    16     8    10   am
    17    10    12    1
    18    12    13   ar
    19    13    14   ar
    20    14    15   ar
    21    15    16   ar
    22    16    17    1
    23    16    18   ar
    24     6     7   ar
    25     7     2   ar
    26    26    20   ar
    27    18    12   ar
    28    10    11    1
@<TRIPOS>MOLECULE
*****
 26 28 0 0 0
SMALL
GASTEIGER

@<TRIPOS>ATOM
      1 C          -9.3598   -6.1310   18.6720 C.3     1  UNL1        0.0522
      2 C         -10.8489   -6.0479   18.8317 C.ar    1  UNL1        0.0625
      3 C         -11.6946   -7.2695   18.6261 C.ar    1  UNL1        0.0522
      4 C         -13.1838   -7.1864   18.7857 C.ar    1  UNL1        0.1482
      5 C         -13.8272   -5.8816   19.1510 C.ar    1  UNL1        0.0612
      6 C         -12.9815   -4.6600   19.3566 C.ar    1  UNL1        0.1374
      7 N         -11.4924   -4.7431   19.1970 N.ar    1  UNL1       -0.2449
      8 C         -13.6250   -3.3551   19.7220 C.2     1  UNL1        0.2684
      9 O         -13.7013   -2.9330   21.1593 O.2     1  UNL1       -0.2681
     10 N         -14.1921   -2.4724   18.6499 N.am    1  UNL1       -0.2645
     11 H         -14.1420   -2.7495   17.7066 H       1  UNL1        0.1566
     12 C         -14.8355   -1.1676   19.0153 C.ar    1  UNL1        0.1368
     13 C         -14.1957    0.1253   18.6039 C.ar    1  UNL1        0.0346
     14 C         -14.8392    1.4300   18.9693 C.ar    1  UNL1        0.0068
     15 C         -16.1224    1.4420   19.7459 C.ar    1  UNL1        0.0498
     16 C         -16.7622    0.1492   20.1572 C.ar    1  UNL1        0.2234
     17 F         -18.0454    0.1611   20.9338 F       1  UNL1       -0.1832
     18 N         -16.1187   -1.1556   19.7919 N.ar    1  UNL1       -0.2029
     19 O         -14.0295   -8.4081   18.5801 O.3     1  UNL1       -0.4518
     20 C         -15.5211   -8.2806   18.4862 C.ar    1  UNL1        0.1666
     21 C         -16.1772   -8.1195   17.1469 C.ar    1  UNL1        0.1364
     22 N         -17.6688   -7.9920   17.0529 N.ar    1  UNL1       -0.2368
     23 C         -18.5043   -8.0256   18.2983 C.ar    1  UNL1        0.1286
     24 C         -17.8482   -8.1867   19.6375 C.ar    1  UNL1        0.1623
     25 F         -18.6838   -8.2202   20.8828 F       1  UNL1       -0.2024
     26 C         -16.3566   -8.3142   19.7314 C.ar    1  UNL1        0.0703
@<TRIPOS>BOND
     1     1     2    1
     2     2     3   ar
     3     3     4   ar
     4     4    19    1
     5    19    20    1
     6    20    21   ar
     7    21    22   ar
     8    22    23   ar
     9    23    24   ar
    10    24    25    1
    11    24    26   ar
    12     4     5   ar
    13     5     6   ar
    14     6     8    1
    15     8     9    2
    16     8    10   am
    17    10    12    1
    18    12    13   ar
    19    13    14   ar
    20    14    15   ar
    21    15    16   ar
    22    16    17    1
    23    16    18   ar
    24     6     7   ar
    25     7     2   ar
    26    26    20   ar
    27    18    12   ar
    28    10    11    1
@<TRIPOS>MOLECULE
*****
 26 28 0 0 0
SMALL
GASTEIGER

@<TRIPOS>ATOM
      1 C           5.1294   -0.1581   36.1385 C.3     1  UNL1        0.0522
      2 C           5.1250   -0.3571   34.6517 C.ar    1  UNL1        0.0625
      3 C           6.2986   -1.0045   33.9782 C.ar    1  UNL1        0.0522
      4 C           6.2941   -1.2036   32.4915 C.ar    1  UNL1        0.1482
      5 C           5.1162   -0.7552   31.6783 C.ar    1  UNL1        0.0612
      6 C           3.9427   -0.1079   32.3518 C.ar    1  UNL1        0.1374
      7 N           3.9471    0.0912   33.8385 N.ar    1  UNL1       -0.2449
      8 C           2.7646    0.3405   31.5385 C.2     1  UNL1        0.2684
      9 O           1.7448    1.2614   32.1402 O.2     1  UNL1       -0.2681
     10 N           2.6064   -0.1320   30.1238 N.am    1  UNL1       -0.2645
     11 H           3.2758   -0.7364   29.7289 H       1  UNL1        0.1566
     12 C           1.4284    0.3164   29.3105 C.ar    1  UNL1        0.1368
     13 C           1.6204    1.2898   28.1857 C.ar    1  UNL1        0.0346
     14 C           0.4424    1.7382   27.3725 C.ar    1  UNL1        0.0068
     15 C          -0.9276    1.2130   27.6842 C.ar    1  UNL1        0.0498
     16 C          -1.1197    0.2395   28.8091 C.ar    1  UNL1        0.2234
     17 F          -2.4897   -0.2857   29.1208 F       1  UNL1       -0.1832
     18 N           0.0583   -0.2088   29.6222 N.ar    1  UNL1       -0.2029
     19 O           7.4678   -1.8510   31.8180 O.3     1  UNL1       -0.4518
     20 C           7.2796   -3.1184   31.0381 C.ar    1  UNL1        0.1666
     21 C           7.1037   -4.4228   31.7578 C.ar    1  UNL1        0.1364
     22 N           6.9155   -5.6902   30.9779 N.ar    1  UNL1       -0.2368
     23 C           6.9033   -5.6533   29.4784 C.ar    1  UNL1        0.1286
     24 C           7.0793   -4.3490   28.7588 C.ar    1  UNL1        0.1623
     25 F           7.0671   -4.3121   27.2592 F       1  UNL1       -0.2024
     26 C           7.2675   -3.0816   29.5387 C.ar    1  UNL1        0.0703
@<TRIPOS>BOND
     1     1     2    1
     2     2     3   ar
     3     3     4   ar
     4     4    19    1
     5    19    20    1
     6    20    21   ar
     7    21    22   ar
     8    22    23   ar
     9    23    24   ar
    10    24    25    1
    11    24    26   ar
    12     4     5   ar
    13     5     6   ar
    14     6     8    1
    15     8     9    2
    16     8    10   am
    17    10    12    1
    18    12    13   ar
    19    13    14   ar
    20    14    15   ar
    21    15    16   ar
    22    16    17    1
    23    16    18   ar
    24     6     7   ar
    25     7     2   ar
    26    26    20   ar
    27    18    12   ar
    28    10    11    1
@<TRIPOS>MOLECULE
*****
 26 28 0 0 0
SMALL
GASTEIGER

@<TRIPOS>ATOM
      1 C          -3.0624    4.4259   22.1499 C.3     1  UNL1        0.0522
      2 C          -1.8788    3.6451   22.6392 C.ar    1  UNL1        0.0625
      3 C          -1.3706    3.8497   24.0355 C.ar    1  UNL1        0.0522
      4 C          -0.1869    3.0689   24.5248 C.ar    1  UNL1        0.1482
      5 C           0.4885    2.0835   23.6178 C.ar    1  UNL1        0.0612
      6 C          -0.0197    1.8790   22.2214 C.ar    1  UNL1        0.1374
      7 N          -1.2034    2.6597   21.7321 N.ar    1  UNL1       -0.2449
      8 C           0.6557    0.8935   21.3143 C.2     1  UNL1        0.2684
      9 O          -0.1646    0.0224   20.4097 O.2     1  UNL1       -0.2681
     10 N           2.1513    0.7792   21.3118 N.am    1  UNL1       -0.2645
     11 H           2.6896    1.3510   21.9056 H       1  UNL1        0.1566
     12 C           2.8267   -0.2062   20.4047 C.ar    1  UNL1        0.1368
     13 C           3.3879   -1.4793   20.9653 C.ar    1  UNL1        0.0346
     14 C           4.0632   -2.4646   20.0582 C.ar    1  UNL1        0.0068
     15 C           4.1774   -2.1769   18.5904 C.ar    1  UNL1        0.0498
     16 C           3.6163   -0.9038   18.0299 C.ar    1  UNL1        0.2234
     17 F           3.7305   -0.6161   16.5622 F       1  UNL1       -0.1832
     18 N           2.9409    0.0815   18.9370 N.ar    1  UNL1       -0.2029
     19 O           0.3213    3.2736   25.9212 O.3     1  UNL1       -0.4518
     20 C           0.3246    2.1310   26.8931 C.ar    1  UNL1        0.1666
     21 C           1.6028    1.4057   27.1935 C.ar    1  UNL1        0.1364
     22 N           1.6061    0.2631   28.1654 N.ar    1  UNL1       -0.2368
     23 C           0.3312   -0.1541   28.8368 C.ar    1  UNL1        0.1286
     24 C          -0.9468    0.5712   28.5364 C.ar    1  UNL1        0.1623
     25 F          -2.2217    0.1540   29.2078 F       1  UNL1       -0.2024
     26 C          -0.9502    1.7138   27.5645 C.ar    1  UNL1        0.0703
@<TRIPOS>BOND
     1     1     2    1
     2     2     3   ar
     3     3     4   ar
     4     4    19    1
     5    19    20    1
     6    20    21   ar
     7    21    22   ar
     8    22    23   ar
     9    23    24   ar
    10    24    25    1
    11    24    26   ar
    12     4     5   ar
    13     5     6   ar
    14     6     8    1
    15     8     9    2
    16     8    10   am
    17    10    12    1
    18    12    13   ar
    19    13    14   ar
    20    14    15   ar
    21    15    16   ar
    22    16    17    1
    23    16    18   ar
    24     6     7   ar
    25     7     2   ar
    26    26    20   ar
    27    18    12   ar
    28    10    11    1
@<TRIPOS>MOLECULE
*****
 26 28 0 0 0
SMALL
GASTEIGER

@<TRIPOS>ATOM
      1 C           4.2291    0.0201   24.5878 C.3     1  UNL1        0.0522
      2 C           4.6185   -1.2913   23.9725 C.ar    1  UNL1        0.0625
      3 C           4.1070   -1.6628   22.6122 C.ar    1  UNL1        0.0522
      4 C           4.4964   -2.9741   21.9969 C.ar    1  UNL1        0.1482
      5 C           5.3974   -3.9140   22.7417 C.ar    1  UNL1        0.0612
      6 C           5.9090   -3.5424   24.1020 C.ar    1  UNL1        0.1374
      7 N           5.5195   -2.2311   24.7173 N.ar    1  UNL1       -0.2449
      8 C           6.8100   -4.4823   24.8469 C.2     1  UNL1        0.2684
      9 O           8.2009   -4.7410   24.3484 O.2     1  UNL1       -0.2681
     10 N           6.3202   -5.1634   26.0903 N.am    1  UNL1       -0.2645
     11 H           5.4073   -4.9937   26.4175 H       1  UNL1        0.1566
     12 C           7.2212   -6.1033   26.8352 C.ar    1  UNL1        0.1368
     13 C           7.4169   -7.5055   26.3397 C.ar    1  UNL1        0.0346
     14 C           8.3179   -8.4452   27.0847 C.ar    1  UNL1        0.0068
     15 C           9.0233   -7.9828   28.3251 C.ar    1  UNL1        0.0498
     16 C           8.8276   -6.5806   28.8205 C.ar    1  UNL1        0.2234
     17 F           9.5330   -6.1182   30.0609 F       1  UNL1       -0.1832
     18 N           7.9266   -5.6409   28.0756 N.ar    1  UNL1       -0.2029
     19 O           3.9848   -3.3456   20.6366 O.3     1  UNL1       -0.4518
     20 C           4.1728   -2.4063   19.4823 C.ar    1  UNL1        0.1666
     21 C           5.3507   -2.5683   18.5678 C.ar    1  UNL1        0.1364
     22 N           5.5388   -1.6290   17.4135 N.ar    1  UNL1       -0.2368
     23 C           4.5489   -0.5277   17.1738 C.ar    1  UNL1        0.1286
     24 C           3.3710   -0.3658   18.0883 C.ar    1  UNL1        0.1623
     25 F           2.3812    0.7355   17.8486 F       1  UNL1       -0.2024
     26 C           3.1830   -1.3051   19.2426 C.ar    1  UNL1        0.0703
@<TRIPOS>BOND
     1     1     2    1
     2     2     3   ar
     3     3     4   ar
     4     4    19    1
     5    19    20    1
     6    20    21   ar
     7    21    22   ar
     8    22    23   ar
     9    23    24   ar
    10    24    25    1
    11    24    26   ar
    12     4     5   ar
    13     5     6   ar
    14     6     8    1
    15     8     9    2
    16     8    10   am
    17    10    12    1
    18    12    13   ar
    19    13    14   ar
    20    14    15   ar
    21    15    16   ar
    22    16    17    1
    23    16    18   ar
    24     6     7   ar
    25     7     2   ar
    26    26    20   ar
    27    18    12   ar
    28    10    11    1
