@<TRIPOS>MOLECULE
*****
 21 23 0 0 0
SMALL
GASTEIGER

@<TRIPOS>ATOM
      1 C          -9.6866  -18.4148   21.2507 C.3     1  UNL1        0.0323
      2 C          -8.2124  -18.5886   21.0354 C.3     1  UNL1        0.0053
      3 C          -7.7146  -19.4300   19.8978 C.3     1  UNL1        0.0004
      4 C          -8.6911  -20.0976   18.9754 C.3     1  UNL1        0.0000
      5 C         -10.1654  -19.9238   19.1907 C.3     1  UNL1        0.0004
      6 C         -10.6632  -19.0824   20.3284 C.3     1  UNL1        0.0053
      7 C          -9.1585  -17.5870   22.3846 C.ar    1  UNL1       -0.0215
      8 C          -8.3678  -16.3442   22.1012 C.ar    1  UNL1       -0.0042
      9 C          -7.8396  -15.5164   23.2351 C.ar    1  UNL1       -0.0003
     10 C          -8.1022  -15.9313   24.6525 C.ar    1  UNL1       -0.0000
     11 C          -7.5741  -15.1035   25.7864 C.ar    1  UNL1       -0.0000
     12 C          -7.8366  -15.5185   27.2037 C.ar    1  UNL1       -0.0000
     13 C          -8.6273  -16.7612   27.4872 C.ar    1  UNL1       -0.0000
     14 C          -9.1555  -17.5890   26.3532 C.ar    1  UNL1       -0.0000
     15 C          -8.8929  -17.1741   24.9359 C.ar    1  UNL1       -0.0003
     16 C          -9.4210  -18.0019   23.8020 C.ar    1  UNL1       -0.0042
     17 C         -11.7153  -18.8426   22.8164 C.3     1  UNL1        0.0177
     18 C         -10.9775  -17.9535   21.8598 C.3     1  UNL1        0.0613
     19 N         -11.5305  -16.6032   21.5122 N.3     1  UNL1       -0.2713
     20 C         -11.3351  -16.0448   20.1338 C.3     1  UNL1        0.0896
     21 C         -12.2789  -15.8113   22.5431 C.3     1  UNL1        0.0896
@<TRIPOS>BOND
     1    17    18    1
     2    18    19    1
     3    19    20    1
     4    19    21    1
     5    18     1    1
     6     1     7    1
     7     7     8   ar
     8     8     9   ar
     9     9    10   ar
    10    10    11   ar
    11    11    12   ar
    12    12    13   ar
    13    13    14   ar
    14    14    15   ar
    15    15    16   ar
    16     1     2    1
    17     2     3    1
    18     3     4    1
    19     4     5    1
    20     5     6    1
    21     6     1    1
    22    16     7   ar
    23    15    10   ar
@<TRIPOS>MOLECULE
*****
 21 23 0 0 0
SMALL
GASTEIGER

@<TRIPOS>ATOM
      1 C          -9.4453  -18.4401   22.6713 C.3     1  UNL1        0.0323
      2 C          -9.1007  -19.7600   23.2950 C.3     1  UNL1        0.0053
      3 C         -10.0093  -20.3628   24.3251 C.3     1  UNL1        0.0004
      4 C         -11.2626  -19.6456   24.7314 C.3     1  UNL1        0.0000
      5 C         -11.6071  -18.3257   24.1076 C.3     1  UNL1        0.0004
      6 C         -10.6985  -17.7229   23.0776 C.3     1  UNL1        0.0053
      7 C          -8.1563  -18.7343   21.9628 C.ar    1  UNL1       -0.0215
      8 C          -8.1734  -19.2011   20.5375 C.ar    1  UNL1       -0.0042
      9 C          -6.8844  -19.4953   19.8290 C.ar    1  UNL1       -0.0003
     10 C          -5.5782  -19.3227   20.5460 C.ar    1  UNL1       -0.0000
     11 C          -4.2892  -19.6169   19.8376 C.ar    1  UNL1       -0.0000
     12 C          -2.9830  -19.4443   20.5546 C.ar    1  UNL1       -0.0000
     13 C          -2.9658  -18.9775   21.9800 C.ar    1  UNL1       -0.0000
     14 C          -4.2549  -18.6833   22.6885 C.ar    1  UNL1       -0.0000
     15 C          -5.5611  -18.8559   21.9715 C.ar    1  UNL1       -0.0003
     16 C          -6.8501  -18.5617   22.6798 C.ar    1  UNL1       -0.0042
     17 C          -8.2478  -16.2237   22.0359 C.3     1  UNL1        0.0177
     18 C          -9.3423  -17.2223   21.8015 C.3     1  UNL1        0.0613
     19 N         -10.3336  -17.0032   20.6974 N.3     1  UNL1       -0.2713
     20 C         -10.7352  -15.6092   20.3157 C.3     1  UNL1        0.0896
     21 C         -10.9234  -18.1780   19.9749 C.3     1  UNL1        0.0896
@<TRIPOS>BOND
     1    17    18    1
     2    18    19    1
     3    19    20    1
     4    19    21    1
     5    18     1    1
     6     1     7    1
     7     7     8   ar
     8     8     9   ar
     9     9    10   ar
    10    10    11   ar
    11    11    12   ar
    12    12    13   ar
    13    13    14   ar
    14    14    15   ar
    15    15    16   ar
    16     1     2    1
    17     2     3    1
    18     3     4    1
    19     4     5    1
    20     5     6    1
    21     6     1    1
    22    16     7   ar
    23    15    10   ar
@<TRIPOS>MOLECULE
*****
 21 23 0 0 0
SMALL
GASTEIGER

@<TRIPOS>ATOM
      1 C          -8.2170  -17.5163   23.1175 C.3     1  UNL1        0.0323
      2 C          -7.1107  -16.5205   23.3026 C.3     1  UNL1        0.0053
      3 C          -7.3152  -15.3284   24.1897 C.3     1  UNL1        0.0004
      4 C          -8.6262  -15.1321   24.8918 C.3     1  UNL1        0.0000
      5 C          -9.7325  -16.1280   24.7067 C.3     1  UNL1        0.0004
      6 C          -9.5280  -17.3201   23.8195 C.3     1  UNL1        0.0053
      7 C          -7.1632  -18.1328   22.2460 C.ar    1  UNL1       -0.0215
      8 C          -7.5076  -18.5835   20.8574 C.ar    1  UNL1       -0.0042
      9 C          -6.4538  -19.2000   19.9859 C.ar    1  UNL1       -0.0003
     10 C          -5.0556  -19.3659   20.5031 C.ar    1  UNL1       -0.0000
     11 C          -4.0018  -19.9824   19.6317 C.ar    1  UNL1       -0.0000
     12 C          -2.6036  -20.1482   20.1489 C.ar    1  UNL1       -0.0000
     13 C          -2.2592  -19.6976   21.5375 C.ar    1  UNL1       -0.0000
     14 C          -3.3130  -19.0811   22.4090 C.ar    1  UNL1       -0.0000
     15 C          -4.7112  -18.9152   21.8918 C.ar    1  UNL1       -0.0003
     16 C          -5.7650  -18.2987   22.7632 C.ar    1  UNL1       -0.0042
     17 C          -8.5410  -20.0939   23.0838 C.3     1  UNL1        0.0177
     18 C          -8.9575  -18.7263   22.6298 C.3     1  UNL1        0.0613
     19 N         -10.1142  -18.5686   21.6881 N.3     1  UNL1       -0.2713
     20 C         -10.4467  -17.2173   21.1280 C.3     1  UNL1        0.0896
     21 C         -10.9387  -19.7621   21.3063 C.3     1  UNL1        0.0896
@<TRIPOS>BOND
     1    17    18    1
     2    18    19    1
     3    19    20    1
     4    19    21    1
     5    18     1    1
     6     1     7    1
     7     7     8   ar
     8     8     9   ar
     9     9    10   ar
    10    10    11   ar
    11    11    12   ar
    12    12    13   ar
    13    13    14   ar
    14    14    15   ar
    15    15    16   ar
    16     1     2    1
    17     2     3    1
    18     3     4    1
    19     4     5    1
    20     5     6    1
    21     6     1    1
    22    16     7   ar
    23    15    10   ar
@<TRIPOS>MOLECULE
*****
 21 23 0 0 0
SMALL
GASTEIGER

@<TRIPOS>ATOM
      1 C         -12.5503   -6.0105   18.5682 C.3     1  UNL1        0.0323
      2 C         -12.0147   -7.2891   17.9952 C.3     1  UNL1        0.0053
      3 C         -10.5337   -7.5128   17.9154 C.3     1  UNL1        0.0004
      4 C          -9.5882   -6.4578   18.4087 C.3     1  UNL1        0.0000
      5 C         -10.1239   -5.1793   18.9818 C.3     1  UNL1        0.0004
      6 C         -11.6050   -4.9556   19.0615 C.3     1  UNL1        0.0053
      7 C         -13.8371   -6.7052   18.2336 C.ar    1  UNL1       -0.0215
      8 C         -14.2375   -6.8925   16.8003 C.ar    1  UNL1       -0.0042
      9 C         -15.5242   -7.5871   16.4656 C.ar    1  UNL1       -0.0003
     10 C         -16.4104   -8.0944   17.5644 C.ar    1  UNL1       -0.0000
     11 C         -17.6971   -8.7890   17.2298 C.ar    1  UNL1       -0.0000
     12 C         -18.5833   -9.2963   18.3286 C.ar    1  UNL1       -0.0000
     13 C         -18.1829   -9.1090   19.7620 C.ar    1  UNL1       -0.0000
     14 C         -16.8961   -8.4144   20.0966 C.ar    1  UNL1       -0.0000
     15 C         -16.0099   -7.9071   18.9978 C.ar    1  UNL1       -0.0003
     16 C         -14.7233   -7.2125   19.3324 C.ar    1  UNL1       -0.0042
     17 C         -13.8680   -4.8477   20.4817 C.3     1  UNL1        0.0177
     18 C         -13.5328   -4.9732   19.0251 C.3     1  UNL1        0.0613
     19 N         -14.1801   -4.0614   18.0253 N.3     1  UNL1       -0.2713
     20 C         -13.3602   -3.4465   16.9300 C.3     1  UNL1        0.0896
     21 C         -15.6473   -3.7645   18.1207 C.3     1  UNL1        0.0896
@<TRIPOS>BOND
     1    17    18    1
     2    18    19    1
     3    19    20    1
     4    19    21    1
     5    18     1    1
     6     1     7    1
     7     7     8   ar
     8     8     9   ar
     9     9    10   ar
    10    10    11   ar
    11    11    12   ar
    12    12    13   ar
    13    13    14   ar
    14    14    15   ar
    15    15    16   ar
    16     1     2    1
    17     2     3    1
    18     3     4    1
    19     4     5    1
    20     5     6    1
    21     6     1    1
    22    16     7   ar
    23    15    10   ar
@<TRIPOS>MOLECULE
*****
 21 23 0 0 0
SMALL
GASTEIGER

@<TRIPOS>ATOM
      1 C         -12.6654   -1.9484   18.0973 C.3     1  UNL1        0.0323
      2 C         -11.5121   -1.7633   17.1563 C.3     1  UNL1        0.0053
      3 C         -11.0924   -0.3827   16.7467 C.3     1  UNL1        0.0004
      4 C         -11.8260    0.8128   17.2783 C.3     1  UNL1        0.0000
      5 C         -12.9793    0.6277   18.2193 C.3     1  UNL1        0.0004
      6 C         -13.3990   -0.7529   18.6289 C.3     1  UNL1        0.0053
      7 C         -12.2867   -3.3811   17.8646 C.ar    1  UNL1       -0.0215
      8 C         -13.0435   -4.2040   16.8646 C.ar    1  UNL1       -0.0042
      9 C         -12.6648   -5.6366   16.6319 C.ar    1  UNL1       -0.0003
     10 C         -11.5292   -6.2463   17.3991 C.ar    1  UNL1       -0.0000
     11 C         -11.1505   -7.6789   17.1665 C.ar    1  UNL1       -0.0000
     12 C         -10.0149   -8.2886   17.9337 C.ar    1  UNL1       -0.0000
     13 C          -9.2580   -7.4657   18.9337 C.ar    1  UNL1       -0.0000
     14 C          -9.6368   -6.0330   19.1664 C.ar    1  UNL1       -0.0000
     15 C         -10.7724   -5.4233   18.3992 C.ar    1  UNL1       -0.0003
     16 C         -11.1511   -3.9908   18.6319 C.ar    1  UNL1       -0.0042
     17 C         -13.3169   -3.0993   20.3336 C.3     1  UNL1        0.0177
     18 C         -13.6872   -2.6310   18.9576 C.3     1  UNL1        0.0613
     19 N         -15.0793   -2.8453   18.4418 N.3     1  UNL1       -0.2713
     20 C         -15.5804   -2.0411   17.2789 C.3     1  UNL1        0.0896
     21 C         -15.9704   -3.8638   19.0888 C.3     1  UNL1        0.0896
@<TRIPOS>BOND
     1    17    18    1
     2    18    19    1
     3    19    20    1
     4    19    21    1
     5    18     1    1
     6     1     7    1
     7     7     8   ar
     8     8     9   ar
     9     9    10   ar
    10    10    11   ar
    11    11    12   ar
    12    12    13   ar
    13    13    14   ar
    14    14    15   ar
    15    15    16   ar
    16     1     2    1
    17     2     3    1
    18     3     4    1
    19     4     5    1
    20     5     6    1
    21     6     1    1
    22    16     7   ar
    23    15    10   ar
@<TRIPOS>MOLECULE
*****
 21 23 0 0 0
SMALL
GASTEIGER

@<TRIPOS>ATOM
      1 C         -12.0242   -6.1484   18.1596 C.3     1  UNL1        0.0323
      2 C         -11.0500   -5.5660   19.1403 C.3     1  UNL1        0.0053
      3 C          -9.7164   -6.2196   19.3508 C.3     1  UNL1        0.0004
      4 C          -9.3570   -7.4556   18.5806 C.3     1  UNL1        0.0000
      5 C         -10.3313   -8.0380   17.6000 C.3     1  UNL1        0.0004
      6 C         -11.6649   -7.3844   17.3895 C.3     1  UNL1        0.0053
      7 C         -12.8176   -4.9728   18.6482 C.ar    1  UNL1       -0.0215
      8 C         -13.5320   -5.0453   19.9651 C.ar    1  UNL1       -0.0042
      9 C         -14.3255   -3.8697   20.4536 C.ar    1  UNL1       -0.0003
     10 C         -14.4045   -2.6218   19.6251 C.ar    1  UNL1       -0.0000
     11 C         -15.1979   -1.4462   20.1135 C.ar    1  UNL1       -0.0000
     12 C         -15.2768   -0.1983   19.2851 C.ar    1  UNL1       -0.0000
     13 C         -14.5624   -0.1258   17.9681 C.ar    1  UNL1       -0.0000
     14 C         -13.7690   -1.3014   17.4796 C.ar    1  UNL1       -0.0000
     15 C         -13.6900   -2.5494   18.3081 C.ar    1  UNL1       -0.0003
     16 C         -12.8966   -3.7249   17.8197 C.ar    1  UNL1       -0.0042
     17 C         -13.3723   -5.7121   15.9820 C.3     1  UNL1        0.0177
     18 C         -13.2740   -6.3226   17.3486 C.3     1  UNL1        0.0613
     19 N         -14.4254   -7.1071   17.9042 N.3     1  UNL1       -0.2713
     20 C         -14.1762   -8.4073   18.6095 C.3     1  UNL1        0.0896
     21 C         -15.8260   -6.5915   17.7546 C.3     1  UNL1        0.0896
@<TRIPOS>BOND
     1    17    18    1
     2    18    19    1
     3    19    20    1
     4    19    21    1
     5    18     1    1
     6     1     7    1
     7     7     8   ar
     8     8     9   ar
     9     9    10   ar
    10    10    11   ar
    11    11    12   ar
    12    12    13   ar
    13    13    14   ar
    14    14    15   ar
    15    15    16   ar
    16     1     2    1
    17     2     3    1
    18     3     4    1
    19     4     5    1
    20     5     6    1
    21     6     1    1
    22    16     7   ar
    23    15    10   ar
@<TRIPOS>MOLECULE
*****
 21 23 0 0 0
SMALL
GASTEIGER

@<TRIPOS>ATOM
      1 C         -15.9864   -6.7456   18.9352 C.3     1  UNL1        0.0323
      2 C         -15.4543   -8.1437   18.8248 C.3     1  UNL1        0.0053
      3 C         -16.2795   -9.3003   19.3056 C.3     1  UNL1        0.0004
      4 C         -17.6367   -9.0589   19.8969 C.3     1  UNL1        0.0000
      5 C         -18.1687   -7.6607   20.0073 C.3     1  UNL1        0.0004
      6 C         -17.3436   -6.5041   19.5265 C.3     1  UNL1        0.0053
      7 C         -14.6531   -6.4680   18.3064 C.ar    1  UNL1       -0.0215
      8 C         -14.4023   -6.8536   16.8787 C.ar    1  UNL1       -0.0042
      9 C         -13.0690   -6.5760   16.2500 C.ar    1  UNL1       -0.0003
     10 C         -11.9865   -5.9127   17.0489 C.ar    1  UNL1       -0.0000
     11 C         -10.6533   -5.6351   16.4202 C.ar    1  UNL1       -0.0000
     12 C          -9.5708   -4.9718   17.2192 C.ar    1  UNL1       -0.0000
     13 C          -9.8216   -4.5862   18.6469 C.ar    1  UNL1       -0.0000
     14 C         -11.1549   -4.8638   19.2757 C.ar    1  UNL1       -0.0000
     15 C         -12.2374   -5.5271   18.4767 C.ar    1  UNL1       -0.0003
     16 C         -13.5706   -5.8047   19.1054 C.ar    1  UNL1       -0.0042
     17 C         -15.7942   -4.3991   20.0339 C.3     1  UNL1        0.0177
     18 C         -16.0554   -5.2510   18.8273 C.3     1  UNL1        0.0613
     19 N         -16.3856   -4.6085   17.5128 N.3     1  UNL1       -0.2713
     20 C         -17.4863   -5.1670   16.6604 C.3     1  UNL1        0.0896
     21 C         -15.6151   -3.4074   17.0506 C.3     1  UNL1        0.0896
@<TRIPOS>BOND
     1    17    18    1
     2    18    19    1
     3    19    20    1
     4    19    21    1
     5    18     1    1
     6     1     7    1
     7     7     8   ar
     8     8     9   ar
     9     9    10   ar
    10    10    11   ar
    11    11    12   ar
    12    12    13   ar
    13    13    14   ar
    14    14    15   ar
    15    15    16   ar
    16     1     2    1
    17     2     3    1
    18     3     4    1
    19     4     5    1
    20     5     6    1
    21     6     1    1
    22    16     7   ar
    23    15    10   ar
@<TRIPOS>MOLECULE
*****
 21 23 0 0 0
SMALL
GASTEIGER

@<TRIPOS>ATOM
      1 C          -8.8941  -16.7466   23.4189 C.3     1  UNL1        0.0323
      2 C          -7.4767  -16.7565   22.9282 C.3     1  UNL1        0.0053
      3 C          -6.4178  -16.0052   23.6792 C.3     1  UNL1        0.0004
      4 C          -6.7762  -15.2440   24.9211 C.3     1  UNL1        0.0000
      5 C          -8.1937  -15.2342   25.4117 C.3     1  UNL1        0.0004
      6 C          -9.2527  -15.9855   24.6607 C.3     1  UNL1        0.0053
      7 C          -9.0463  -17.6084   22.2005 C.ar    1  UNL1       -0.0215
      8 C         -10.2609  -17.4704   21.3313 C.ar    1  UNL1       -0.0042
      9 C         -10.4131  -18.3321   20.1129 C.ar    1  UNL1       -0.0003
     10 C          -9.3507  -19.3318   19.7639 C.ar    1  UNL1       -0.0000
     11 C          -9.5028  -20.1935   18.5456 C.ar    1  UNL1       -0.0000
     12 C          -8.4403  -21.1932   18.1965 C.ar    1  UNL1       -0.0000
     13 C          -7.2257  -21.3311   19.0658 C.ar    1  UNL1       -0.0000
     14 C          -7.0735  -20.4694   20.2841 C.ar    1  UNL1       -0.0000
     15 C          -8.1360  -19.4697   20.6332 C.ar    1  UNL1       -0.0003
     16 C          -7.9839  -18.6080   21.8515 C.ar    1  UNL1       -0.0042
     17 C         -11.3450  -16.0871   22.8635 C.3     1  UNL1        0.0177
     18 C         -10.3644  -17.0360   23.4865 C.3     1  UNL1        0.0613
     19 N         -10.8541  -18.2742   24.1771 N.3     1  UNL1       -0.2713
     20 C         -12.3083  -18.6383   24.1223 C.3     1  UNL1        0.0896
     21 C          -9.8898  -19.1484   24.9225 C.3     1  UNL1        0.0896
@<TRIPOS>BOND
     1    17    18    1
     2    18    19    1
     3    19    20    1
     4    19    21    1
     5    18     1    1
     6     1     7    1
     7     7     8   ar
     8     8     9   ar
     9     9    10   ar
    10    10    11   ar
    11    11    12   ar
    12    12    13   ar
    13    13    14   ar
    14    14    15   ar
    15    15    16   ar
    16     1     2    1
    17     2     3    1
    18     3     4    1
    19     4     5    1
    20     5     6    1
    21     6     1    1
    22    16     7   ar
    23    15    10   ar
@<TRIPOS>MOLECULE
*****
 21 23 0 0 0
SMALL
GASTEIGER

@<TRIPOS>ATOM
      1 C         -12.1981   -5.7568   17.9949 C.3     1  UNL1        0.0323
      2 C         -11.6068   -6.8984   18.7675 C.3     1  UNL1        0.0053
      3 C         -10.1174   -7.0485   18.8619 C.3     1  UNL1        0.0004
      4 C          -9.2192   -6.0569   18.1836 C.3     1  UNL1        0.0000
      5 C          -9.8106   -4.9153   17.4109 C.3     1  UNL1        0.0004
      6 C         -11.3001   -4.7652   17.3165 C.3     1  UNL1        0.0053
      7 C         -13.4531   -6.4335   18.4610 C.ar    1  UNL1       -0.0215
      8 C         -14.3819   -5.7253   19.4021 C.ar    1  UNL1       -0.0042
      9 C         -15.6368   -6.4020   19.8683 C.ar    1  UNL1       -0.0003
     10 C         -15.9629   -7.7870   19.3933 C.ar    1  UNL1       -0.0000
     11 C         -17.2177   -8.4637   19.8595 C.ar    1  UNL1       -0.0000
     12 C         -17.5438   -9.8487   19.3845 C.ar    1  UNL1       -0.0000
     13 C         -16.6150  -10.5569   18.4434 C.ar    1  UNL1       -0.0000
     14 C         -15.3601   -9.8802   17.9772 C.ar    1  UNL1       -0.0000
     15 C         -15.0340   -8.4952   18.4522 C.ar    1  UNL1       -0.0003
     16 C         -13.7791   -7.8185   17.9861 C.ar    1  UNL1       -0.0042
     17 C         -14.0305   -5.3147   16.2068 C.3     1  UNL1        0.0177
     18 C         -13.2253   -4.8502   17.3840 C.3     1  UNL1        0.0613
     19 N         -13.4473   -3.4792   17.9505 N.3     1  UNL1       -0.2713
     20 C         -12.6441   -3.0157   19.1296 C.3     1  UNL1        0.0896
     21 C         -14.4724   -2.5715   17.3379 C.3     1  UNL1        0.0896
@<TRIPOS>BOND
     1    17    18    1
     2    18    19    1
     3    19    20    1
     4    19    21    1
     5    18     1    1
     6     1     7    1
     7     7     8   ar
     8     8     9   ar
     9     9    10   ar
    10    10    11   ar
    11    11    12   ar
    12    12    13   ar
    13    13    14   ar
    14    14    15   ar
    15    15    16   ar
    16     1     2    1
    17     2     3    1
    18     3     4    1
    19     4     5    1
    20     5     6    1
    21     6     1    1
    22    16     7   ar
    23    15    10   ar
