@<TRIPOS>MOLECULE
*****
 19 20 0 0 0
SMALL
GASTEIGER

@<TRIPOS>ATOM
      1 C          -9.3426  -17.3120   21.5480 C.2     1  UNL1        0.1535
      2 N          -8.0873  -16.4964   21.6441 N.2     1  UNL1       -0.2470
      3 C          -7.8751  -16.1404   23.0857 C.3     1  UNL1        0.1720
      4 C          -6.8035  -15.3508   23.7772 C.3     1  UNL1        0.1653
      5 O          -5.6794  -14.7553   22.9824 O.3     1  UNL1       -0.3798
      6 C          -6.8560  -15.1568   25.2638 C.3     1  UNL1        0.1691
      7 O          -5.7844  -14.3672   25.9553 O.3     1  UNL1       -0.3794
      8 C          -7.9801  -15.7523   26.0586 C.3     1  UNL1        0.1807
      9 O          -9.0517  -16.5418   25.3670 O.3     1  UNL1       -0.3399
     10 C          -8.9992  -16.7359   23.8805 C.3     1  UNL1        0.1938
     11 S          -9.9061  -17.4600   22.9302 S.3     1  UNL1       -0.0497
     12 H          -5.0784  -14.2808   23.5777 H       1  UNL1        0.2105
     13 H          -5.1393  -14.0557   25.3014 H       1  UNL1        0.2105
     14 N          -9.9310  -17.8799   20.2905 N.pl3   1  UNL1       -0.3135
     15 H          -9.4193  -18.5310   19.7579 H       1  UNL1        0.1487
     16 C         -11.6026  -16.0016   19.6367 C.3     1  UNL1        0.0230
     17 C         -11.2988  -17.4557   19.8443 C.3     1  UNL1        0.0887
     18 C          -8.0326  -15.5582   27.5451 C.3     1  UNL1        0.2251
     19 F          -8.8336  -14.4312   28.1265 F       1  UNL1       -0.2315
@<TRIPOS>BOND
     1    16    17    1
     2    17    14    1
     3    14     1    1
     4     1     2    2
     5     3     2    1
     6     3     4    1
     7     4     5    1
     8     4     6    1
     9     6     7    1
    10     6     8    1
    11     8    18    1
    12    18    19    1
    13     8     9    1
    14    10     9    1
    15    10    11    1
    16    11     1    1
    17    10     3    1
    18    14    15    1
    19     5    12    1
    20     7    13    1
@<TRIPOS>MOLECULE
*****
 19 20 0 0 0
SMALL
GASTEIGER

@<TRIPOS>ATOM
      1 C          -7.3311  -15.5591   23.0778 C.2     1  UNL1        0.1535
      2 N          -8.0795  -15.3354   21.7973 N.2     1  UNL1       -0.2470
      3 C          -9.4479  -15.9305   21.9501 C.3     1  UNL1        0.1720
      4 C         -10.6179  -16.0102   21.0148 C.3     1  UNL1        0.1653
      5 O         -10.5206  -15.4187   19.6398 O.3     1  UNL1       -0.3798
      6 C         -11.8853  -16.6815   21.4546 C.3     1  UNL1        0.1691
      7 O         -13.0552  -16.7612   20.5193 O.3     1  UNL1       -0.3794
      8 C         -11.9826  -17.2730   22.8296 C.3     1  UNL1        0.1807
      9 O         -10.8125  -17.1933   23.7648 O.3     1  UNL1       -0.3399
     10 C          -9.5452  -16.5220   23.3251 C.3     1  UNL1        0.1938
     11 S          -8.2370  -16.2924   24.0221 S.3     1  UNL1       -0.0497
     12 H         -11.3576  -15.5556   19.1690 H       1  UNL1        0.2105
     13 H         -12.8271  -16.3339   19.6789 H       1  UNL1        0.2105
     14 N          -5.9239  -15.1255   23.3639 N.pl3   1  UNL1       -0.3135
     15 H          -5.4930  -14.4464   22.7961 H       1  UNL1        0.1487
     16 C          -5.3445  -15.1669   25.8962 C.3     1  UNL1        0.0230
     17 C          -5.1733  -15.7265   24.5151 C.3     1  UNL1        0.0887
     18 C         -13.2498  -17.9442   23.2693 C.3     1  UNL1        0.2251
     19 F         -13.4476  -18.3013   24.7127 F       1  UNL1       -0.2315
@<TRIPOS>BOND
     1    16    17    1
     2    17    14    1
     3    14     1    1
     4     1     2    2
     5     3     2    1
     6     3     4    1
     7     4     5    1
     8     4     6    1
     9     6     7    1
    10     6     8    1
    11     8    18    1
    12    18    19    1
    13     8     9    1
    14    10     9    1
    15    10    11    1
    16    11     1    1
    17    10     3    1
    18    14    15    1
    19     5    12    1
    20     7    13    1
@<TRIPOS>MOLECULE
*****
 19 20 0 0 0
SMALL
GASTEIGER

@<TRIPOS>ATOM
      1 C          -6.6588  -19.0604   21.5929 C.2     1  UNL1        0.1535
      2 N          -7.1741  -17.6776   21.3239 N.2     1  UNL1       -0.2470
      3 C          -8.5569  -17.5786   21.8966 C.3     1  UNL1        0.1720
      4 C          -9.5509  -16.4557   21.9313 C.3     1  UNL1        0.1653
      5 O          -9.2114  -15.1341   21.3085 O.3     1  UNL1       -0.3798
      6 C         -10.8843  -16.6545   22.5890 C.3     1  UNL1        0.1691
      7 O         -11.8783  -15.5317   22.6237 O.3     1  UNL1       -0.3794
      8 C         -11.2238  -17.9762   23.2118 C.3     1  UNL1        0.1807
      9 O         -10.2298  -19.0991   23.1771 O.3     1  UNL1       -0.3399
     10 C          -8.8964  -18.9002   22.5195 C.3     1  UNL1        0.1938
     11 S          -7.7233  -19.8160   22.3317 S.3     1  UNL1       -0.0497
     12 H          -9.9575  -14.5239   21.4179 H       1  UNL1        0.2105
     13 H         -11.5037  -14.7545   22.1805 H       1  UNL1        0.2105
     14 N          -5.3151  -19.5939   21.1931 N.pl3   1  UNL1       -0.3135
     15 H          -5.2351  -20.1956   20.4180 H       1  UNL1        0.1487
     16 C          -2.7452  -19.7167   21.5543 C.3     1  UNL1        0.0230
     17 C          -4.0933  -19.2105   21.9743 C.3     1  UNL1        0.0887
     18 C         -12.5572  -18.1751   23.8694 C.3     1  UNL1        0.2251
     19 F         -13.8174  -18.0289   23.0691 F       1  UNL1       -0.2315
@<TRIPOS>BOND
     1    16    17    1
     2    17    14    1
     3    14     1    1
     4     1     2    2
     5     3     2    1
     6     3     4    1
     7     4     5    1
     8     4     6    1
     9     6     7    1
    10     6     8    1
    11     8    18    1
    12    18    19    1
    13     8     9    1
    14    10     9    1
    15    10    11    1
    16    11     1    1
    17    10     3    1
    18    14    15    1
    19     5    12    1
    20     7    13    1
@<TRIPOS>MOLECULE
*****
 19 20 0 0 0
SMALL
GASTEIGER

@<TRIPOS>ATOM
      1 C          -9.9617  -17.5762   21.5590 C.2     1  UNL1        0.1535
      2 N          -9.6501  -16.3445   22.3563 N.2     1  UNL1       -0.2470
      3 C          -8.2086  -16.4097   22.7658 C.3     1  UNL1        0.1720
      4 C          -7.3487  -15.4751   23.5639 C.3     1  UNL1        0.1653
      5 O          -7.9281  -14.2030   24.1082 O.3     1  UNL1       -0.3798
      6 C          -5.9093  -15.8125   23.8179 C.3     1  UNL1        0.1691
      7 O          -5.0494  -14.8779   24.6160 O.3     1  UNL1       -0.3794
      8 C          -5.3299  -17.0846   23.2736 C.3     1  UNL1        0.1807
      9 O          -6.1899  -18.0192   22.4755 O.3     1  UNL1       -0.3399
     10 C          -7.6292  -17.6817   22.2216 C.3     1  UNL1        0.1938
     11 S          -8.7127  -18.4027   21.4757 S.3     1  UNL1       -0.0497
     12 H          -7.2436  -13.7186   24.5958 H       1  UNL1        0.2105
     13 H          -5.5746  -14.1099   24.8902 H       1  UNL1        0.2105
     14 N         -11.2892  -17.9210   20.9516 N.pl3   1  UNL1       -0.3135
     15 H         -11.3310  -18.4975   20.1547 H       1  UNL1        0.1487
     16 C         -12.9472  -17.7927   22.9477 C.3     1  UNL1        0.0230
     17 C         -12.5529  -17.3874   21.5584 C.3     1  UNL1        0.0887
     18 C          -3.8906  -17.4220   23.5275 C.3     1  UNL1        0.2251
     19 F          -2.8140  -16.7889   22.6969 F       1  UNL1       -0.2315
@<TRIPOS>BOND
     1    16    17    1
     2    17    14    1
     3    14     1    1
     4     1     2    2
     5     3     2    1
     6     3     4    1
     7     4     5    1
     8     4     6    1
     9     6     7    1
    10     6     8    1
    11     8    18    1
    12    18    19    1
    13     8     9    1
    14    10     9    1
    15    10    11    1
    16    11     1    1
    17    10     3    1
    18    14    15    1
    19     5    12    1
    20     7    13    1
@<TRIPOS>MOLECULE
*****
 19 20 0 0 0
SMALL
GASTEIGER

@<TRIPOS>ATOM
      1 C          -9.7989  -16.5441   22.1022 C.2     1  UNL1        0.1535
      2 N          -9.5952  -17.6259   21.0833 N.2     1  UNL1       -0.2470
      3 C          -8.2078  -18.1695   21.2553 C.3     1  UNL1        0.1720
      4 C          -7.4554  -19.2473   20.5328 C.3     1  UNL1        0.1653
      5 O          -8.1092  -19.9932   19.4075 O.3     1  UNL1       -0.3798
      6 C          -6.0490  -19.5792   20.9355 C.3     1  UNL1        0.1691
      7 O          -5.2966  -20.6570   20.2129 O.3     1  UNL1       -0.3794
      8 C          -5.3952  -18.8333   22.0607 C.3     1  UNL1        0.1807
      9 O          -6.1478  -17.7555   22.7833 O.3     1  UNL1       -0.3399
     10 C          -7.5540  -17.4236   22.3806 C.3     1  UNL1        0.1938
     11 S          -8.5374  -16.4191   22.9039 S.3     1  UNL1       -0.0497
     12 H          -7.4902  -20.6502   19.0524 H       1  UNL1        0.2105
     13 H          -5.8595  -21.0350   19.5193 H       1  UNL1        0.2105
     14 N         -11.0453  -15.7302   22.2868 N.pl3   1  UNL1       -0.3135
     15 H         -10.9799  -14.7722   22.5043 H       1  UNL1        0.1487
     16 C         -12.7742  -17.5218   23.0291 C.3     1  UNL1        0.0230
     17 C         -12.3913  -16.3758   22.1402 C.3     1  UNL1        0.0887
     18 C          -3.9889  -19.1652   22.4634 C.3     1  UNL1        0.2251
     19 F          -3.2078  -18.2102   23.3165 F       1  UNL1       -0.2315
@<TRIPOS>BOND
     1    16    17    1
     2    17    14    1
     3    14     1    1
     4     1     2    2
     5     3     2    1
     6     3     4    1
     7     4     5    1
     8     4     6    1
     9     6     7    1
    10     6     8    1
    11     8    18    1
    12    18    19    1
    13     8     9    1
    14    10     9    1
    15    10    11    1
    16    11     1    1
    17    10     3    1
    18    14    15    1
    19     5    12    1
    20     7    13    1
@<TRIPOS>MOLECULE
*****
 19 20 0 0 0
SMALL
GASTEIGER

@<TRIPOS>ATOM
      1 C          -6.2749  -15.9676   24.2176 C.2     1  UNL1        0.1535
      2 N          -4.8132  -16.2933   24.3035 N.2     1  UNL1       -0.2470
      3 C          -4.5236  -17.3880   23.3197 C.3     1  UNL1        0.1720
      4 C          -3.2577  -18.1106   22.9661 C.3     1  UNL1        0.1653
      5 O          -1.9749  -17.7598   23.6601 O.3     1  UNL1       -0.3798
      6 C          -3.2744  -19.1841   21.9186 C.3     1  UNL1        0.1691
      7 O          -2.0084  -19.9068   21.5650 O.3     1  UNL1       -0.3794
      8 C          -4.5571  -19.5350   21.2246 C.3     1  UNL1        0.1807
      9 O          -5.8231  -18.8123   21.5783 O.3     1  UNL1       -0.3399
     10 C          -5.8063  -17.7388   22.6258 C.3     1  UNL1        0.1938
     11 S          -6.8887  -16.8609   23.1807 S.3     1  UNL1       -0.0497
     12 H          -1.2587  -18.3164   23.3164 H       1  UNL1        0.2105
     13 H          -1.2781  -19.5612   22.1017 H       1  UNL1        0.2105
     14 N          -6.9961  -14.9305   25.0266 N.pl3   1  UNL1       -0.3135
     15 H          -6.6869  -13.9959   25.0169 H       1  UNL1        0.1487
     16 C          -7.9967  -15.9332   27.2045 C.3     1  UNL1        0.0230
     17 C          -8.1885  -15.3175   25.8502 C.3     1  UNL1        0.0887
     18 C          -4.5739  -20.6084   20.1771 C.3     1  UNL1        0.2251
     19 F          -3.6653  -20.5099   18.9876 F       1  UNL1       -0.2315
@<TRIPOS>BOND
     1    16    17    1
     2    17    14    1
     3    14     1    1
     4     1     2    2
     5     3     2    1
     6     3     4    1
     7     4     5    1
     8     4     6    1
     9     6     7    1
    10     6     8    1
    11     8    18    1
    12    18    19    1
    13     8     9    1
    14    10     9    1
    15    10    11    1
    16    11     1    1
    17    10     3    1
    18    14    15    1
    19     5    12    1
    20     7    13    1
@<TRIPOS>MOLECULE
*****
 19 20 0 0 0
SMALL
GASTEIGER

@<TRIPOS>ATOM
      1 C          -5.7520  -19.3346   21.0958 C.2     1  UNL1        0.1535
      2 N          -6.0929  -18.3603   22.1841 N.2     1  UNL1       -0.2470
      3 C          -7.5200  -17.9375   21.9977 C.3     1  UNL1        0.1720
      4 C          -8.3966  -16.9954   22.7683 C.3     1  UNL1        0.1653
      5 O          -7.8554  -16.2824   23.9720 O.3     1  UNL1       -0.3798
      6 C          -9.8144  -16.7663   22.3354 C.3     1  UNL1        0.1691
      7 O         -10.6910  -15.8242   23.1061 O.3     1  UNL1       -0.3794
      8 C         -10.3555  -17.4793   21.1317 C.3     1  UNL1        0.1807
      9 O          -9.4788  -18.4215   20.3610 O.3     1  UNL1       -0.3399
     10 C          -8.0611  -18.6505   20.7940 C.3     1  UNL1        0.1938
     11 S          -6.9685  -19.5140   20.2366 S.3     1  UNL1       -0.0497
     12 H          -8.5464  -15.7164   24.3503 H       1  UNL1        0.2105
     13 H         -10.1904  -15.4508   23.8483 H       1  UNL1        0.2105
     14 N          -4.4274  -20.0108   20.9008 N.pl3   1  UNL1       -0.3135
     15 H          -4.3710  -20.9936   20.9054 H       1  UNL1        0.1487
     16 C          -2.9582  -18.4883   19.3930 C.3     1  UNL1        0.0230
     17 C          -3.1886  -19.1895   20.6988 C.3     1  UNL1        0.0887
     18 C         -11.7733  -17.2503   20.6988 C.3     1  UNL1        0.2251
     19 F         -12.1008  -16.1166   19.7727 F       1  UNL1       -0.2315
@<TRIPOS>BOND
     1    16    17    1
     2    17    14    1
     3    14     1    1
     4     1     2    2
     5     3     2    1
     6     3     4    1
     7     4     5    1
     8     4     6    1
     9     6     7    1
    10     6     8    1
    11     8    18    1
    12    18    19    1
    13     8     9    1
    14    10     9    1
    15    10    11    1
    16    11     1    1
    17    10     3    1
    18    14    15    1
    19     5    12    1
    20     7    13    1
@<TRIPOS>MOLECULE
*****
 19 20 0 0 0
SMALL
GASTEIGER

@<TRIPOS>ATOM
      1 C          -6.3706  -16.5942   23.3339 C.2     1  UNL1        0.1535
      2 N          -6.8655  -17.4208   22.1842 N.2     1  UNL1       -0.2470
      3 C          -8.3643  -17.3599   22.1808 C.3     1  UNL1        0.1720
      4 C          -9.3919  -17.9797   21.2810 C.3     1  UNL1        0.1653
      5 O          -8.9606  -18.8440   20.1334 O.3     1  UNL1       -0.3798
      6 C         -10.8511  -17.7353   21.5288 C.3     1  UNL1        0.1691
      7 O         -11.8787  -18.3551   20.6290 O.3     1  UNL1       -0.3794
      8 C         -11.2824  -16.8711   22.6764 C.3     1  UNL1        0.1807
      9 O         -10.2547  -16.2512   23.5762 O.3     1  UNL1       -0.3399
     10 C          -8.7957  -16.4957   23.3284 C.3     1  UNL1        0.1938
     11 S          -7.5635  -16.0225   24.0411 S.3     1  UNL1       -0.0497
     12 H          -9.7429  -19.1624   19.6565 H       1  UNL1        0.2105
     13 H         -11.4348  -18.8790   19.9439 H       1  UNL1        0.2105
     14 N          -4.9349  -16.3775   23.7104 N.pl3   1  UNL1       -0.3135
     15 H          -4.6491  -15.5126   24.0840 H       1  UNL1        0.1487
     16 C          -2.8227  -17.3161   22.5238 C.3     1  UNL1        0.0230
     17 C          -3.9345  -17.4784   23.5175 C.3     1  UNL1        0.0887
     18 C         -12.7415  -16.6266   22.9242 C.3     1  UNL1        0.2251
     19 F         -13.5791  -17.6859   23.5770 F       1  UNL1       -0.2315
@<TRIPOS>BOND
     1    16    17    1
     2    17    14    1
     3    14     1    1
     4     1     2    2
     5     3     2    1
     6     3     4    1
     7     4     5    1
     8     4     6    1
     9     6     7    1
    10     6     8    1
    11     8    18    1
    12    18    19    1
    13     8     9    1
    14    10     9    1
    15    10    11    1
    16    11     1    1
    17    10     3    1
    18    14    15    1
    19     5    12    1
    20     7    13    1
@<TRIPOS>MOLECULE
*****
 19 20 0 0 0
SMALL
GASTEIGER

@<TRIPOS>ATOM
      1 C          -7.4104  -15.8559   24.3279 C.2     1  UNL1        0.1535
      2 N          -6.5186  -16.6020   23.3802 N.2     1  UNL1       -0.2470
      3 C          -7.3849  -17.4605   22.5071 C.3     1  UNL1        0.1720
      4 C          -7.0586  -18.4105   21.3932 C.3     1  UNL1        0.1653
      5 O          -5.6313  -18.6260   20.9851 O.3     1  UNL1       -0.3798
      6 C          -8.1595  -19.1452   20.6872 C.3     1  UNL1        0.1691
      7 O          -7.8332  -20.0953   19.5733 O.3     1  UNL1       -0.3794
      8 C          -9.5868  -18.9298   21.0953 C.3     1  UNL1        0.1807
      9 O          -9.9131  -17.9797   22.2093 O.3     1  UNL1       -0.3399
     10 C          -8.8122  -17.2450   22.9151 C.3     1  UNL1        0.1938
     11 S          -8.8279  -16.2534   24.0405 S.3     1  UNL1       -0.0497
     12 H          -5.5963  -19.2654   20.2566 H       1  UNL1        0.2105
     13 H          -6.8729  -20.1173   19.4381 H       1  UNL1        0.2105
     14 N          -6.9632  -14.8833   25.3786 N.pl3   1  UNL1       -0.3135
     15 H          -6.8122  -13.9393   25.1432 H       1  UNL1        0.1487
     16 C          -7.8648  -16.0038   27.5423 C.3     1  UNL1        0.0230
     17 C          -6.7459  -15.3488   26.7879 C.3     1  UNL1        0.0887
     18 C         -10.6877  -19.6644   20.3895 C.3     1  UNL1        0.2251
     19 F         -10.9831  -19.3689   18.9488 F       1  UNL1       -0.2315
@<TRIPOS>BOND
     1    16    17    1
     2    17    14    1
     3    14     1    1
     4     1     2    2
     5     3     2    1
     6     3     4    1
     7     4     5    1
     8     4     6    1
     9     6     7    1
    10     6     8    1
    11     8    18    1
    12    18    19    1
    13     8     9    1
    14    10     9    1
    15    10    11    1
    16    11     1    1
    17    10     3    1
    18    14    15    1
    19     5    12    1
    20     7    13    1
