@<TRIPOS>MOLECULE
*****
 37 40 0 0 0
SMALL
GASTEIGER

@<TRIPOS>ATOM
      1 C          -2.9440    3.3412   20.1498 C.3     1  UNL1        0.0996
      2 C          -3.1686    3.6980   18.7103 C.3     1  UNL1        0.1704
      3 S          -1.8512    4.1117   18.1242 S.O2    1  UNL1       -0.0083
      4 O          -2.6495    4.3079   16.8695 O.2     1  UNL1       -0.1729
      5 O          -0.7008    4.5663   17.2759 O.2     1  UNL1       -0.1729
      6 C          -0.8124    4.0105   19.2015 C.3     1  UNL1        0.1539
      7 C          -1.4878    3.5343   20.4534 C.3     1  UNL1        0.0593
      8 N          -5.6240    3.3642   23.0768 N.am    1  UNL1       -0.2485
      9 C          -4.5764    3.8320   22.1105 C.2     1  UNL1        0.3059
     10 O          -4.1135    5.2585   22.1388 O.2     1  UNL1       -0.2524
     11 N          -3.9916    2.8734   21.1160 N.am    1  UNL1       -0.2884
     12 H          -5.9278    2.4280   23.0582 H       1  UNL1        0.1583
     13 H          -4.2954    1.9371   21.0974 H       1  UNL1        0.1510
     14 C          -6.5310    5.6719   26.0630 C.ar    1  UNL1        0.0803
     15 S          -5.6178    4.6821   25.4023 S.2     1  UNL1       -0.0488
     16 C          -6.2087    4.3228   24.0712 C.ar    1  UNL1        0.1664
     17 N          -7.4872    5.0907   23.9092 N.ar    1  UNL1       -0.2282
     18 C          -7.6863    5.9244   25.1402 C.ar    1  UNL1        0.0701
     19 C          -8.8384    6.8484   25.4024 C.3     1  UNL1        0.0528
     20 C          -5.3298    7.4090   27.5760 C.3     1  UNL1        0.0779
     21 C          -6.3249    6.2989   27.4099 C.2     1  UNL1        0.1807
     22 O          -7.1140    5.8161   28.5906 O.2     1  UNL1       -0.2908
     23 C          -0.8236    3.2935   21.7765 C.3     1  UNL1        0.0755
     24 N           0.2245    2.2283   21.9068 N.3     1  UNL1       -0.2726
     25 C           1.1765    2.2505   23.0658 C.3     1  UNL1        0.0721
     26 C           2.2244    1.1853   23.1960 C.3     1  UNL1        0.0174
     27 C           2.3204    0.0978   22.1673 C.3     1  UNL1        0.0031
     28 C           1.3685    0.0756   21.0084 C.3     1  UNL1        0.0204
     29 C           0.3205    1.1408   20.8781 C.3     1  UNL1        0.0724
     30 C           1.4645   -1.0119   19.9797 C.3     1  UNL1        0.0277
     31 C           2.7966   -1.3737   19.3929 C.ar    1  UNL1       -0.0220
     32 C           3.4855   -2.6366   19.8181 C.ar    1  UNL1       -0.0020
     33 C           4.8176   -2.9984   19.2313 C.ar    1  UNL1        0.0293
     34 C           5.4610   -2.0974   18.2193 C.ar    1  UNL1        0.1401
     35 F           6.7933   -2.4593   17.6325 F       1  UNL1       -0.2042
     36 C           4.7723   -0.8346   17.7940 C.ar    1  UNL1        0.0293
     37 C           3.4401   -0.4727   18.3808 C.ar    1  UNL1       -0.0020
@<TRIPOS>BOND
     1    20    21    1
     2    21    22    2
     3    21    14    1
     4    14    15   ar
     5    15    16   ar
     6    16     8    1
     7     8     9   am
     8     9    10    2
     9     9    11   am
    10     1    11    1
    11     1     2    1
    12     2     3    1
    13     3     4    2
    14     3     5    2
    15     3     6    1
    16     6     7    1
    17     7    23    1
    18    23    24    1
    19    24    25    1
    20    25    26    1
    21    26    27    1
    22    27    28    1
    23    28    30    1
    24    30    31    1
    25    31    32   ar
    26    32    33   ar
    27    33    34   ar
    28    34    35    1
    29    34    36   ar
    30    36    37   ar
    31    28    29    1
    32    16    17   ar
    33    17    18   ar
    34    18    19    1
    35    18    14   ar
    36     7     1    1
    37    29    24    1
    38    37    31   ar
    39     8    12    1
    40    11    13    1
@<TRIPOS>MOLECULE
*****
 37 40 0 0 0
SMALL
GASTEIGER

@<TRIPOS>ATOM
      1 C           3.4394    0.4643   19.3665 C.3     1  UNL1        0.0996
      2 C           4.3385    0.4329   18.1663 C.3     1  UNL1        0.1704
      3 S           4.8009   -0.9806   17.9704 S.O2    1  UNL1       -0.0083
      4 O           5.5434   -0.4091   16.7991 O.2     1  UNL1       -0.1729
      5 O           5.4184   -2.2745   17.5296 O.2     1  UNL1       -0.1729
      6 C           4.1874   -1.8227   19.0495 C.3     1  UNL1        0.1539
      7 C           3.3460   -0.9297   19.9124 C.3     1  UNL1        0.0593
      8 N           0.5963    3.0828   20.2671 N.am    1  UNL1       -0.2485
      9 C           1.2817    1.8702   19.7106 C.2     1  UNL1        0.3059
     10 O           0.4948    0.8507   18.9415 O.2     1  UNL1       -0.2524
     11 N           2.7540    1.6769   19.9231 N.am    1  UNL1       -0.2884
     12 H           1.1127    3.7519   20.7719 H       1  UNL1        0.1583
     13 H           3.2704    2.3461   20.4278 H       1  UNL1        0.1510
     14 C          -3.0054    3.8667   19.0510 C.ar    1  UNL1        0.0803
     15 S          -1.5210    3.8643   18.8349 S.2     1  UNL1       -0.0488
     16 C          -0.8759    3.2759   20.0547 C.ar    1  UNL1        0.1664
     17 N          -1.9616    2.9146   21.0246 N.ar    1  UNL1       -0.2282
     18 C          -3.2777    3.2797   20.4043 C.ar    1  UNL1        0.0701
     19 C          -4.6288    3.0909   21.0278 C.3     1  UNL1        0.0528
     20 C          -4.1833    3.7171   16.7402 C.3     1  UNL1        0.0779
     21 C          -4.0363    4.3679   18.0837 C.2     1  UNL1        0.1807
     22 O          -4.9202    5.5200   18.4597 O.2     1  UNL1       -0.2908
     23 C           2.5507   -1.3558   21.1107 C.3     1  UNL1        0.0755
     24 N           3.1454   -1.2454   22.4834 N.3     1  UNL1       -0.2726
     25 C           4.1669   -2.2440   22.9408 C.3     1  UNL1        0.0721
     26 C           4.7615   -2.1335   24.3134 C.3     1  UNL1        0.0174
     27 C           4.3345   -1.0245   25.2287 C.3     1  UNL1        0.0031
     28 C           3.3129   -0.0259   24.7713 C.3     1  UNL1        0.0204
     29 C           2.7184   -0.1364   23.3987 C.3     1  UNL1        0.0724
     30 C           2.8859    1.0831   25.6866 C.3     1  UNL1        0.0277
     31 C           1.7594    0.8662   26.6530 C.ar    1  UNL1       -0.0220
     32 C           0.3945    1.4085   26.3478 C.ar    1  UNL1       -0.0020
     33 C          -0.7320    1.1916   27.3142 C.ar    1  UNL1        0.0293
     34 C          -0.4936    0.4325   28.5858 C.ar    1  UNL1        0.1401
     35 F          -1.6202    0.2156   29.5522 F       1  UNL1       -0.2042
     36 C           0.8712   -0.1097   28.8910 C.ar    1  UNL1        0.0293
     37 C           1.9978    0.1071   27.9246 C.ar    1  UNL1       -0.0020
@<TRIPOS>BOND
     1    20    21    1
     2    21    22    2
     3    21    14    1
     4    14    15   ar
     5    15    16   ar
     6    16     8    1
     7     8     9   am
     8     9    10    2
     9     9    11   am
    10     1    11    1
    11     1     2    1
    12     2     3    1
    13     3     4    2
    14     3     5    2
    15     3     6    1
    16     6     7    1
    17     7    23    1
    18    23    24    1
    19    24    25    1
    20    25    26    1
    21    26    27    1
    22    27    28    1
    23    28    30    1
    24    30    31    1
    25    31    32   ar
    26    32    33   ar
    27    33    34   ar
    28    34    35    1
    29    34    36   ar
    30    36    37   ar
    31    28    29    1
    32    16    17   ar
    33    17    18   ar
    34    18    19    1
    35    18    14   ar
    36     7     1    1
    37    29    24    1
    38    37    31   ar
    39     8    12    1
    40    11    13    1
@<TRIPOS>MOLECULE
*****
 37 40 0 0 0
SMALL
GASTEIGER

@<TRIPOS>ATOM
      1 C          -4.9215    4.9149   23.9741 C.3     1  UNL1        0.0996
      2 C          -5.8871    5.8418   24.6512 C.3     1  UNL1        0.1704
      3 S          -7.2646    5.5230   24.1503 S.O2    1  UNL1       -0.0083
      4 O          -7.6852    6.6286   25.0726 O.2     1  UNL1       -0.1729
      5 O          -8.7299    5.4353   23.8421 O.2     1  UNL1       -0.1729
      6 C          -7.1503    4.3990   23.1635 C.3     1  UNL1        0.1539
      7 C          -5.7022    4.0232   23.0547 C.3     1  UNL1        0.0593
      8 N          -1.3713    4.1298   25.5649 N.am    1  UNL1       -0.2485
      9 C          -2.8568    4.1597   25.3587 C.2     1  UNL1        0.3059
     10 O          -3.7631    3.4645   26.3310 O.2     1  UNL1       -0.2524
     11 N          -3.4361    4.8849   24.1803 N.am    1  UNL1       -0.2884
     12 H          -0.7765    4.5861   24.9268 H       1  UNL1        0.1583
     13 H          -2.8413    5.3412   23.5422 H       1  UNL1        0.1510
     14 C          -0.0843    1.6325   28.2431 C.ar    1  UNL1        0.0803
     15 S          -0.7485    1.9167   26.9285 S.2     1  UNL1       -0.0488
     16 C          -0.7922    3.4046   26.7432 C.ar    1  UNL1        0.1664
     17 N          -0.1549    4.0400   27.9434 N.ar    1  UNL1       -0.2282
     18 C           0.2826    2.9448   28.8703 C.ar    1  UNL1        0.0701
     19 C           0.9668    3.1294   30.1923 C.3     1  UNL1        0.0528
     20 C           1.5583   -0.2897   28.8399 C.3     1  UNL1        0.0779
     21 C           0.1686    0.2746   28.8277 C.2     1  UNL1        0.1807
     22 O          -0.9682   -0.5191   29.4001 O.2     1  UNL1       -0.2908
     23 C          -5.1345    2.9450   22.1800 C.3     1  UNL1        0.0755
     24 N          -4.3890    3.3082   20.9300 N.3     1  UNL1       -0.2726
     25 C          -5.1436    3.6803   19.6881 C.3     1  UNL1        0.0721
     26 C          -4.3981    4.0435   18.4382 C.3     1  UNL1        0.0174
     27 C          -2.8982    4.0344   18.4301 C.3     1  UNL1        0.0031
     28 C          -2.1437    3.6623   19.6719 C.3     1  UNL1        0.0204
     29 C          -2.8891    3.2991   20.9218 C.3     1  UNL1        0.0724
     30 C          -0.6437    3.6532   19.6638 C.3     1  UNL1        0.0277
     31 C           0.0985    2.3498   19.6707 C.ar    1  UNL1       -0.0220
     32 C           0.2020    1.5523   20.9370 C.ar    1  UNL1       -0.0020
     33 C           0.9442    0.2489   20.9440 C.ar    1  UNL1        0.0293
     34 C           1.5830   -0.2572   19.6847 C.ar    1  UNL1        0.1401
     35 F           2.3252   -1.5607   19.6917 F       1  UNL1       -0.2042
     36 C           1.4795    0.5402   18.4184 C.ar    1  UNL1        0.0293
     37 C           0.7373    1.8437   18.4114 C.ar    1  UNL1       -0.0020
@<TRIPOS>BOND
     1    20    21    1
     2    21    22    2
     3    21    14    1
     4    14    15   ar
     5    15    16   ar
     6    16     8    1
     7     8     9   am
     8     9    10    2
     9     9    11   am
    10     1    11    1
    11     1     2    1
    12     2     3    1
    13     3     4    2
    14     3     5    2
    15     3     6    1
    16     6     7    1
    17     7    23    1
    18    23    24    1
    19    24    25    1
    20    25    26    1
    21    26    27    1
    22    27    28    1
    23    28    30    1
    24    30    31    1
    25    31    32   ar
    26    32    33   ar
    27    33    34   ar
    28    34    35    1
    29    34    36   ar
    30    36    37   ar
    31    28    29    1
    32    16    17   ar
    33    17    18   ar
    34    18    19    1
    35    18    14   ar
    36     7     1    1
    37    29    24    1
    38    37    31   ar
    39     8    12    1
    40    11    13    1
@<TRIPOS>MOLECULE
*****
 37 40 0 0 0
SMALL
GASTEIGER

@<TRIPOS>ATOM
      1 C           6.4882   -2.6312   28.3387 C.3     1  UNL1        0.0996
      2 C           6.6848   -4.0185   28.8741 C.3     1  UNL1        0.1704
      3 S           7.4983   -4.7893   27.8770 S.O2    1  UNL1       -0.0083
      4 O           7.3560   -5.9104   28.8633 O.2     1  UNL1       -0.1729
      5 O           8.2819   -5.7944   27.0861 O.2     1  UNL1       -0.1729
      6 C           7.8043   -3.8783   26.7253 C.3     1  UNL1        0.1539
      7 C           7.1800   -2.5446   27.0106 C.3     1  UNL1        0.0593
      8 N           3.5700   -0.1075   29.2690 N.am    1  UNL1       -0.2485
      9 C           4.3258   -1.2139   28.5947 C.2     1  UNL1        0.3059
     10 O           3.6750   -2.0094   27.5022 O.2     1  UNL1       -0.2524
     11 N           5.7324   -1.5248   29.0129 N.am    1  UNL1       -0.2884
     12 H           3.9971    0.4146   29.9861 H       1  UNL1        0.1583
     13 H           6.1595   -1.0027   29.7300 H       1  UNL1        0.1510
     14 C           0.2595    1.0925   27.6361 C.ar    1  UNL1        0.0803
     15 S           1.7583    1.0506   27.6810 S.2     1  UNL1       -0.0488
     16 C           2.1635    0.2034   28.8508 C.ar    1  UNL1        0.1664
     17 N           0.9151   -0.2783   29.5288 N.ar    1  UNL1       -0.2282
     18 C          -0.2615    0.2712   28.7781 C.ar    1  UNL1        0.0701
     19 C          -1.7058    0.0400   29.1109 C.3     1  UNL1        0.0528
     20 C          -0.2833    1.6729   25.1627 C.3     1  UNL1        0.0779
     21 C          -0.5720    1.8267   26.6266 C.2     1  UNL1        0.1807
     22 O          -1.6923    2.7147   27.0808 O.2     1  UNL1       -0.2908
     23 C           7.2376   -1.3363   26.1236 C.3     1  UNL1        0.0755
     24 N           6.0671   -0.9894   25.2519 N.3     1  UNL1       -0.2726
     25 C           5.3492    0.3136   25.4438 C.3     1  UNL1        0.0721
     26 C           4.1788    0.6604   24.5721 C.3     1  UNL1        0.0174
     27 C           3.7263   -0.2957   23.5086 C.3     1  UNL1        0.0031
     28 C           4.4442   -1.5986   23.3167 C.3     1  UNL1        0.0204
     29 C           5.6146   -1.9455   24.1884 C.3     1  UNL1        0.0724
     30 C           3.9918   -2.5548   22.2531 C.3     1  UNL1        0.0277
     31 C           3.9862   -2.1289   20.8149 C.ar    1  UNL1       -0.0220
     32 C           2.8776   -1.2635   20.2932 C.ar    1  UNL1       -0.0020
     33 C           2.8721   -0.8376   18.8550 C.ar    1  UNL1        0.0293
     34 C           3.9751   -1.2772   17.9384 C.ar    1  UNL1        0.1401
     35 F           3.9695   -0.8513   16.5000 F       1  UNL1       -0.2042
     36 C           5.0836   -2.1426   18.4600 C.ar    1  UNL1        0.0293
     37 C           5.0892   -2.5685   19.8983 C.ar    1  UNL1       -0.0020
@<TRIPOS>BOND
     1    20    21    1
     2    21    22    2
     3    21    14    1
     4    14    15   ar
     5    15    16   ar
     6    16     8    1
     7     8     9   am
     8     9    10    2
     9     9    11   am
    10     1    11    1
    11     1     2    1
    12     2     3    1
    13     3     4    2
    14     3     5    2
    15     3     6    1
    16     6     7    1
    17     7    23    1
    18    23    24    1
    19    24    25    1
    20    25    26    1
    21    26    27    1
    22    27    28    1
    23    28    30    1
    24    30    31    1
    25    31    32   ar
    26    32    33   ar
    27    33    34   ar
    28    34    35    1
    29    34    36   ar
    30    36    37   ar
    31    28    29    1
    32    16    17   ar
    33    17    18   ar
    34    18    19    1
    35    18    14   ar
    36     7     1    1
    37    29    24    1
    38    37    31   ar
    39     8    12    1
    40    11    13    1
@<TRIPOS>MOLECULE
*****
 37 40 0 0 0
SMALL
GASTEIGER

@<TRIPOS>ATOM
      1 C           3.7446   -0.4490   21.1155 C.3     1  UNL1        0.0996
      2 C           5.0927   -1.0393   20.8258 C.3     1  UNL1        0.1704
      3 S           4.9267   -2.0660   19.7449 S.O2    1  UNL1       -0.0083
      4 O           6.4074   -2.2443   19.9043 O.2     1  UNL1       -0.1729
      5 O           5.0701   -3.1299   18.6973 O.2     1  UNL1       -0.1729
      6 C           3.4758   -2.1101   19.3665 C.3     1  UNL1        0.1539
      7 C           2.7453   -1.1107   20.2136 C.3     1  UNL1        0.0593
      8 N           2.7909    1.3000   24.5480 N.am    1  UNL1       -0.2485
      9 C           3.0876    0.2348   23.5344 C.2     1  UNL1        0.3059
     10 O           3.0242   -1.2117   23.9261 O.2     1  UNL1       -0.2524
     11 N           3.4478    0.6162   22.1291 N.am    1  UNL1       -0.2884
     12 H           2.8326    2.2494   24.2909 H       1  UNL1        0.1583
     13 H           3.4895    1.5656   21.8720 H       1  UNL1        0.1510
     14 C           1.1768    0.5772   28.0031 C.ar    1  UNL1        0.0803
     15 S           1.0869    1.0917   26.5969 S.2     1  UNL1       -0.0488
     16 C           2.4307    0.9186   25.9532 C.ar    1  UNL1        0.1664
     17 N           3.3511    0.2971   26.9616 N.ar    1  UNL1       -0.2282
     18 C           2.5761    0.0862   28.2284 C.ar    1  UNL1        0.0701
     19 C           3.1072   -0.5110   29.4978 C.3     1  UNL1        0.0528
     20 C          -1.2072   -0.1808   28.7042 C.3     1  UNL1        0.0779
     21 C           0.0629    0.5573   29.0074 C.2     1  UNL1        0.1807
     22 O           0.2191    1.2755   30.3150 O.2     1  UNL1       -0.2908
     23 C           1.2738   -0.8235   20.1669 C.3     1  UNL1        0.0755
     24 N           0.7900    0.5770   19.9328 N.3     1  UNL1       -0.2726
     25 C           0.9215    1.1986   18.5741 C.3     1  UNL1        0.0721
     26 C           0.4377    2.5990   18.3400 C.3     1  UNL1        0.0174
     27 C          -0.1775    3.3778   19.4648 C.3     1  UNL1        0.0031
     28 C          -0.3090    2.7561   20.8235 C.3     1  UNL1        0.0204
     29 C           0.1747    1.3557   21.0575 C.3     1  UNL1        0.0724
     30 C          -0.9243    3.5349   21.9482 C.3     1  UNL1        0.0277
     31 C          -2.4129    3.5371   22.1326 C.ar    1  UNL1       -0.0220
     32 C          -3.3151    3.3273   20.9527 C.ar    1  UNL1       -0.0020
     33 C          -4.8037    3.3295   21.1371 C.ar    1  UNL1        0.0293
     34 C          -5.3901    3.5415   22.5014 C.ar    1  UNL1        0.1401
     35 F          -6.8788    3.5438   22.6857 F       1  UNL1       -0.2042
     36 C          -4.4880    3.7513   23.6812 C.ar    1  UNL1        0.0293
     37 C          -2.9993    3.7491   23.4969 C.ar    1  UNL1       -0.0020
@<TRIPOS>BOND
     1    20    21    1
     2    21    22    2
     3    21    14    1
     4    14    15   ar
     5    15    16   ar
     6    16     8    1
     7     8     9   am
     8     9    10    2
     9     9    11   am
    10     1    11    1
    11     1     2    1
    12     2     3    1
    13     3     4    2
    14     3     5    2
    15     3     6    1
    16     6     7    1
    17     7    23    1
    18    23    24    1
    19    24    25    1
    20    25    26    1
    21    26    27    1
    22    27    28    1
    23    28    30    1
    24    30    31    1
    25    31    32   ar
    26    32    33   ar
    27    33    34   ar
    28    34    35    1
    29    34    36   ar
    30    36    37   ar
    31    28    29    1
    32    16    17   ar
    33    17    18   ar
    34    18    19    1
    35    18    14   ar
    36     7     1    1
    37    29    24    1
    38    37    31   ar
    39     8    12    1
    40    11    13    1
@<TRIPOS>MOLECULE
*****
 37 40 0 0 0
SMALL
GASTEIGER

@<TRIPOS>ATOM
      1 C         -17.5896   -7.5884   17.2833 C.3     1  UNL1        0.0996
      2 C         -18.2729   -8.7780   16.6768 C.3     1  UNL1        0.1704
      3 S         -19.0818   -9.4449   17.7497 S.O2    1  UNL1       -0.0083
      4 O         -19.4505  -10.4037   16.6566 O.2     1  UNL1       -0.1729
      5 O         -19.9676  -10.3122   18.5940 O.2     1  UNL1       -0.1729
      6 C         -18.8983   -8.6675   19.0193 C.3     1  UNL1        0.1539
      7 C         -17.9761   -7.5201   18.7310 C.3     1  UNL1        0.0593
      8 N         -14.3289   -5.5727   16.2560 N.am    1  UNL1       -0.2485
      9 C         -15.2390   -6.5265   16.9716 C.2     1  UNL1        0.3059
     10 O         -14.7085   -7.3721   18.0911 O.2     1  UNL1       -0.2524
     11 N         -16.6796   -6.6346   16.5677 N.am    1  UNL1       -0.2884
     12 H         -14.6771   -5.0176   15.5212 H       1  UNL1        0.1583
     13 H         -17.0278   -6.0796   15.8329 H       1  UNL1        0.1510
     14 C         -10.7945   -5.7751   17.8472 C.ar    1  UNL1        0.0803
     15 S         -12.2404   -6.1726   17.8126 S.2     1  UNL1       -0.0488
     16 C         -12.8885   -5.4646   16.6599 C.ar    1  UNL1        0.1664
     17 N         -11.8430   -4.6293   15.9820 N.ar    1  UNL1       -0.2282
     18 C         -10.5488   -4.8213   16.7158 C.ar    1  UNL1        0.0701
     19 C          -9.2390   -4.1732   16.3776 C.3     1  UNL1        0.0528
     20 C          -9.4409   -7.7078   18.9344 C.3     1  UNL1        0.0779
     21 C          -9.7735   -6.2482   18.8389 C.2     1  UNL1        0.1807
     22 O          -9.0851   -5.2619   19.7351 O.2     1  UNL1       -0.2908
     23 C         -17.5204   -6.4860   19.7174 C.3     1  UNL1        0.0755
     24 N         -17.6220   -5.0286   19.3769 N.3     1  UNL1       -0.2726
     25 C         -18.7592   -4.5329   18.5338 C.3     1  UNL1        0.0721
     26 C         -18.8608   -3.0756   18.1934 C.3     1  UNL1        0.0174
     27 C         -17.8252   -2.1140   18.6962 C.3     1  UNL1        0.0031
     28 C         -16.6879   -2.6097   19.5393 C.3     1  UNL1        0.0204
     29 C         -16.5864   -4.0670   19.8797 C.3     1  UNL1        0.0724
     30 C         -15.6523   -1.6481   20.0421 C.3     1  UNL1        0.0277
     31 C         -14.3335   -1.5300   19.3373 C.ar    1  UNL1       -0.0220
     32 C         -13.2303   -2.4994   19.6428 C.ar    1  UNL1       -0.0020
     33 C         -11.9115   -2.3813   18.9379 C.ar    1  UNL1        0.0293
     34 C         -11.6959   -1.2938   17.9276 C.ar    1  UNL1        0.1401
     35 F         -10.3770   -1.1757   17.2227 F       1  UNL1       -0.2042
     36 C         -12.7990   -0.3244   17.6221 C.ar    1  UNL1        0.0293
     37 C         -14.1179   -0.4425   18.3269 C.ar    1  UNL1       -0.0020
@<TRIPOS>BOND
     1    20    21    1
     2    21    22    2
     3    21    14    1
     4    14    15   ar
     5    15    16   ar
     6    16     8    1
     7     8     9   am
     8     9    10    2
     9     9    11   am
    10     1    11    1
    11     1     2    1
    12     2     3    1
    13     3     4    2
    14     3     5    2
    15     3     6    1
    16     6     7    1
    17     7    23    1
    18    23    24    1
    19    24    25    1
    20    25    26    1
    21    26    27    1
    22    27    28    1
    23    28    30    1
    24    30    31    1
    25    31    32   ar
    26    32    33   ar
    27    33    34   ar
    28    34    35    1
    29    34    36   ar
    30    36    37   ar
    31    28    29    1
    32    16    17   ar
    33    17    18   ar
    34    18    19    1
    35    18    14   ar
    36     7     1    1
    37    29    24    1
    38    37    31   ar
    39     8    12    1
    40    11    13    1
@<TRIPOS>MOLECULE
*****
 37 40 0 0 0
SMALL
GASTEIGER

@<TRIPOS>ATOM
      1 C           7.4211   -5.6427   26.4390 C.3     1  UNL1        0.0996
      2 C           7.1938   -7.1242   26.4972 C.3     1  UNL1        0.1704
      3 S           8.3474   -7.7417   27.2307 S.O2    1  UNL1       -0.0083
      4 O           7.6163   -9.0269   26.9779 O.2     1  UNL1       -0.1729
      5 O           9.3481   -8.6279   27.9112 O.2     1  UNL1       -0.1729
      6 C           9.2877   -6.6419   27.6257 C.3     1  UNL1        0.1539
      7 C           8.7152   -5.3446   27.1364 C.3     1  UNL1        0.0593
      8 N           5.5316   -3.5338   23.6582 N.am    1  UNL1       -0.2485
      9 C           6.4390   -4.5404   24.3010 C.2     1  UNL1        0.3059
     10 O           7.2719   -5.4514   23.4488 O.2     1  UNL1       -0.2524
     11 N           6.5137   -4.6361   25.7962 N.am    1  UNL1       -0.2884
     12 H           4.9850   -2.9358   24.2176 H       1  UNL1        0.1583
     13 H           5.9671   -4.0381   26.3555 H       1  UNL1        0.1510
     14 C           5.6964   -2.6304   19.8870 C.ar    1  UNL1        0.0803
     15 S           5.9863   -2.3131   21.3241 S.2     1  UNL1       -0.0488
     16 C           5.4570   -3.4382   22.1632 C.ar    1  UNL1        0.1664
     17 N           4.8399   -4.4509   21.2446 N.ar    1  UNL1       -0.2282
     18 C           4.9879   -3.9516   19.8379 C.ar    1  UNL1        0.0701
     19 C           4.5110   -4.6508   18.5994 C.3     1  UNL1        0.0528
     20 C           5.5970   -0.3485   18.6491 C.3     1  UNL1        0.0779
     21 C           6.0525   -1.7765   18.7064 C.2     1  UNL1        0.1807
     22 O           6.8642   -2.3505   17.5831 O.2     1  UNL1       -0.2908
     23 C           9.3291   -3.9875   27.3134 C.3     1  UNL1        0.0755
     24 N           8.7128   -3.0036   28.2633 N.3     1  UNL1       -0.2726
     25 C           8.3230   -1.6380   27.7804 C.3     1  UNL1        0.0721
     26 C           7.7067   -0.6542   28.7303 C.3     1  UNL1        0.0174
     27 C           7.4801   -1.0360   30.1631 C.3     1  UNL1        0.0031
     28 C           7.8699   -2.4016   30.6460 C.3     1  UNL1        0.0204
     29 C           8.4862   -3.3854   29.6961 C.3     1  UNL1        0.0724
     30 C           7.6433   -2.7834   32.0788 C.3     1  UNL1        0.0277
     31 C           6.7280   -1.9625   32.9380 C.ar    1  UNL1       -0.0220
     32 C           7.2722   -0.8044   33.7207 C.ar    1  UNL1       -0.0020
     33 C           6.3569    0.0165   34.5799 C.ar    1  UNL1        0.0293
     34 C           4.8973   -0.3207   34.6564 C.ar    1  UNL1        0.1401
     35 F           3.9819    0.5003   35.5156 F       1  UNL1       -0.2042
     36 C           4.3530   -1.4788   33.8737 C.ar    1  UNL1        0.0293
     37 C           5.2684   -2.2997   33.0145 C.ar    1  UNL1       -0.0020
@<TRIPOS>BOND
     1    20    21    1
     2    21    22    2
     3    21    14    1
     4    14    15   ar
     5    15    16   ar
     6    16     8    1
     7     8     9   am
     8     9    10    2
     9     9    11   am
    10     1    11    1
    11     1     2    1
    12     2     3    1
    13     3     4    2
    14     3     5    2
    15     3     6    1
    16     6     7    1
    17     7    23    1
    18    23    24    1
    19    24    25    1
    20    25    26    1
    21    26    27    1
    22    27    28    1
    23    28    30    1
    24    30    31    1
    25    31    32   ar
    26    32    33   ar
    27    33    34   ar
    28    34    35    1
    29    34    36   ar
    30    36    37   ar
    31    28    29    1
    32    16    17   ar
    33    17    18   ar
    34    18    19    1
    35    18    14   ar
    36     7     1    1
    37    29    24    1
    38    37    31   ar
    39     8    12    1
    40    11    13    1
@<TRIPOS>MOLECULE
*****
 37 40 0 0 0
SMALL
GASTEIGER

@<TRIPOS>ATOM
      1 C           6.8280   -2.5344   24.5728 C.3     1  UNL1        0.0996
      2 C           7.2176   -3.9193   24.9973 C.3     1  UNL1        0.1704
      3 S           7.4815   -4.7262   23.7606 S.O2    1  UNL1       -0.0083
      4 O           7.7760   -5.8294   24.7334 O.2     1  UNL1       -0.1729
      5 O           7.8070   -5.7636   22.7274 O.2     1  UNL1       -0.1729
      6 C           7.2551   -3.8399   22.5718 C.3     1  UNL1        0.1539
      7 C           6.8512   -2.4853   23.0738 C.3     1  UNL1        0.0593
      8 N           4.6874    0.0662   26.6716 N.am    1  UNL1       -0.2485
      9 C           5.0385   -1.0701   25.7576 C.2     1  UNL1        0.3059
     10 O           3.9510   -1.8786   25.1142 O.2     1  UNL1       -0.2524
     11 N           6.4769   -1.3981   25.4868 N.am    1  UNL1       -0.2884
     12 H           5.4011    0.5968   27.0939 H       1  UNL1        0.1583
     13 H           7.1907   -0.8674   25.9091 H       1  UNL1        0.1510
     14 C           1.0866    0.5690   28.0307 C.ar    1  UNL1        0.0803
     15 S           2.4864    0.0534   28.1883 S.2     1  UNL1       -0.0488
     16 C           3.2490    0.3940   26.9423 C.ar    1  UNL1        0.1664
     17 N           2.3204    1.1202   26.0146 N.ar    1  UNL1       -0.2282
     18 C           0.9841    1.2283   26.6872 C.ar    1  UNL1        0.0701
     19 C          -0.2400    1.8810   26.1166 C.3     1  UNL1        0.0528
     20 C          -1.2141   -0.4064   28.7414 C.3     1  UNL1        0.0779
     21 C          -0.0168    0.4467   29.0393 C.2     1  UNL1        0.1807
     22 O           0.0770    1.1775   30.3459 O.2     1  UNL1       -0.2908
     23 C           6.5274   -1.2913   22.2256 C.3     1  UNL1        0.0755
     24 N           5.6382   -1.4417   21.0269 N.3     1  UNL1       -0.2726
     25 C           6.2338   -1.7512   19.6855 C.3     1  UNL1        0.0721
     26 C           5.3447   -1.9016   18.4868 C.3     1  UNL1        0.0174
     27 C           3.8600   -1.7425   18.6296 C.3     1  UNL1        0.0031
     28 C           3.2644   -1.4330   19.9710 C.3     1  UNL1        0.0204
     29 C           4.1535   -1.2826   21.1696 C.3     1  UNL1        0.0724
     30 C           1.7797   -1.2739   20.1138 C.3     1  UNL1        0.0277
     31 C           1.1475    0.0722   19.9185 C.ar    1  UNL1       -0.0220
     32 C           1.2162    0.7461   18.5800 C.ar    1  UNL1       -0.0020
     33 C           0.5840    2.0922   18.3848 C.ar    1  UNL1        0.0293
     34 C          -0.1170    2.7646   19.5278 C.ar    1  UNL1        0.1401
     35 F          -0.7493    4.1107   19.3325 F       1  UNL1       -0.2042
     36 C          -0.1858    2.0908   20.8662 C.ar    1  UNL1        0.0293
     37 C           0.4465    0.7446   21.0615 C.ar    1  UNL1       -0.0020
@<TRIPOS>BOND
     1    20    21    1
     2    21    22    2
     3    21    14    1
     4    14    15   ar
     5    15    16   ar
     6    16     8    1
     7     8     9   am
     8     9    10    2
     9     9    11   am
    10     1    11    1
    11     1     2    1
    12     2     3    1
    13     3     4    2
    14     3     5    2
    15     3     6    1
    16     6     7    1
    17     7    23    1
    18    23    24    1
    19    24    25    1
    20    25    26    1
    21    26    27    1
    22    27    28    1
    23    28    30    1
    24    30    31    1
    25    31    32   ar
    26    32    33   ar
    27    33    34   ar
    28    34    35    1
    29    34    36   ar
    30    36    37   ar
    31    28    29    1
    32    16    17   ar
    33    17    18   ar
    34    18    19    1
    35    18    14   ar
    36     7     1    1
    37    29    24    1
    38    37    31   ar
    39     8    12    1
    40    11    13    1
@<TRIPOS>MOLECULE
*****
 37 40 0 0 0
SMALL
GASTEIGER

@<TRIPOS>ATOM
      1 C           7.0493   -5.0364   26.5514 C.3     1  UNL1        0.0996
      2 C           7.0760   -6.5055   26.2500 C.3     1  UNL1        0.1704
      3 S           7.9482   -7.1726   27.2721 S.O2    1  UNL1       -0.0083
      4 O           7.6031   -8.4236   26.5199 O.2     1  UNL1       -0.1729
      5 O           8.7482   -8.1011   28.1367 O.2     1  UNL1       -0.1729
      6 C           8.4605   -6.1156   28.2050 C.3     1  UNL1        0.1539
      7 C           7.9049   -4.7954   27.7596 C.3     1  UNL1        0.0593
      8 N           5.4654   -3.0336   23.5132 N.am    1  UNL1       -0.2485
      9 C           6.2160   -4.0783   24.2847 C.2     1  UNL1        0.3059
     10 O           6.8839   -5.2097   23.5609 O.2     1  UNL1       -0.2524
     11 N           6.2987   -3.9917   25.7799 N.am    1  UNL1       -0.2884
     12 H           5.0270   -2.2910   23.9882 H       1  UNL1        0.1583
     13 H           5.8603   -3.2491   26.2550 H       1  UNL1        0.1510
     14 C           5.5506   -2.5664   19.6610 C.ar    1  UNL1        0.0803
     15 S           5.8116   -2.0593   21.0483 S.2     1  UNL1       -0.0488
     16 C           5.3827   -3.1202   22.0181 C.ar    1  UNL1        0.1664
     17 N           4.8565   -4.2831   21.2300 N.ar    1  UNL1       -0.2282
     18 C           4.9603   -3.9408   19.7733 C.ar    1  UNL1        0.0701
     19 C           4.5464   -4.8187   18.6296 C.3     1  UNL1        0.0528
     20 C           4.9990   -0.6383   18.0093 C.3     1  UNL1        0.0779
     21 C           5.8307   -1.8286   18.3854 C.2     1  UNL1        0.1807
     22 O           6.9424   -2.2812   17.4858 O.2     1  UNL1       -0.2908
     23 C           8.1602   -3.4673   28.4084 C.3     1  UNL1        0.0755
     24 N           7.2998   -3.0126   29.5500 N.3     1  UNL1       -0.2726
     25 C           7.1325   -3.8865   30.7575 C.3     1  UNL1        0.0721
     26 C           6.2722   -3.4317   31.8990 C.3     1  UNL1        0.0174
     27 C           5.5792   -2.1030   31.8329 C.3     1  UNL1        0.0031
     28 C           5.7466   -1.2291   30.6254 C.3     1  UNL1        0.0204
     29 C           6.6069   -1.6839   29.4839 C.3     1  UNL1        0.0724
     30 C           5.0536    0.0996   30.5593 C.3     1  UNL1        0.0277
     31 C           3.8263    0.2641   29.7129 C.ar    1  UNL1       -0.0220
     32 C           3.8469    1.1916   28.5340 C.ar    1  UNL1       -0.0020
     33 C           2.6196    1.3561   27.6876 C.ar    1  UNL1        0.0293
     34 C           1.3716    0.5932   28.0199 C.ar    1  UNL1        0.1401
     35 F           0.1442    0.7577   27.1734 F       1  UNL1       -0.2042
     36 C           1.3509   -0.3342   29.1986 C.ar    1  UNL1        0.0293
     37 C           2.5782   -0.4988   30.0451 C.ar    1  UNL1       -0.0020
@<TRIPOS>BOND
     1    20    21    1
     2    21    22    2
     3    21    14    1
     4    14    15   ar
     5    15    16   ar
     6    16     8    1
     7     8     9   am
     8     9    10    2
     9     9    11   am
    10     1    11    1
    11     1     2    1
    12     2     3    1
    13     3     4    2
    14     3     5    2
    15     3     6    1
    16     6     7    1
    17     7    23    1
    18    23    24    1
    19    24    25    1
    20    25    26    1
    21    26    27    1
    22    27    28    1
    23    28    30    1
    24    30    31    1
    25    31    32   ar
    26    32    33   ar
    27    33    34   ar
    28    34    35    1
    29    34    36   ar
    30    36    37   ar
    31    28    29    1
    32    16    17   ar
    33    17    18   ar
    34    18    19    1
    35    18    14   ar
    36     7     1    1
    37    29    24    1
    38    37    31   ar
    39     8    12    1
    40    11    13    1
