@<TRIPOS>MOLECULE
*****
 24 26 0 0 0
SMALL
GASTEIGER

@<TRIPOS>ATOM
      1 C          -4.4633  -19.8683   20.9194 C.3     1  UNL1        0.0838
      2 C          -5.3581  -20.0312   19.7266 C.3     1  UNL1        0.0437
      3 C          -6.7652  -19.7440   20.1600 C.ar    1  UNL1       -0.0247
      4 C          -8.0661  -19.7486   19.4133 C.ar    1  UNL1       -0.0045
      5 C          -9.3418  -19.4127   20.1272 C.ar    1  UNL1        0.0012
      6 C          -9.3166  -19.0723   21.5879 C.ar    1  UNL1        0.0173
      7 C          -8.0157  -19.0677   22.3346 C.ar    1  UNL1       -0.0030
      8 C          -6.7400  -19.4036   21.6206 C.ar    1  UNL1       -0.0246
      9 C          -5.3174  -19.4804   22.0900 C.3     1  UNL1        0.0438
     10 C         -10.5923  -18.7364   22.3018 C.ar    1  UNL1        0.0815
     11 C         -11.7200  -18.0860   21.5566 C.ar    1  UNL1        0.0215
     12 C         -12.9958  -17.7501   22.2705 C.ar    1  UNL1        0.0328
     13 C         -13.1438  -18.0646   23.7297 C.ar    1  UNL1        0.1592
     14 F         -14.4195  -17.7287   24.4436 F       1  UNL1       -0.2025
     15 C         -12.0161  -18.7150   24.4749 C.ar    1  UNL1        0.1283
     16 N         -10.7404  -19.0509   23.7610 N.ar    1  UNL1       -0.2415
     17 N          -2.9757  -20.0596   20.9383 N.3     1  UNL1       -0.1841
     18 H          -2.7455  -20.4893   21.8343 H       1  UNL1        0.1484
     19 S          -2.0655  -18.8782   20.7781 S.O2    1  UNL1        0.0390
     20 O          -1.7507  -18.9218   22.2440 O.2     1  UNL1       -0.1576
     21 O          -2.3802  -18.8345   19.3122 O.2     1  UNL1       -0.1576
     22 C           0.1339  -17.8398   19.8645 C.3     1  UNL1        0.0270
     23 C          -1.1552  -17.6967   20.6179 C.3     1  UNL1        0.1457
     24 C          -1.5341  -16.3721   21.2110 C.3     1  UNL1        0.0270
@<TRIPOS>BOND
     1    22    23    1
     2    23    24    1
     3    23    19    1
     4    19    20    2
     5    19    21    2
     6    19    17    1
     7    17     1    1
     8     1     2    1
     9     2     3    1
    10     3     4   ar
    11     4     5   ar
    12     5     6   ar
    13     6    10    1
    14    10    11   ar
    15    11    12   ar
    16    12    13   ar
    17    13    14    1
    18    13    15   ar
    19    15    16   ar
    20     6     7   ar
    21     7     8   ar
    22     8     9    1
    23     9     1    1
    24     8     3   ar
    25    16    10   ar
    26    17    18    1
@<TRIPOS>MOLECULE
*****
 24 26 0 0 0
SMALL
GASTEIGER

@<TRIPOS>ATOM
      1 C          -3.8625  -17.2573   23.1052 C.3     1  UNL1        0.0838
      2 C          -4.3728  -16.0154   23.7740 C.3     1  UNL1        0.0437
      3 C          -5.8680  -16.1094   23.8473 C.ar    1  UNL1       -0.0247
      4 C          -6.9062  -15.1792   24.4013 C.ar    1  UNL1       -0.0045
      5 C          -8.3582  -15.5490   24.3317 C.ar    1  UNL1        0.0012
      6 C          -8.7720  -16.8490   23.7082 C.ar    1  UNL1        0.0173
      7 C          -7.7339  -17.7792   23.1543 C.ar    1  UNL1       -0.0030
      8 C          -6.2819  -17.4094   23.2238 C.ar    1  UNL1       -0.0246
      9 C          -5.0424  -18.1188   22.7651 C.3     1  UNL1        0.0438
     10 C         -10.2241  -17.2188   23.6387 C.ar    1  UNL1        0.0815
     11 C         -11.1467  -16.4668   22.7258 C.ar    1  UNL1        0.0215
     12 C         -12.5988  -16.8366   22.6563 C.ar    1  UNL1        0.0328
     13 C         -13.1282  -17.9584   23.4997 C.ar    1  UNL1        0.1592
     14 F         -14.5802  -18.3282   23.4302 F       1  UNL1       -0.2025
     15 C         -12.2056  -18.7104   24.4126 C.ar    1  UNL1        0.1283
     16 N         -10.7536  -18.3406   24.4821 N.ar    1  UNL1       -0.2415
     17 N          -2.4247  -17.5808   22.8255 N.3     1  UNL1       -0.1841
     18 H          -1.8686  -16.8329   23.2398 H       1  UNL1        0.1484
     19 S          -1.9529  -17.7381   21.4104 S.O2    1  UNL1        0.0390
     20 O          -1.5383  -19.1492   21.7054 O.2     1  UNL1       -0.1576
     21 O          -2.3675  -16.3271   21.1153 O.2     1  UNL1       -0.1576
     22 C          -2.4780  -18.0444   18.8844 C.3     1  UNL1        0.0270
     23 C          -1.4811  -17.8955   19.9952 C.3     1  UNL1        0.1457
     24 C          -0.0123  -17.9040   19.6909 C.3     1  UNL1        0.0270
@<TRIPOS>BOND
     1    22    23    1
     2    23    24    1
     3    23    19    1
     4    19    20    2
     5    19    21    2
     6    19    17    1
     7    17     1    1
     8     1     2    1
     9     2     3    1
    10     3     4   ar
    11     4     5   ar
    12     5     6   ar
    13     6    10    1
    14    10    11   ar
    15    11    12   ar
    16    12    13   ar
    17    13    14    1
    18    13    15   ar
    19    15    16   ar
    20     6     7   ar
    21     7     8   ar
    22     8     9    1
    23     9     1    1
    24     8     3   ar
    25    16    10   ar
    26    17    18    1
@<TRIPOS>MOLECULE
*****
 24 26 0 0 0
SMALL
GASTEIGER

@<TRIPOS>ATOM
      1 C          -4.6472  -19.3869   20.2077 C.3     1  UNL1        0.0838
      2 C          -4.8890  -20.4490   21.2389 C.3     1  UNL1        0.0437
      3 C          -6.2661  -20.2470   21.7984 C.ar    1  UNL1       -0.0247
      4 C          -7.0439  -20.9905   22.8434 C.ar    1  UNL1       -0.0045
      5 C          -8.4310  -20.5470   23.2029 C.ar    1  UNL1        0.0012
      6 C          -9.0402  -19.3600   22.5174 C.ar    1  UNL1        0.0173
      7 C          -8.2624  -18.6165   21.4723 C.ar    1  UNL1       -0.0030
      8 C          -6.8753  -19.0600   21.1128 C.ar    1  UNL1       -0.0246
      9 C          -5.8748  -18.5285   20.1298 C.3     1  UNL1        0.0438
     10 C         -10.4274  -18.9166   22.8769 C.ar    1  UNL1        0.0815
     11 C         -10.9488  -19.1368   24.2660 C.ar    1  UNL1        0.0215
     12 C         -12.3359  -18.6933   24.6255 C.ar    1  UNL1        0.0328
     13 C         -13.2017  -18.0297   23.5959 C.ar    1  UNL1        0.1592
     14 F         -14.5888  -17.5862   23.9554 F       1  UNL1       -0.2025
     15 C         -12.6802  -17.8095   22.2068 C.ar    1  UNL1        0.1283
     16 N         -11.2931  -18.2529   21.8473 N.ar    1  UNL1       -0.2415
     17 N          -3.3972  -19.2137   19.3968 N.3     1  UNL1       -0.1841
     18 H          -2.9859  -20.1407   19.2881 H       1  UNL1        0.1484
     19 S          -2.3048  -18.3099   19.8864 S.O2    1  UNL1        0.0390
     20 O          -1.7269  -19.4408   20.6845 O.2     1  UNL1       -0.1576
     21 O          -2.8827  -17.1790   19.0882 O.2     1  UNL1       -0.1576
     22 C           0.2047  -17.6398   19.9433 C.3     1  UNL1        0.0270
     23 C          -1.2123  -17.4061   20.3760 C.3     1  UNL1        0.1457
     24 C          -1.5370  -16.2686   21.2984 C.3     1  UNL1        0.0270
@<TRIPOS>BOND
     1    22    23    1
     2    23    24    1
     3    23    19    1
     4    19    20    2
     5    19    21    2
     6    19    17    1
     7    17     1    1
     8     1     2    1
     9     2     3    1
    10     3     4   ar
    11     4     5   ar
    12     5     6   ar
    13     6    10    1
    14    10    11   ar
    15    11    12   ar
    16    12    13   ar
    17    13    14    1
    18    13    15   ar
    19    15    16   ar
    20     6     7   ar
    21     7     8   ar
    22     8     9    1
    23     9     1    1
    24     8     3   ar
    25    16    10   ar
    26    17    18    1
@<TRIPOS>MOLECULE
*****
 24 26 0 0 0
SMALL
GASTEIGER

@<TRIPOS>ATOM
      1 C          -9.0006  -18.2954   23.7538 C.3     1  UNL1        0.0838
      2 C          -8.7406  -19.5047   22.9053 C.3     1  UNL1        0.0437
      3 C          -7.3615  -19.3789   22.3290 C.ar    1  UNL1       -0.0247
      4 C          -6.5686  -20.2700   21.4195 C.ar    1  UNL1       -0.0045
      5 C          -5.1833  -19.8740   21.0023 C.ar    1  UNL1        0.0012
      6 C          -4.5909  -18.5868   21.4946 C.ar    1  UNL1        0.0173
      7 C          -5.3838  -17.6957   22.4040 C.ar    1  UNL1       -0.0030
      8 C          -6.7691  -18.0917   22.8212 C.ar    1  UNL1       -0.0246
      9 C          -7.7821  -17.4221   23.7018 C.3     1  UNL1        0.0438
     10 C          -3.2055  -18.1908   21.0773 C.ar    1  UNL1        0.0815
     11 C          -2.3418  -19.1613   20.3276 C.ar    1  UNL1        0.0215
     12 C          -0.9565  -18.7654   19.9104 C.ar    1  UNL1        0.0328
     13 C          -0.4348  -17.3988   20.2429 C.ar    1  UNL1        0.1592
     14 F           0.9504  -17.0028   19.8257 F       1  UNL1       -0.2025
     15 C          -1.2986  -16.4283   20.9927 C.ar    1  UNL1        0.1283
     16 N          -2.6839  -16.8243   21.4099 N.ar    1  UNL1       -0.2415
     17 N         -10.2582  -18.0095   24.5197 N.3     1  UNL1       -0.1841
     18 H         -10.3327  -18.7263   25.2416 H       1  UNL1        0.1484
     19 S         -11.5780  -17.9730   23.8079 S.O2    1  UNL1        0.0390
     20 O         -12.0511  -19.1382   24.6254 O.2     1  UNL1       -0.1576
     21 O         -11.1048  -16.8077   22.9905 O.2     1  UNL1       -0.1576
     22 C         -14.1744  -18.0358   23.8774 C.3     1  UNL1        0.0270
     23 C         -12.8979  -17.9365   23.0961 C.3     1  UNL1        0.1457
     24 C         -12.9411  -17.8007   21.6029 C.3     1  UNL1        0.0270
@<TRIPOS>BOND
     1    22    23    1
     2    23    24    1
     3    23    19    1
     4    19    20    2
     5    19    21    2
     6    19    17    1
     7    17     1    1
     8     1     2    1
     9     2     3    1
    10     3     4   ar
    11     4     5   ar
    12     5     6   ar
    13     6    10    1
    14    10    11   ar
    15    11    12   ar
    16    12    13   ar
    17    13    14    1
    18    13    15   ar
    19    15    16   ar
    20     6     7   ar
    21     7     8   ar
    22     8     9    1
    23     9     1    1
    24     8     3   ar
    25    16    10   ar
    26    17    18    1
@<TRIPOS>MOLECULE
*****
 24 26 0 0 0
SMALL
GASTEIGER

@<TRIPOS>ATOM
      1 C          -9.9715  -19.3490   21.2312 C.3     1  UNL1        0.0838
      2 C          -9.2052  -20.1999   22.2002 C.3     1  UNL1        0.0437
      3 C          -7.7422  -19.9976   21.9384 C.ar    1  UNL1       -0.0247
      4 C          -6.5178  -20.5759   22.5836 C.ar    1  UNL1       -0.0045
      5 C          -5.1554  -20.1784   22.0980 C.ar    1  UNL1        0.0012
      6 C          -5.0174  -19.2025   20.9673 C.ar    1  UNL1        0.0173
      7 C          -6.2418  -18.6241   20.3221 C.ar    1  UNL1       -0.0030
      8 C          -7.6042  -19.0217   20.8077 C.ar    1  UNL1       -0.0246
      9 C          -8.9820  -18.6208   20.3706 C.3     1  UNL1        0.0438
     10 C          -3.6549  -18.8049   20.4817 C.ar    1  UNL1        0.0815
     11 C          -2.4390  -19.1618   21.2843 C.ar    1  UNL1        0.0215
     12 C          -1.0766  -18.7642   20.7988 C.ar    1  UNL1        0.0328
     13 C          -0.9301  -18.0098   19.5106 C.ar    1  UNL1        0.1592
     14 F           0.4323  -17.6123   19.0250 F       1  UNL1       -0.2025
     15 C          -2.1461  -17.6529   18.7080 C.ar    1  UNL1        0.1283
     16 N          -3.5084  -18.0505   19.1935 N.ar    1  UNL1       -0.2415
     17 N         -11.4650  -19.2446   21.1391 N.3     1  UNL1       -0.1841
     18 H         -11.6842  -19.0016   20.1730 H       1  UNL1        0.1484
     19 S         -12.2039  -18.2711   22.0087 S.O2    1  UNL1        0.0390
     20 O         -12.5964  -17.4838   20.7938 O.2     1  UNL1       -0.1576
     21 O         -11.8114  -19.0584   23.2236 O.2     1  UNL1       -0.1576
     22 C         -13.8775  -17.7988   23.9390 C.3     1  UNL1        0.0270
     23 C         -12.9428  -17.2975   22.8783 C.3     1  UNL1        0.1457
     24 C         -12.7470  -15.8227   22.6873 C.3     1  UNL1        0.0270
@<TRIPOS>BOND
     1    22    23    1
     2    23    24    1
     3    23    19    1
     4    19    20    2
     5    19    21    2
     6    19    17    1
     7    17     1    1
     8     1     2    1
     9     2     3    1
    10     3     4   ar
    11     4     5   ar
    12     5     6   ar
    13     6    10    1
    14    10    11   ar
    15    11    12   ar
    16    12    13   ar
    17    13    14    1
    18    13    15   ar
    19    15    16   ar
    20     6     7   ar
    21     7     8   ar
    22     8     9    1
    23     9     1    1
    24     8     3   ar
    25    16    10   ar
    26    17    18    1
@<TRIPOS>MOLECULE
*****
 24 26 0 0 0
SMALL
GASTEIGER

@<TRIPOS>ATOM
      1 C          -9.3337  -19.0203   23.0742 C.3     1  UNL1        0.0838
      2 C          -8.8014  -17.8079   23.7790 C.3     1  UNL1        0.0437
      3 C          -7.3702  -17.6244   23.3691 C.ar    1  UNL1       -0.0247
      4 C          -6.3423  -16.5986   23.7446 C.ar    1  UNL1       -0.0045
      5 C          -4.9621  -16.6717   23.1619 C.ar    1  UNL1        0.0012
      6 C          -4.6098  -17.7708   22.2037 C.ar    1  UNL1        0.0173
      7 C          -5.6377  -18.7966   21.8283 C.ar    1  UNL1       -0.0030
      8 C          -7.0179  -18.7234   22.4110 C.ar    1  UNL1       -0.0246
      9 C          -8.2314  -19.5861   22.2288 C.3     1  UNL1        0.0438
     10 C          -3.2295  -17.8439   21.6210 C.ar    1  UNL1        0.0815
     11 C          -2.6093  -19.1776   21.3269 C.ar    1  UNL1        0.0215
     12 C          -1.2290  -19.2508   20.7442 C.ar    1  UNL1        0.0328
     13 C          -0.4690  -17.9902   20.4556 C.ar    1  UNL1        0.1592
     14 F           0.9113  -18.0633   19.8729 F       1  UNL1       -0.2025
     15 C          -1.0893  -16.6564   20.7497 C.ar    1  UNL1        0.1283
     16 N          -2.4695  -16.5833   21.3324 N.ar    1  UNL1       -0.2415
     17 N         -10.7241  -19.5704   23.1939 N.3     1  UNL1       -0.1841
     18 H         -10.8755  -20.1675   22.3810 H       1  UNL1        0.1484
     19 S         -11.8959  -18.6371   23.2699 S.O2    1  UNL1        0.0390
     20 O         -11.7915  -18.3860   21.7947 O.2     1  UNL1       -0.1576
     21 O         -12.0003  -18.8882   24.7450 O.2     1  UNL1       -0.1576
     22 C         -13.0513  -16.4152   22.5780 C.3     1  UNL1        0.0270
     23 C         -13.0677  -17.7037   23.3458 C.3     1  UNL1        0.1457
     24 C         -14.2560  -18.0590   24.1894 C.3     1  UNL1        0.0270
@<TRIPOS>BOND
     1    22    23    1
     2    23    24    1
     3    23    19    1
     4    19    20    2
     5    19    21    2
     6    19    17    1
     7    17     1    1
     8     1     2    1
     9     2     3    1
    10     3     4   ar
    11     4     5   ar
    12     5     6   ar
    13     6    10    1
    14    10    11   ar
    15    11    12   ar
    16    12    13   ar
    17    13    14    1
    18    13    15   ar
    19    15    16   ar
    20     6     7   ar
    21     7     8   ar
    22     8     9    1
    23     9     1    1
    24     8     3   ar
    25    16    10   ar
    26    17    18    1
@<TRIPOS>MOLECULE
*****
 24 26 0 0 0
SMALL
GASTEIGER

@<TRIPOS>ATOM
      1 C           4.4491    1.2687   36.4512 C.3     1  UNL1        0.0838
      2 C           4.4845    1.9795   35.1308 C.3     1  UNL1        0.0437
      3 C           4.8844    0.9862   34.0802 C.ar    1  UNL1       -0.0247
      4 C           5.0831    1.1168   32.5992 C.ar    1  UNL1       -0.0045
      5 C           5.4934   -0.0772   31.7894 C.ar    1  UNL1        0.0012
      6 C           5.7051   -1.4019   32.4606 C.ar    1  UNL1        0.0173
      7 C           5.5064   -1.5325   33.9416 C.ar    1  UNL1       -0.0030
      8 C           5.0960   -0.3385   34.7514 C.ar    1  UNL1       -0.0246
      9 C           4.8270   -0.1638   36.2167 C.3     1  UNL1        0.0438
     10 C           6.1155   -2.5959   31.6507 C.ar    1  UNL1        0.0815
     11 C           6.5006   -3.8721   32.3383 C.ar    1  UNL1        0.0215
     12 C           6.9110   -5.0662   31.5284 C.ar    1  UNL1        0.0328
     13 C           6.9362   -4.9840   30.0309 C.ar    1  UNL1        0.1592
     14 F           7.3465   -6.1780   29.2210 F       1  UNL1       -0.2025
     15 C           6.5510   -3.7077   29.3433 C.ar    1  UNL1        0.1283
     16 N           6.1407   -2.5137   30.1532 N.ar    1  UNL1       -0.2415
     17 N           4.0974    1.8827   37.7738 N.3     1  UNL1       -0.1841
     18 H           4.8337    1.6158   38.4274 H       1  UNL1        0.1484
     19 S           2.7918    1.5486   38.4324 S.O2    1  UNL1        0.0390
     20 O           2.0534    2.1351   37.2659 O.2     1  UNL1       -0.1576
     21 O           3.5303    0.9621   39.5988 O.2     1  UNL1       -0.1576
     22 C           1.2397   -0.1720   39.6073 C.3     1  UNL1        0.0270
     23 C           1.4861    1.2145   39.0909 C.3     1  UNL1        0.1457
     24 C           0.4269    2.2670   39.2330 C.3     1  UNL1        0.0270
@<TRIPOS>BOND
     1    22    23    1
     2    23    24    1
     3    23    19    1
     4    19    20    2
     5    19    21    2
     6    19    17    1
     7    17     1    1
     8     1     2    1
     9     2     3    1
    10     3     4   ar
    11     4     5   ar
    12     5     6   ar
    13     6    10    1
    14    10    11   ar
    15    11    12   ar
    16    12    13   ar
    17    13    14    1
    18    13    15   ar
    19    15    16   ar
    20     6     7   ar
    21     7     8   ar
    22     8     9    1
    23     9     1    1
    24     8     3   ar
    25    16    10   ar
    26    17    18    1
