@<TRIPOS>MOLECULE
*****
 28 30 0 0 0
SMALL
GASTEIGER

@<TRIPOS>ATOM
      1 C          -8.4125  -16.4883   23.9413 C.ar    1  UNL1        0.1363
      2 C          -8.4633  -15.3783   24.9488 C.ar    1  UNL1        0.0366
      3 C          -7.1905  -14.8032   25.4959 C.ar    1  UNL1        0.0028
      4 C          -5.8670  -15.3381   25.0355 C.ar    1  UNL1       -0.0043
      5 C          -5.8162  -16.4482   24.0280 C.ar    1  UNL1       -0.0197
      6 C          -7.0890  -17.0233   23.4809 C.ar    1  UNL1        0.0300
      7 C          -7.0381  -18.1334   22.4733 C.3     1  UNL1        0.1231
      8 N          -5.7146  -18.6684   22.0129 N.am    1  UNL1       -0.2721
      9 C          -5.6638  -19.7785   21.0054 C.2     1  UNL1        0.2422
     10 O          -6.9366  -20.3536   20.4583 O.2     1  UNL1       -0.2733
     11 C          -4.4418  -18.0933   22.5600 C.3     1  UNL1        0.0987
     12 C          -4.4926  -16.9832   23.5675 C.3     1  UNL1        0.0477
     13 C          -8.3109  -18.7085   21.9262 C.ar    1  UNL1       -0.0000
     14 C          -9.0549  -19.7554   22.7013 C.ar    1  UNL1       -0.0023
     15 C         -10.3277  -20.3305   22.1542 C.ar    1  UNL1       -0.0003
     16 C         -10.8564  -19.8588   20.8321 C.ar    1  UNL1       -0.0000
     17 C         -10.1125  -18.8119   20.0571 C.ar    1  UNL1       -0.0003
     18 C          -8.8397  -18.2368   20.6042 C.ar    1  UNL1       -0.0023
     19 C         -10.7903  -16.1516   22.9502 C.3     1  UNL1        0.2525
     20 O          -9.6853  -17.0634   23.3942 O.3     1  UNL1       -0.4717
     21 C          -4.3403  -20.3135   20.5449 C.3     1  UNL1        0.1552
     22 N          -3.6761  -19.7300   19.3332 N.3     1  UNL1       -0.2878
     23 H          -4.3495  -19.7923   18.5696 H       1  UNL1        0.1238
     24 C          -3.1795  -18.3148   19.3583 C.3     1  UNL1        0.0985
     25 C          -1.7366  -18.0211   19.0728 C.3     1  UNL1        0.1263
     26 C          -0.7472  -17.9570   20.1984 C.3     1  UNL1        0.0332
     27 O          -1.2829  -17.7914   17.6616 O.3     1  UNL1       -0.3830
     28 H          -2.0413  -17.8679   17.0617 H       1  UNL1        0.2104
@<TRIPOS>BOND
     1    19    20    1
     2    20     1    1
     3     1     2   ar
     4     2     3   ar
     5     3     4   ar
     6     4     5   ar
     7     5     6   ar
     8     6     7    1
     9     7    13    1
    10    13    14   ar
    11    14    15   ar
    12    15    16   ar
    13    16    17   ar
    14    17    18   ar
    15     7     8    1
    16     8     9   am
    17     9    10    2
    18     9    21    1
    19    21    22    1
    20    22    24    1
    21    24    25    1
    22    25    26    1
    23    25    27    1
    24     8    11    1
    25    11    12    1
    26     6     1   ar
    27    18    13   ar
    28    12     5    1
    29    22    23    1
    30    27    28    1
@<TRIPOS>MOLECULE
*****
 28 30 0 0 0
SMALL
GASTEIGER

@<TRIPOS>ATOM
      1 C          -7.3274  -19.5725   20.9573 C.ar    1  UNL1        0.1363
      2 C          -6.7992  -20.7159   20.1427 C.ar    1  UNL1        0.0366
      3 C          -5.3324  -21.0298   20.1534 C.ar    1  UNL1        0.0028
      4 C          -4.3939  -20.2004   20.9787 C.ar    1  UNL1       -0.0043
      5 C          -4.9221  -19.0571   21.7933 C.ar    1  UNL1       -0.0197
      6 C          -6.3888  -18.7431   21.7826 C.ar    1  UNL1        0.0300
      7 C          -6.9170  -17.5996   22.5973 C.3     1  UNL1        0.1231
      8 N          -5.9785  -16.7702   23.4226 N.am    1  UNL1       -0.2721
      9 C          -6.5066  -15.6268   24.2373 C.2     1  UNL1        0.2422
     10 O          -7.9734  -15.3128   24.2266 O.2     1  UNL1       -0.2733
     11 C          -4.5117  -17.0842   23.4333 C.3     1  UNL1        0.0987
     12 C          -3.9835  -18.2276   22.6187 C.3     1  UNL1        0.0477
     13 C          -8.3837  -17.2856   22.5866 C.ar    1  UNL1       -0.0000
     14 C          -8.9374  -16.3236   21.5776 C.ar    1  UNL1       -0.0023
     15 C         -10.4042  -16.0096   21.5669 C.ar    1  UNL1       -0.0003
     16 C         -11.3172  -16.6577   22.5652 C.ar    1  UNL1       -0.0000
     17 C         -10.7635  -17.6197   23.5741 C.ar    1  UNL1       -0.0003
     18 C          -9.2968  -17.9337   23.5848 C.ar    1  UNL1       -0.0023
     19 C          -9.6086  -19.5224   19.7150 C.3     1  UNL1        0.2525
     20 O          -8.7941  -19.2585   20.9466 O.3     1  UNL1       -0.4717
     21 C          -5.5681  -14.7974   25.0626 C.3     1  UNL1        0.1552
     22 N          -5.8580  -14.5579   26.5147 N.3     1  UNL1       -0.2878
     23 H          -6.4697  -13.7431   26.5624 H       1  UNL1        0.1238
     24 C          -6.5038  -15.6329   27.3378 C.3     1  UNL1        0.0985
     25 C          -7.9974  -15.6832   27.4671 C.3     1  UNL1        0.1263
     26 C          -8.7316  -16.9613   27.1895 C.3     1  UNL1        0.0332
     27 O          -8.7567  -14.4552   27.8742 O.3     1  UNL1       -0.3830
     28 H          -8.1362  -13.7229   28.0141 H       1  UNL1        0.2104
@<TRIPOS>BOND
     1    19    20    1
     2    20     1    1
     3     1     2   ar
     4     2     3   ar
     5     3     4   ar
     6     4     5   ar
     7     5     6   ar
     8     6     7    1
     9     7    13    1
    10    13    14   ar
    11    14    15   ar
    12    15    16   ar
    13    16    17   ar
    14    17    18   ar
    15     7     8    1
    16     8     9   am
    17     9    10    2
    18     9    21    1
    19    21    22    1
    20    22    24    1
    21    24    25    1
    22    25    26    1
    23    25    27    1
    24     8    11    1
    25    11    12    1
    26     6     1   ar
    27    18    13   ar
    28    12     5    1
    29    22    23    1
    30    27    28    1
@<TRIPOS>MOLECULE
*****
 28 30 0 0 0
SMALL
GASTEIGER

@<TRIPOS>ATOM
      1 C          -9.5501  -18.1861   21.2371 C.ar    1  UNL1        0.1363
      2 C         -10.5193  -18.7511   20.2415 C.ar    1  UNL1        0.0366
      3 C         -10.0376  -19.6900   19.1754 C.ar    1  UNL1        0.0028
      4 C          -8.5866  -20.0637   19.1049 C.ar    1  UNL1       -0.0043
      5 C          -7.6174  -19.4987   20.1006 C.ar    1  UNL1       -0.0197
      6 C          -8.0992  -18.5599   21.1667 C.ar    1  UNL1        0.0300
      7 C          -7.1299  -17.9949   22.1623 C.3     1  UNL1        0.1231
      8 N          -5.6789  -18.3686   22.0919 N.am    1  UNL1       -0.2721
      9 C          -4.7097  -17.8036   23.0876 C.2     1  UNL1        0.2422
     10 O          -5.1914  -16.8648   24.1537 O.2     1  UNL1       -0.2733
     11 C          -5.1972  -19.3074   21.0258 C.3     1  UNL1        0.0987
     12 C          -6.1664  -19.8725   20.0301 C.3     1  UNL1        0.0477
     13 C          -7.6116  -17.0560   23.2284 C.ar    1  UNL1       -0.0000
     14 C          -7.4642  -15.5745   23.0456 C.ar    1  UNL1       -0.0023
     15 C          -7.9459  -14.6357   24.1117 C.ar    1  UNL1       -0.0003
     16 C          -8.5751  -15.1784   25.3606 C.ar    1  UNL1       -0.0000
     17 C          -8.7225  -16.6599   25.5434 C.ar    1  UNL1       -0.0003
     18 C          -8.2408  -17.5987   24.4773 C.ar    1  UNL1       -0.0023
     19 C         -11.1498  -16.2909   22.0110 C.3     1  UNL1        0.2525
     20 O         -10.0319  -17.2473   22.3032 O.3     1  UNL1       -0.4717
     21 C          -3.2587  -18.1774   23.0171 C.3     1  UNL1        0.1552
     22 N          -2.2380  -17.1506   22.6251 N.3     1  UNL1       -0.2878
     23 H          -1.3321  -17.5029   22.9345 H       1  UNL1        0.1238
     24 C          -2.0818  -16.7598   21.1853 C.3     1  UNL1        0.0985
     25 C          -1.3087  -17.6402   20.2488 C.3     1  UNL1        0.1263
     26 C          -1.9213  -18.0747   18.9504 C.3     1  UNL1        0.0332
     27 O           0.0770  -18.0861   20.6107 O.3     1  UNL1       -0.3830
     28 H           0.3192  -17.7194   21.4754 H       1  UNL1        0.2104
@<TRIPOS>BOND
     1    19    20    1
     2    20     1    1
     3     1     2   ar
     4     2     3   ar
     5     3     4   ar
     6     4     5   ar
     7     5     6   ar
     8     6     7    1
     9     7    13    1
    10    13    14   ar
    11    14    15   ar
    12    15    16   ar
    13    16    17   ar
    14    17    18   ar
    15     7     8    1
    16     8     9   am
    17     9    10    2
    18     9    21    1
    19    21    22    1
    20    22    24    1
    21    24    25    1
    22    25    26    1
    23    25    27    1
    24     8    11    1
    25    11    12    1
    26     6     1   ar
    27    18    13   ar
    28    12     5    1
    29    22    23    1
    30    27    28    1
@<TRIPOS>MOLECULE
*****
 28 30 0 0 0
SMALL
GASTEIGER

@<TRIPOS>ATOM
      1 C          -5.6267  -16.9510   23.4685 C.ar    1  UNL1        0.1363
      2 C          -4.7846  -16.0014   24.2679 C.ar    1  UNL1        0.0366
      3 C          -5.4372  -15.0116   25.1868 C.ar    1  UNL1        0.0028
      4 C          -6.9318  -14.9714   25.3064 C.ar    1  UNL1       -0.0043
      5 C          -7.7739  -15.9211   24.5070 C.ar    1  UNL1       -0.0197
      6 C          -7.1213  -16.9109   23.5881 C.ar    1  UNL1        0.0300
      7 C          -7.9635  -17.8606   22.7887 C.3     1  UNL1        0.1231
      8 N          -9.4581  -17.8204   22.9083 N.am    1  UNL1       -0.2721
      9 C         -10.3003  -18.7701   22.1089 C.2     1  UNL1        0.2422
     10 O          -9.6477  -19.7599   21.1900 O.2     1  UNL1       -0.2733
     11 C         -10.1107  -16.8306   23.8272 C.3     1  UNL1        0.0987
     12 C          -9.2686  -15.8810   24.6266 C.3     1  UNL1        0.0477
     13 C          -7.3109  -18.8504   21.8698 C.ar    1  UNL1       -0.0000
     14 C          -7.0967  -18.5052   20.4258 C.ar    1  UNL1       -0.0023
     15 C          -6.4441  -19.4950   19.5069 C.ar    1  UNL1       -0.0003
     16 C          -6.0057  -20.8300   20.0320 C.ar    1  UNL1       -0.0000
     17 C          -6.2199  -21.1752   21.4759 C.ar    1  UNL1       -0.0003
     18 C          -6.8725  -20.1854   22.3948 C.ar    1  UNL1       -0.0023
     19 C          -3.4993  -18.1963   22.6478 C.3     1  UNL1        0.2525
     20 O          -4.9741  -17.9409   22.5496 O.3     1  UNL1       -0.4717
     21 C         -11.7950  -18.7300   22.2285 C.3     1  UNL1        0.1552
     22 N         -12.6111  -18.0140   21.1935 N.3     1  UNL1       -0.2878
     23 H         -13.5803  -18.2997   21.3334 H       1  UNL1        0.1238
     24 C         -12.6052  -16.5150   21.1387 C.3     1  UNL1        0.0985
     25 C         -11.8069  -15.8062   20.0850 C.3     1  UNL1        0.1263
     26 C         -10.3551  -15.5089   20.3172 C.3     1  UNL1        0.0332
     27 O         -12.4604  -15.3946   18.7991 O.3     1  UNL1       -0.3830
     28 H         -13.3933  -15.6601   18.8111 H       1  UNL1        0.2104
@<TRIPOS>BOND
     1    19    20    1
     2    20     1    1
     3     1     2   ar
     4     2     3   ar
     5     3     4   ar
     6     4     5   ar
     7     5     6   ar
     8     6     7    1
     9     7    13    1
    10    13    14   ar
    11    14    15   ar
    12    15    16   ar
    13    16    17   ar
    14    17    18   ar
    15     7     8    1
    16     8     9   am
    17     9    10    2
    18     9    21    1
    19    21    22    1
    20    22    24    1
    21    24    25    1
    22    25    26    1
    23    25    27    1
    24     8    11    1
    25    11    12    1
    26     6     1   ar
    27    18    13   ar
    28    12     5    1
    29    22    23    1
    30    27    28    1
@<TRIPOS>MOLECULE
*****
 28 30 0 0 0
SMALL
GASTEIGER

@<TRIPOS>ATOM
      1 C          -5.3408  -17.1495   23.6820 C.ar    1  UNL1        0.1363
      2 C          -4.6870  -16.3296   24.7544 C.ar    1  UNL1        0.0366
      3 C          -5.4707  -15.2706   25.4716 C.ar    1  UNL1        0.0028
      4 C          -6.9082  -15.0315   25.1163 C.ar    1  UNL1       -0.0043
      5 C          -7.5621  -15.8514   24.0438 C.ar    1  UNL1       -0.0197
      6 C          -6.7783  -16.9104   23.3267 C.ar    1  UNL1        0.0300
      7 C          -7.4322  -17.7304   22.2542 C.3     1  UNL1        0.1231
      8 N          -8.8698  -17.4913   21.8989 N.am    1  UNL1       -0.2721
      9 C          -9.5237  -18.3112   20.8263 C.2     1  UNL1        0.2422
     10 O          -8.7400  -19.3702   20.1092 O.2     1  UNL1       -0.2733
     11 C          -9.6535  -16.4323   22.6160 C.3     1  UNL1        0.0987
     12 C          -8.9997  -15.6124   23.6885 C.3     1  UNL1        0.0477
     13 C          -6.6485  -18.7894   21.5370 C.ar    1  UNL1       -0.0000
     14 C          -5.8419  -18.4330   20.3235 C.ar    1  UNL1       -0.0023
     15 C          -5.0582  -19.4920   19.6064 C.ar    1  UNL1       -0.0003
     16 C          -5.0811  -20.9074   20.1027 C.ar    1  UNL1       -0.0000
     17 C          -5.8877  -21.2637   21.3161 C.ar    1  UNL1       -0.0003
     18 C          -6.6714  -20.2047   22.0332 C.ar    1  UNL1       -0.0023
     19 C          -3.0875  -18.0232   22.7284 C.3     1  UNL1        0.2525
     20 O          -4.5571  -18.2085   22.9648 O.3     1  UNL1       -0.4717
     21 C         -10.9612  -18.0721   20.4710 C.3     1  UNL1        0.1552
     22 N         -12.0507  -18.6749   21.3074 N.3     1  UNL1       -0.2878
     23 H         -11.6121  -19.3824   21.8969 H       1  UNL1        0.1238
     24 C         -12.8700  -17.8039   22.2131 C.3     1  UNL1        0.0985
     25 C         -12.9842  -18.1360   23.6714 C.3     1  UNL1        0.1263
     26 C         -11.8057  -18.7031   24.4059 C.3     1  UNL1        0.0332
     27 O         -14.2769  -17.9011   24.3951 O.3     1  UNL1       -0.3830
     28 H         -14.9301  -17.5339   23.7792 H       1  UNL1        0.2104
@<TRIPOS>BOND
     1    19    20    1
     2    20     1    1
     3     1     2   ar
     4     2     3   ar
     5     3     4   ar
     6     4     5   ar
     7     5     6   ar
     8     6     7    1
     9     7    13    1
    10    13    14   ar
    11    14    15   ar
    12    15    16   ar
    13    16    17   ar
    14    17    18   ar
    15     7     8    1
    16     8     9   am
    17     9    10    2
    18     9    21    1
    19    21    22    1
    20    22    24    1
    21    24    25    1
    22    25    26    1
    23    25    27    1
    24     8    11    1
    25    11    12    1
    26     6     1   ar
    27    18    13   ar
    28    12     5    1
    29    22    23    1
    30    27    28    1
@<TRIPOS>MOLECULE
*****
 28 30 0 0 0
SMALL
GASTEIGER

@<TRIPOS>ATOM
      1 C           2.5020   -0.7010   21.5254 C.ar    1  UNL1        0.1363
      2 C           1.4707    0.3822   21.6393 C.ar    1  UNL1        0.0366
      3 C           1.2326    1.0553   22.9585 C.ar    1  UNL1        0.0028
      4 C           2.0258    0.6453   24.1637 C.ar    1  UNL1       -0.0043
      5 C           3.0571   -0.4379   24.0498 C.ar    1  UNL1       -0.0197
      6 C           3.2952   -1.1110   22.7306 C.ar    1  UNL1        0.0300
      7 C           4.3266   -2.1943   22.6167 C.3     1  UNL1        0.1231
      8 N           5.1198   -2.6044   23.8219 N.am    1  UNL1       -0.2721
      9 C           6.1512   -3.6876   23.7080 C.2     1  UNL1        0.2422
     10 O           6.3893   -4.3607   22.3888 O.2     1  UNL1       -0.2733
     11 C           4.8817   -1.9312   25.1411 C.3     1  UNL1        0.0987
     12 C           3.8504   -0.8481   25.2550 C.3     1  UNL1        0.0477
     13 C           4.5647   -2.8674   21.2975 C.ar    1  UNL1       -0.0000
     14 C           3.7705   -4.0831   20.9217 C.ar    1  UNL1       -0.0023
     15 C           4.0086   -4.7563   19.6025 C.ar    1  UNL1       -0.0003
     16 C           5.0409   -4.2136   18.6592 C.ar    1  UNL1       -0.0000
     17 C           5.8351   -2.9979   19.0350 C.ar    1  UNL1       -0.0003
     18 C           5.5970   -2.3248   20.3542 C.ar    1  UNL1       -0.0023
     19 C           2.7448   -0.5665   18.9422 C.3     1  UNL1        0.2525
     20 O           2.7401   -1.3741   20.2062 O.3     1  UNL1       -0.4717
     21 C           6.9444   -4.0977   24.9132 C.3     1  UNL1        0.1552
     22 N           6.3581   -5.0571   25.9060 N.3     1  UNL1       -0.2878
     23 H           5.6163   -5.5639   25.4230 H       1  UNL1        0.1238
     24 C           7.2313   -6.0867   26.5599 C.3     1  UNL1        0.0985
     25 C           7.3940   -7.4396   25.9329 C.3     1  UNL1        0.1263
     26 C           8.2749   -7.6079   24.7306 C.3     1  UNL1        0.0332
     27 O           6.6758   -8.6242   26.5082 O.3     1  UNL1       -0.3830
     28 H           6.1536   -8.3440   27.2761 H       1  UNL1        0.2104
@<TRIPOS>BOND
     1    19    20    1
     2    20     1    1
     3     1     2   ar
     4     2     3   ar
     5     3     4   ar
     6     4     5   ar
     7     5     6   ar
     8     6     7    1
     9     7    13    1
    10    13    14   ar
    11    14    15   ar
    12    15    16   ar
    13    16    17   ar
    14    17    18   ar
    15     7     8    1
    16     8     9   am
    17     9    10    2
    18     9    21    1
    19    21    22    1
    20    22    24    1
    21    24    25    1
    22    25    26    1
    23    25    27    1
    24     8    11    1
    25    11    12    1
    26     6     1   ar
    27    18    13   ar
    28    12     5    1
    29    22    23    1
    30    27    28    1
@<TRIPOS>MOLECULE
*****
 28 30 0 0 0
SMALL
GASTEIGER

@<TRIPOS>ATOM
      1 C           2.4319   -0.6085   21.2198 C.ar    1  UNL1        0.1363
      2 C           1.4093    0.4870   21.2839 C.ar    1  UNL1        0.0366
      3 C           1.0927    1.1416   22.5959 C.ar    1  UNL1        0.0028
      4 C           1.7986    0.7007   23.8437 C.ar    1  UNL1       -0.0043
      5 C           2.8212   -0.3948   23.7796 C.ar    1  UNL1       -0.0197
      6 C           3.1378   -1.0494   22.4677 C.ar    1  UNL1        0.0300
      7 C           4.1605   -2.1450   22.4037 C.3     1  UNL1        0.1231
      8 N           4.8664   -2.5859   23.6515 N.am    1  UNL1       -0.2721
      9 C           5.8890   -3.6815   23.5875 C.2     1  UNL1        0.2422
     10 O           6.2057   -4.3361   22.2756 O.2     1  UNL1       -0.2733
     11 C           4.5497   -1.9313   24.9635 C.3     1  UNL1        0.0987
     12 C           3.5272   -0.8358   25.0276 C.3     1  UNL1        0.0477
     13 C           4.4772   -2.7996   21.0917 C.ar    1  UNL1       -0.0000
     14 C           5.5651   -2.2454   20.2203 C.ar    1  UNL1       -0.0023
     15 C           5.8818   -2.9000   18.9083 C.ar    1  UNL1       -0.0003
     16 C           5.1105   -4.1088   18.4678 C.ar    1  UNL1       -0.0000
     17 C           4.0226   -4.6629   19.3392 C.ar    1  UNL1       -0.0003
     18 C           3.7059   -4.0083   20.6512 C.ar    1  UNL1       -0.0023
     19 C           2.8487   -0.4349   18.6613 C.3     1  UNL1        0.2525
     20 O           2.7486   -1.2631   19.9079 O.3     1  UNL1       -0.4717
     21 C           6.5950   -4.1224   24.8354 C.3     1  UNL1        0.1552
     22 N           7.3306   -5.4293   24.8589 N.3     1  UNL1       -0.2878
     23 H           8.2941   -5.2298   24.5901 H       1  UNL1        0.1238
     24 C           7.3916   -6.2330   26.1240 C.3     1  UNL1        0.0985
     25 C           6.8700   -5.6546   27.4059 C.3     1  UNL1        0.1263
     26 C           7.7886   -4.8899   28.3122 C.3     1  UNL1        0.0332
     27 O           5.4298   -5.8409   27.7815 O.3     1  UNL1       -0.3830
     28 H           4.9796   -6.3538   27.0922 H       1  UNL1        0.2104
@<TRIPOS>BOND
     1    19    20    1
     2    20     1    1
     3     1     2   ar
     4     2     3   ar
     5     3     4   ar
     6     4     5   ar
     7     5     6   ar
     8     6     7    1
     9     7    13    1
    10    13    14   ar
    11    14    15   ar
    12    15    16   ar
    13    16    17   ar
    14    17    18   ar
    15     7     8    1
    16     8     9   am
    17     9    10    2
    18     9    21    1
    19    21    22    1
    20    22    24    1
    21    24    25    1
    22    25    26    1
    23    25    27    1
    24     8    11    1
    25    11    12    1
    26     6     1   ar
    27    18    13   ar
    28    12     5    1
    29    22    23    1
    30    27    28    1
@<TRIPOS>MOLECULE
*****
 28 30 0 0 0
SMALL
GASTEIGER

@<TRIPOS>ATOM
      1 C           3.5594   -1.8154   19.9247 C.ar    1  UNL1        0.1363
      2 C           4.3040   -2.9600   19.3040 C.ar    1  UNL1        0.0366
      3 C           5.0557   -3.9248   20.1724 C.ar    1  UNL1        0.0028
      4 C           5.0628   -3.7450   21.6615 C.ar    1  UNL1       -0.0043
      5 C           4.3181   -2.6004   22.2822 C.ar    1  UNL1       -0.0197
      6 C           3.5665   -1.6356   21.4138 C.ar    1  UNL1        0.0300
      7 C           2.8218   -0.4909   22.0346 C.3     1  UNL1        0.1231
      8 N           2.8288   -0.3111   23.5238 N.am    1  UNL1       -0.2721
      9 C           2.0842    0.8335   24.1446 C.2     1  UNL1        0.2422
     10 O           1.3325    1.7983   23.2762 O.2     1  UNL1       -0.2733
     11 C           3.5805   -1.2759   24.3922 C.3     1  UNL1        0.0987
     12 C           4.3251   -2.4205   23.7715 C.3     1  UNL1        0.0477
     13 C           2.0701    0.4739   21.1662 C.ar    1  UNL1       -0.0000
     14 C           0.6281    0.2218   20.8388 C.ar    1  UNL1       -0.0023
     15 C          -0.1236    1.1866   19.9704 C.ar    1  UNL1       -0.0003
     16 C           0.5668    2.4035   19.4294 C.ar    1  UNL1       -0.0000
     17 C           2.0087    2.6556   19.7569 C.ar    1  UNL1       -0.0003
     18 C           2.7604    1.6908   20.6253 C.ar    1  UNL1       -0.0023
     19 C           3.3656   -0.4502   17.7228 C.3     1  UNL1        0.2525
     20 O           2.8077   -0.8506   19.0563 O.3     1  UNL1       -0.4717
     21 C           2.0912    1.0133   25.6337 C.3     1  UNL1        0.1552
     22 N           0.9251    0.5429   26.4514 N.3     1  UNL1       -0.2878
     23 H           0.9671   -0.4761   26.4653 H       1  UNL1        0.1238
     24 C           0.7789    0.9898   27.8759 C.3     1  UNL1        0.0985
     25 C           0.2269    0.0479   28.9045 C.3     1  UNL1        0.1263
     26 C          -1.2459   -0.2324   28.9511 C.3     1  UNL1        0.0332
     27 O           1.1477   -0.6137   29.8866 O.3     1  UNL1       -0.3830
     28 H           2.0590   -0.3261   29.7198 H       1  UNL1        0.2104
@<TRIPOS>BOND
     1    19    20    1
     2    20     1    1
     3     1     2   ar
     4     2     3   ar
     5     3     4   ar
     6     4     5   ar
     7     5     6   ar
     8     6     7    1
     9     7    13    1
    10    13    14   ar
    11    14    15   ar
    12    15    16   ar
    13    16    17   ar
    14    17    18   ar
    15     7     8    1
    16     8     9   am
    17     9    10    2
    18     9    21    1
    19    21    22    1
    20    22    24    1
    21    24    25    1
    22    25    26    1
    23    25    27    1
    24     8    11    1
    25    11    12    1
    26     6     1   ar
    27    18    13   ar
    28    12     5    1
    29    22    23    1
    30    27    28    1
@<TRIPOS>MOLECULE
*****
 28 30 0 0 0
SMALL
GASTEIGER

@<TRIPOS>ATOM
      1 C           3.7995   -2.0462   19.4970 C.ar    1  UNL1        0.1363
      2 C           4.5054   -3.1505   18.7676 C.ar    1  UNL1        0.0366
      3 C           5.2996   -4.1671   19.5330 C.ar    1  UNL1        0.0028
      4 C           5.3880   -4.0793   21.0277 C.ar    1  UNL1       -0.0043
      5 C           4.6820   -2.9750   21.7572 C.ar    1  UNL1       -0.0197
      6 C           3.8878   -1.9584   20.9918 C.ar    1  UNL1        0.0300
      7 C           3.1819   -0.8541   21.7213 C.3     1  UNL1        0.1231
      8 N           3.2702   -0.7663   23.2161 N.am    1  UNL1       -0.2721
      9 C           2.5643    0.3380   23.9456 C.2     1  UNL1        0.2422
     10 O           1.7700    1.3546   23.1803 O.2     1  UNL1       -0.2733
     11 C           4.0644   -1.7829   23.9815 C.3     1  UNL1        0.0987
     12 C           4.7703   -2.8872   23.2520 C.3     1  UNL1        0.0477
     13 C           2.3876    0.1625   20.9560 C.ar    1  UNL1       -0.0000
     14 C           3.0390    1.4342   20.4993 C.ar    1  UNL1       -0.0023
     15 C           2.2447    2.4508   19.7340 C.ar    1  UNL1       -0.0003
     16 C           0.7992    2.1956   19.4252 C.ar    1  UNL1       -0.0000
     17 C           0.1479    0.9239   19.8819 C.ar    1  UNL1       -0.0003
     18 C           0.9421   -0.0927   20.6472 C.ar    1  UNL1       -0.0023
     19 C           3.4577   -0.5953   17.3691 C.3     1  UNL1        0.2525
     20 O           3.0052   -1.0296   18.7317 O.3     1  UNL1       -0.4717
     21 C           2.6526    0.4258   25.4404 C.3     1  UNL1        0.1552
     22 N           1.4000    0.4838   26.2636 N.3     1  UNL1       -0.2878
     23 H           0.9193   -0.4060   26.1314 H       1  UNL1        0.1238
     24 C           1.4850    0.7145   27.7433 C.3     1  UNL1        0.0985
     25 C           0.3561    0.2892   28.6347 C.3     1  UNL1        0.1263
     26 C          -1.0498    0.7014   28.3130 C.3     1  UNL1        0.0332
     27 O           0.6330   -0.5484   29.8479 O.3     1  UNL1       -0.3830
     28 H           1.5850   -0.7244   29.9089 H       1  UNL1        0.2104
@<TRIPOS>BOND
     1    19    20    1
     2    20     1    1
     3     1     2   ar
     4     2     3   ar
     5     3     4   ar
     6     4     5   ar
     7     5     6   ar
     8     6     7    1
     9     7    13    1
    10    13    14   ar
    11    14    15   ar
    12    15    16   ar
    13    16    17   ar
    14    17    18   ar
    15     7     8    1
    16     8     9   am
    17     9    10    2
    18     9    21    1
    19    21    22    1
    20    22    24    1
    21    24    25    1
    22    25    26    1
    23    25    27    1
    24     8    11    1
    25    11    12    1
    26     6     1   ar
    27    18    13   ar
    28    12     5    1
    29    22    23    1
    30    27    28    1
