@<TRIPOS>MOLECULE
*****
 33 36 0 0 0
SMALL
GASTEIGER

@<TRIPOS>ATOM
      1 C          -9.0922  -19.4639   23.2650 C.2     1  UNL1        0.2665
      2 O          -9.9407  -20.6812   23.4846 O.2     1  UNL1       -0.2710
      3 N          -9.5671  -18.1229   23.7402 N.am    1  UNL1       -0.2714
      4 C         -10.8907  -17.9990   24.4351 C.3     1  UNL1        0.1153
      5 C          -3.1381  -19.5088   20.7847 C.ar    1  UNL1        0.0502
      6 C          -3.7404  -20.4769   19.8100 C.ar    1  UNL1        0.0178
      7 C          -5.1878  -20.8537   19.9244 C.ar    1  UNL1        0.0379
      8 C          -6.0329  -20.2624   21.0135 C.ar    1  UNL1        0.1353
      9 C          -5.4306  -19.2943   21.9882 C.ar    1  UNL1        0.0172
     10 C          -3.9832  -18.9175   21.8738 C.ar    1  UNL1        0.0135
     11 C          -6.5033  -18.8774   22.9503 C.3     1  UNL1        0.0826
     12 C          -7.7685  -19.5878   22.5701 C.3     1  UNL1        0.2456
     13 O          -7.4778  -20.4438   21.3731 O.3     1  UNL1       -0.4699
     14 C           0.1406  -17.4048   20.0279 C.3     1  UNL1        0.0949
     15 C          -1.3068  -17.7816   20.1423 C.2     1  UNL1        0.2266
     16 O          -2.3702  -16.8078   19.7286 O.2     1  UNL1       -0.2748
     17 N          -1.6907  -19.1320   20.6703 N.am    1  UNL1       -0.2839
     18 H          -0.9928  -19.7711   20.9417 H       1  UNL1        0.1549
     19 C          -8.7185  -16.9056   23.5206 C.3     1  UNL1        0.1139
     20 C          -7.9394  -16.3190   24.6603 C.ar    1  UNL1       -0.0029
     21 C          -8.5331  -16.2879   26.0374 C.ar    1  UNL1       -0.0026
     22 C          -7.7540  -15.7013   27.1771 C.ar    1  UNL1       -0.0003
     23 C          -6.3811  -15.1458   26.9396 C.ar    1  UNL1       -0.0000
     24 C          -5.7872  -15.1768   25.5625 C.ar    1  UNL1       -0.0003
     25 C          -6.5664  -15.7634   24.4228 C.ar    1  UNL1       -0.0026
     26 C          -8.6490  -16.2750   22.1614 C.3     1  UNL1        0.0968
     27 N          -9.7666  -16.4791   21.1819 N.3     1  UNL1       -0.2689
     28 C         -10.1962  -17.7910   20.5953 C.3     1  UNL1        0.0748
     29 C         -11.3458  -17.5299   19.6679 C.3     1  UNL1        0.0480
     30 C         -11.6269  -16.0566   19.6814 C.3     1  UNL1        0.1278
     31 O         -12.6962  -15.3557   18.8969 O.3     1  UNL1       -0.3830
     32 C         -10.6508  -15.4070   20.6172 C.3     1  UNL1        0.1017
     33 H         -12.6647  -14.4047   19.0855 H       1  UNL1        0.2104
@<TRIPOS>BOND
     1    14    15    1
     2    15    16    2
     3    15    17   am
     4    17     5    1
     5     5     6   ar
     6     6     7   ar
     7     7     8   ar
     8     8     9   ar
     9     9    10   ar
    10     9    11    1
    11    11    12    1
    12    12     1    1
    13     1     2    2
    14     1     3   am
    15     3     4    1
    16     3    19    1
    17    19    26    1
    18    26    27    1
    19    27    28    1
    20    28    29    1
    21    29    30    1
    22    30    31    1
    23    30    32    1
    24    19    20    1
    25    20    21   ar
    26    21    22   ar
    27    22    23   ar
    28    23    24   ar
    29    24    25   ar
    30    12    13    1
    31    10     5   ar
    32    32    27    1
    33    25    20   ar
    34    13     8    1
    35    17    18    1
    36    31    33    1
@<TRIPOS>MOLECULE
*****
 33 36 0 0 0
SMALL
GASTEIGER

@<TRIPOS>ATOM
      1 C          -8.6905  -19.6679   19.3309 C.2     1  UNL1        0.2665
      2 O          -9.0730  -20.4108   18.0852 O.2     1  UNL1       -0.2710
      3 N          -9.7420  -18.9666   20.1387 N.am    1  UNL1       -0.2714
      4 C         -11.1761  -19.0083   19.7008 C.3     1  UNL1        0.1153
      5 C          -2.3724  -19.1941   20.5397 C.ar    1  UNL1        0.0502
      6 C          -2.7592  -19.7854   21.8628 C.ar    1  UNL1        0.0178
      7 C          -4.1946  -20.1171   22.1451 C.ar    1  UNL1        0.0379
      8 C          -5.2431  -19.8576   21.1043 C.ar    1  UNL1        0.1353
      9 C          -4.8562  -19.2664   19.7812 C.ar    1  UNL1        0.0172
     10 C          -3.4208  -18.9346   19.4989 C.ar    1  UNL1        0.0135
     11 C          -6.1005  -19.1233   18.9558 C.3     1  UNL1        0.0826
     12 C          -7.2564  -19.6262   19.7688 C.3     1  UNL1        0.2456
     13 O          -6.7265  -20.0800   21.0967 O.3     1  UNL1       -0.4699
     14 C           0.9872  -17.1212   20.1317 C.3     1  UNL1        0.0949
     15 C          -0.4482  -17.4530   20.4140 C.2     1  UNL1        0.2266
     16 O          -1.3947  -16.3752   20.8530 O.2     1  UNL1       -0.2748
     17 N          -0.9370  -18.8624   20.2573 N.am    1  UNL1       -0.2839
     18 H          -0.3158  -19.5697   19.9692 H       1  UNL1        0.1549
     19 C          -9.3595  -18.2237   21.3844 C.3     1  UNL1        0.1139
     20 C          -9.7395  -18.7686   22.7292 C.ar    1  UNL1       -0.0029
     21 C         -10.6802  -18.0017   23.6107 C.ar    1  UNL1       -0.0026
     22 C         -11.0602  -18.5467   24.9555 C.ar    1  UNL1       -0.0003
     23 C         -10.4996  -19.8585   25.4189 C.ar    1  UNL1       -0.0000
     24 C          -9.5589  -20.6254   24.5375 C.ar    1  UNL1       -0.0003
     25 C          -9.1788  -20.0805   23.1926 C.ar    1  UNL1       -0.0026
     26 C          -8.5969  -16.9358   21.2852 C.3     1  UNL1        0.0968
     27 N          -7.6434  -16.5430   22.3746 N.3     1  UNL1       -0.2689
     28 C          -6.3645  -17.2453   22.7225 C.3     1  UNL1        0.0748
     29 C          -5.7321  -16.5152   23.8701 C.3     1  UNL1        0.0480
     30 C          -6.6202  -15.3617   24.2315 C.3     1  UNL1        0.1278
     31 O          -6.3708  -14.3658   25.3251 O.3     1  UNL1       -0.3830
     32 C          -7.8015  -15.3788   23.3071 C.3     1  UNL1        0.1017
     33 H          -7.0968  -13.7230   25.3488 H       1  UNL1        0.2104
@<TRIPOS>BOND
     1    14    15    1
     2    15    16    2
     3    15    17   am
     4    17     5    1
     5     5     6   ar
     6     6     7   ar
     7     7     8   ar
     8     8     9   ar
     9     9    10   ar
    10     9    11    1
    11    11    12    1
    12    12     1    1
    13     1     2    2
    14     1     3   am
    15     3     4    1
    16     3    19    1
    17    19    26    1
    18    26    27    1
    19    27    28    1
    20    28    29    1
    21    29    30    1
    22    30    31    1
    23    30    32    1
    24    19    20    1
    25    20    21   ar
    26    21    22   ar
    27    22    23   ar
    28    23    24   ar
    29    24    25   ar
    30    12    13    1
    31    10     5   ar
    32    32    27    1
    33    25    20   ar
    34    13     8    1
    35    17    18    1
    36    31    33    1
@<TRIPOS>MOLECULE
*****
 33 36 0 0 0
SMALL
GASTEIGER

@<TRIPOS>ATOM
      1 C           2.4572    0.4305   20.5473 C.2     1  UNL1        0.2665
      2 O           1.3173    1.0224   21.3221 O.2     1  UNL1       -0.2710
      3 N           2.5236    0.6057   19.0591 N.am    1  UNL1       -0.2714
      4 C           1.4501    1.3728   18.3456 C.3     1  UNL1        0.1153
      5 C           6.5264   -3.3215   23.8592 C.ar    1  UNL1        0.0502
      6 C           7.5581   -2.3701   23.3298 C.ar    1  UNL1        0.0178
      7 C           7.1442   -1.2301   22.4472 C.ar    1  UNL1        0.0379
      8 C           5.6987   -1.0414   22.0940 C.ar    1  UNL1        0.1353
      9 C           4.6670   -1.9928   22.6235 C.ar    1  UNL1        0.0172
     10 C           5.0808   -3.1329   23.5061 C.ar    1  UNL1        0.0135
     11 C           3.3271   -1.5573   22.1085 C.3     1  UNL1        0.0826
     12 C           3.5307   -0.3367   21.2608 C.3     1  UNL1        0.2456
     13 O           4.9965   -0.0179   21.2519 O.3     1  UNL1       -0.4699
     14 C           8.0451   -6.7948   25.0339 C.3     1  UNL1        0.0949
     15 C           7.6313   -5.6547   24.1513 C.2     1  UNL1        0.2266
     16 O           7.9085   -5.7078   22.6781 O.2     1  UNL1       -0.2748
     17 N           6.9402   -4.4616   24.7419 N.am    1  UNL1       -0.2839
     18 H           6.7582   -4.4267   25.7088 H       1  UNL1        0.1549
     19 C           3.6636    0.0137   18.2843 C.3     1  UNL1        0.1139
     20 C           4.8926    0.8308   18.0164 C.ar    1  UNL1       -0.0029
     21 C           5.0501    2.1797   18.6533 C.ar    1  UNL1       -0.0026
     22 C           6.2792    2.9967   18.3854 C.ar    1  UNL1       -0.0003
     23 C           7.3507    2.4650   17.4805 C.ar    1  UNL1       -0.0000
     24 C           7.1933    1.1161   16.8434 C.ar    1  UNL1       -0.0003
     25 C           5.9642    0.2990   17.1114 C.ar    1  UNL1       -0.0026
     26 C           3.5745   -1.3952   17.7776 C.3     1  UNL1        0.0968
     27 N           4.0888   -2.5278   18.6160 N.3     1  UNL1       -0.2689
     28 C           3.2652   -3.6365   19.2009 C.3     1  UNL1        0.0748
     29 C           4.1843   -4.5444   19.9631 C.3     1  UNL1        0.0480
     30 C           5.5761   -3.9967   19.8492 C.3     1  UNL1        0.1278
     31 O           6.8102   -4.5910   20.4606 O.3     1  UNL1       -0.3830
     32 C           5.5171   -2.7503   19.0166 C.3     1  UNL1        0.1017
     33 H           7.5784   -4.0431   20.2357 H       1  UNL1        0.2104
@<TRIPOS>BOND
     1    14    15    1
     2    15    16    2
     3    15    17   am
     4    17     5    1
     5     5     6   ar
     6     6     7   ar
     7     7     8   ar
     8     8     9   ar
     9     9    10   ar
    10     9    11    1
    11    11    12    1
    12    12     1    1
    13     1     2    2
    14     1     3   am
    15     3     4    1
    16     3    19    1
    17    19    26    1
    18    26    27    1
    19    27    28    1
    20    28    29    1
    21    29    30    1
    22    30    31    1
    23    30    32    1
    24    19    20    1
    25    20    21   ar
    26    21    22   ar
    27    22    23   ar
    28    23    24   ar
    29    24    25   ar
    30    12    13    1
    31    10     5   ar
    32    32    27    1
    33    25    20   ar
    34    13     8    1
    35    17    18    1
    36    31    33    1
@<TRIPOS>MOLECULE
*****
 33 36 0 0 0
SMALL
GASTEIGER

@<TRIPOS>ATOM
      1 C           4.9193   -3.1332   21.5220 C.2     1  UNL1        0.2665
      2 O           4.5190   -4.5787   21.5378 O.2     1  UNL1       -0.2710
      3 N           6.3669   -2.7570   21.4090 N.am    1  UNL1       -0.2714
      4 C           7.4143   -3.8262   21.3117 C.3     1  UNL1        0.1153
      5 C           0.2253    1.2816   21.2374 C.ar    1  UNL1        0.0502
      6 C           0.6664    1.5861   22.6383 C.ar    1  UNL1        0.0178
      7 C           1.7941    0.8123   23.2545 C.ar    1  UNL1        0.0379
      8 C           2.4806   -0.2660   22.4697 C.ar    1  UNL1        0.1353
      9 C           2.0395   -0.5706   21.0688 C.ar    1  UNL1        0.0172
     10 C           0.9118    0.2033   20.4526 C.ar    1  UNL1        0.0135
     11 C           2.8993   -1.6817   20.5432 C.3     1  UNL1        0.0826
     12 C           3.8718   -2.0639   21.6194 C.3     1  UNL1        0.2456
     13 O           3.6130   -1.1889   22.8100 O.3     1  UNL1       -0.4699
     14 C          -1.7384    4.0226   19.1445 C.3     1  UNL1        0.0949
     15 C          -0.6108    3.2488   19.7607 C.2     1  UNL1        0.2266
     16 O           0.8085    3.6686   19.5163 O.2     1  UNL1       -0.2748
     17 N          -0.9023    2.0554   20.6212 N.am    1  UNL1       -0.2839
     18 H          -1.8338    1.7799   20.7816 H       1  UNL1        0.1549
     19 C           6.7671   -1.3114   21.3933 C.3     1  UNL1        0.1139
     20 C           6.8721   -0.5482   22.6804 C.ar    1  UNL1       -0.0029
     21 C           6.7023    0.9421   22.6847 C.ar    1  UNL1       -0.0026
     22 C           6.8073    1.7052   23.9718 C.ar    1  UNL1       -0.0003
     23 C           7.0821    0.9780   25.2546 C.ar    1  UNL1       -0.0000
     24 C           7.2519   -0.5124   25.2503 C.ar    1  UNL1       -0.0003
     25 C           7.1469   -1.2755   23.9633 C.ar    1  UNL1       -0.0026
     26 C           7.0622   -0.6290   20.0906 C.3     1  UNL1        0.0968
     27 N           5.9631   -0.4070   19.0942 N.3     1  UNL1       -0.2689
     28 C           5.1016    0.8164   18.9899 C.3     1  UNL1        0.0748
     29 C           4.1385    0.6101   17.8586 C.3     1  UNL1        0.0480
     30 C           4.4049   -0.7408   17.2637 C.3     1  UNL1        0.1278
     31 O           3.6722   -1.3553   16.1080 O.3     1  UNL1       -0.3830
     32 C           5.5326   -1.3695   18.0274 C.3     1  UNL1        0.1017
     33 H           4.0395   -2.2337   15.9224 H       1  UNL1        0.2104
@<TRIPOS>BOND
     1    14    15    1
     2    15    16    2
     3    15    17   am
     4    17     5    1
     5     5     6   ar
     6     6     7   ar
     7     7     8   ar
     8     8     9   ar
     9     9    10   ar
    10     9    11    1
    11    11    12    1
    12    12     1    1
    13     1     2    2
    14     1     3   am
    15     3     4    1
    16     3    19    1
    17    19    26    1
    18    26    27    1
    19    27    28    1
    20    28    29    1
    21    29    30    1
    22    30    31    1
    23    30    32    1
    24    19    20    1
    25    20    21   ar
    26    21    22   ar
    27    22    23   ar
    28    23    24   ar
    29    24    25   ar
    30    12    13    1
    31    10     5   ar
    32    32    27    1
    33    25    20   ar
    34    13     8    1
    35    17    18    1
    36    31    33    1
@<TRIPOS>MOLECULE
*****
 33 36 0 0 0
SMALL
GASTEIGER

@<TRIPOS>ATOM
      1 C           6.0488    1.4255   20.4240 C.2     1  UNL1        0.2665
      2 O           6.9246    2.6385   20.3166 O.2     1  UNL1       -0.2710
      3 N           6.4447    0.1515   19.7384 N.am    1  UNL1       -0.2714
      4 C           7.7165    0.0904   18.9454 C.3     1  UNL1        0.1153
      5 C           0.8868    1.1701   24.2831 C.ar    1  UNL1        0.0502
      6 C           0.3470    2.2021   23.3379 C.ar    1  UNL1        0.0178
      7 C           1.1785    2.6653   22.1786 C.ar    1  UNL1        0.0379
      8 C           2.5498    2.0965   21.9645 C.ar    1  UNL1        0.1353
      9 C           3.0896    1.0644   22.9097 C.ar    1  UNL1        0.0172
     10 C           2.2581    0.6012   24.0690 C.ar    1  UNL1        0.0135
     11 C           4.4660    0.6874   22.4477 C.3     1  UNL1        0.0826
     12 C           4.7769    1.4865   21.2169 C.3     1  UNL1        0.2456
     13 O           3.5926    2.3574   20.9183 O.3     1  UNL1       -0.4699
     14 C          -0.7372    0.9940   27.9000 C.3     1  UNL1        0.0949
     15 C           0.0943    1.4572   26.7407 C.2     1  UNL1        0.2266
     16 O           0.9651    2.6707   26.8797 O.2     1  UNL1       -0.2748
     17 N           0.0552    0.7069   25.4424 N.am    1  UNL1       -0.2839
     18 H          -0.5162   -0.0896   25.3512 H       1  UNL1        0.1549
     19 C           5.5688   -1.0616   19.8457 C.3     1  UNL1        0.1139
     20 C           5.7554   -2.0232   20.9817 C.ar    1  UNL1       -0.0029
     21 C           4.6242   -2.9126   21.4050 C.ar    1  UNL1       -0.0026
     22 C           4.8108   -3.8742   22.5410 C.ar    1  UNL1       -0.0003
     23 C           6.1287   -3.9464   23.2537 C.ar    1  UNL1       -0.0000
     24 C           7.2600   -3.0570   22.8305 C.ar    1  UNL1       -0.0003
     25 C           7.0734   -2.0954   21.6945 C.ar    1  UNL1       -0.0026
     26 C           4.5064   -1.3129   18.8172 C.3     1  UNL1        0.0968
     27 N           3.1618   -0.6622   18.9533 N.3     1  UNL1       -0.2689
     28 C           2.6268    0.4444   18.0935 C.3     1  UNL1        0.0748
     29 C           1.2504    0.7867   18.5819 C.3     1  UNL1        0.0480
     30 C           0.9348   -0.1083   19.7435 C.3     1  UNL1        0.1278
     31 O          -0.3385   -0.1079   20.5363 O.3     1  UNL1       -0.3830
     32 C           2.1161   -1.0038   19.9731 C.3     1  UNL1        0.1017
     33 H          -0.2868   -0.7825   21.2314 H       1  UNL1        0.2104
@<TRIPOS>BOND
     1    14    15    1
     2    15    16    2
     3    15    17   am
     4    17     5    1
     5     5     6   ar
     6     6     7   ar
     7     7     8   ar
     8     8     9   ar
     9     9    10   ar
    10     9    11    1
    11    11    12    1
    12    12     1    1
    13     1     2    2
    14     1     3   am
    15     3     4    1
    16     3    19    1
    17    19    26    1
    18    26    27    1
    19    27    28    1
    20    28    29    1
    21    29    30    1
    22    30    31    1
    23    30    32    1
    24    19    20    1
    25    20    21   ar
    26    21    22   ar
    27    22    23   ar
    28    23    24   ar
    29    24    25   ar
    30    12    13    1
    31    10     5   ar
    32    32    27    1
    33    25    20   ar
    34    13     8    1
    35    17    18    1
    36    31    33    1
@<TRIPOS>MOLECULE
*****
 33 36 0 0 0
SMALL
GASTEIGER

@<TRIPOS>ATOM
      1 C           6.4110    0.5025   21.2131 C.2     1  UNL1        0.2665
      2 O           7.6509    1.0437   21.8609 O.2     1  UNL1       -0.2710
      3 N           6.5217   -0.4268   20.0409 N.am    1  UNL1       -0.2714
      4 C           7.8723   -0.8150   19.5165 C.3     1  UNL1        0.1153
      5 C           0.6686    2.7935   23.0521 C.ar    1  UNL1        0.0502
      6 C           0.6160    1.5269   23.8539 C.ar    1  UNL1        0.0178
      7 C           1.7594    0.5575   23.8006 C.ar    1  UNL1        0.0379
      8 C           2.9554    0.8547   22.9456 C.ar    1  UNL1        0.1353
      9 C           3.0081    2.1212   22.1437 C.ar    1  UNL1        0.0172
     10 C           1.8647    3.0907   22.1970 C.ar    1  UNL1        0.0135
     11 C           4.3089    2.1435   21.3971 C.3     1  UNL1        0.0826
     12 C           5.0602    0.8907   21.7376 C.3     1  UNL1        0.2456
     13 O           4.2237    0.0941   22.6946 O.3     1  UNL1       -0.4699
     14 C          -2.7469    4.6155   22.1777 C.3     1  UNL1        0.0949
     15 C          -1.6035    3.6460   22.1244 C.2     1  UNL1        0.2266
     16 O          -1.5889    2.5596   21.0902 O.2     1  UNL1       -0.2748
     17 N          -0.4748    3.7630   23.1053 N.am    1  UNL1       -0.2839
     18 H          -0.4844    4.4760   23.7841 H       1  UNL1        0.1549
     19 C           5.2816   -0.9680   19.3932 C.3     1  UNL1        0.1139
     20 C           4.8271   -2.3655   19.6940 C.ar    1  UNL1       -0.0029
     21 C           4.7122   -2.8268   21.1167 C.ar    1  UNL1       -0.0026
     22 C           4.2576   -4.2243   21.4175 C.ar    1  UNL1       -0.0003
     23 C           3.9181   -5.1604   20.2958 C.ar    1  UNL1       -0.0000
     24 C           4.0331   -4.6990   18.8730 C.ar    1  UNL1       -0.0003
     25 C           4.4876   -3.3016   18.5722 C.ar    1  UNL1       -0.0026
     26 C           4.4962   -0.1117   18.4446 C.3     1  UNL1        0.0968
     27 N           3.0929    0.2935   18.7864 N.3     1  UNL1       -0.2689
     28 C           2.3846    1.5203   18.2932 C.3     1  UNL1        0.0748
     29 C           1.0056    1.5281   18.8833 C.3     1  UNL1        0.0480
     30 C           0.8616    0.3062   19.7412 C.3     1  UNL1        0.1278
     31 O          -0.3582   -0.0842   20.5220 O.3     1  UNL1       -0.3830
     32 C           2.1517   -0.4569   19.6814 C.3     1  UNL1        0.1017
     33 H          -0.1893   -0.9163   20.9910 H       1  UNL1        0.2104
@<TRIPOS>BOND
     1    14    15    1
     2    15    16    2
     3    15    17   am
     4    17     5    1
     5     5     6   ar
     6     6     7   ar
     7     7     8   ar
     8     8     9   ar
     9     9    10   ar
    10     9    11    1
    11    11    12    1
    12    12     1    1
    13     1     2    2
    14     1     3   am
    15     3     4    1
    16     3    19    1
    17    19    26    1
    18    26    27    1
    19    27    28    1
    20    28    29    1
    21    29    30    1
    22    30    31    1
    23    30    32    1
    24    19    20    1
    25    20    21   ar
    26    21    22   ar
    27    22    23   ar
    28    23    24   ar
    29    24    25   ar
    30    12    13    1
    31    10     5   ar
    32    32    27    1
    33    25    20   ar
    34    13     8    1
    35    17    18    1
    36    31    33    1
@<TRIPOS>MOLECULE
*****
 33 36 0 0 0
SMALL
GASTEIGER

@<TRIPOS>ATOM
      1 C           5.3443   -3.3065   20.3699 C.2     1  UNL1        0.2665
      2 O           5.1450   -4.7279   19.9342 O.2     1  UNL1       -0.2710
      3 N           6.6148   -2.9042   21.0583 N.am    1  UNL1       -0.2714
      4 C           7.6860   -3.9234   21.3110 C.3     1  UNL1        0.1153
      5 C           0.4772    0.9069   19.9671 C.ar    1  UNL1        0.0502
      6 C           1.0616    1.1857   18.6141 C.ar    1  UNL1        0.0178
      7 C           2.2815    0.4424   18.1564 C.ar    1  UNL1        0.0379
      8 C           2.9169   -0.5796   19.0518 C.ar    1  UNL1        0.1353
      9 C           2.3325   -0.8583   20.4048 C.ar    1  UNL1        0.0172
     10 C           1.1126   -0.1150   20.8624 C.ar    1  UNL1        0.0135
     11 C           3.1707   -1.9138   21.0633 C.3     1  UNL1        0.0826
     12 C           4.2731   -2.2873   20.1172 C.3     1  UNL1        0.2456
     13 O           4.1163   -1.4627   18.8740 O.3     1  UNL1       -0.4699
     14 C          -1.8193    3.6046   21.7556 C.3     1  UNL1        0.0949
     15 C          -0.5994    2.8613   21.2980 C.2     1  UNL1        0.2266
     16 O           0.7639    3.3293   21.7136 O.2     1  UNL1       -0.2748
     17 N          -0.7427    1.6502   20.4248 N.am    1  UNL1       -0.2839
     18 H          -1.6374    1.3431   20.1520 H       1  UNL1        0.1549
     19 C           6.8142   -1.4828   21.4941 C.3     1  UNL1        0.1139
     20 C           6.8845   -0.3877   20.4714 C.ar    1  UNL1       -0.0029
     21 C           6.1052    0.8779   20.6729 C.ar    1  UNL1       -0.0026
     22 C           6.1756    1.9730   19.6502 C.ar    1  UNL1       -0.0003
     23 C           7.0253    1.8024   18.4260 C.ar    1  UNL1       -0.0000
     24 C           7.8047    0.5367   18.2244 C.ar    1  UNL1       -0.0003
     25 C           7.7343   -0.5584   19.2471 C.ar    1  UNL1       -0.0026
     26 C           6.9431   -1.1564   22.9524 C.3     1  UNL1        0.0968
     27 N           5.7194   -1.0924   23.8177 N.3     1  UNL1       -0.2689
     28 C           4.5260   -0.2119   23.5932 C.3     1  UNL1        0.0748
     29 C           3.5434   -0.4729   24.6961 C.3     1  UNL1        0.0480
     30 C           4.1295   -1.5147   25.6021 C.3     1  UNL1        0.1278
     31 O           3.4841   -2.0753   26.8347 O.3     1  UNL1       -0.3830
     32 C           5.4744   -1.8976   25.0593 C.3     1  UNL1        0.1017
     33 H           4.0726   -2.7329   27.2373 H       1  UNL1        0.2104
@<TRIPOS>BOND
     1    14    15    1
     2    15    16    2
     3    15    17   am
     4    17     5    1
     5     5     6   ar
     6     6     7   ar
     7     7     8   ar
     8     8     9   ar
     9     9    10   ar
    10     9    11    1
    11    11    12    1
    12    12     1    1
    13     1     2    2
    14     1     3   am
    15     3     4    1
    16     3    19    1
    17    19    26    1
    18    26    27    1
    19    27    28    1
    20    28    29    1
    21    29    30    1
    22    30    31    1
    23    30    32    1
    24    19    20    1
    25    20    21   ar
    26    21    22   ar
    27    22    23   ar
    28    23    24   ar
    29    24    25   ar
    30    12    13    1
    31    10     5   ar
    32    32    27    1
    33    25    20   ar
    34    13     8    1
    35    17    18    1
    36    31    33    1
@<TRIPOS>MOLECULE
*****
 33 36 0 0 0
SMALL
GASTEIGER

@<TRIPOS>ATOM
      1 C           3.9687   -2.3083   19.2562 C.2     1  UNL1        0.2665
      2 O           3.5275   -3.6947   18.8913 O.2     1  UNL1       -0.2710
      3 N           5.4183   -2.0276   19.5204 N.am    1  UNL1       -0.2714
      4 C           6.4268   -3.1334   19.4197 C.3     1  UNL1        0.1153
      5 C          -0.5989    2.1190   20.3243 C.ar    1  UNL1        0.0502
      6 C          -0.0781    2.7102   19.0480 C.ar    1  UNL1        0.0178
      7 C           1.0557    2.0481   18.3226 C.ar    1  UNL1        0.0379
      8 C           1.6687    0.7949   18.8736 C.ar    1  UNL1        0.1353
      9 C           1.1478    0.2037   20.1499 C.ar    1  UNL1        0.0172
     10 C           0.0140    0.8658   20.8753 C.ar    1  UNL1        0.0135
     11 C           1.9460   -1.0308   20.4487 C.3     1  UNL1        0.0826
     12 C           2.9601   -1.2024   19.3569 C.3     1  UNL1        0.2456
     13 O           2.7887   -0.0741   18.3834 O.3     1  UNL1       -0.4699
     14 C          -2.6098    4.1758   23.0586 C.3     1  UNL1        0.0949
     15 C          -1.4760    3.5137   22.3332 C.2     1  UNL1        0.2266
     16 O          -0.0855    3.5843   22.8913 O.2     1  UNL1       -0.2748
     17 N          -1.7327    2.7811   21.0497 N.am    1  UNL1       -0.2839
     18 H          -2.6454    2.7347   20.6834 H       1  UNL1        0.1549
     19 C           5.8594   -0.6411   19.8853 C.3     1  UNL1        0.1139
     20 C           6.0668    0.3866   18.8126 C.ar    1  UNL1       -0.0029
     21 C           6.6522   -0.0158   17.4915 C.ar    1  UNL1       -0.0026
     22 C           6.8596    1.0119   16.4188 C.ar    1  UNL1       -0.0003
     23 C           6.4818    2.4421   16.6672 C.ar    1  UNL1       -0.0000
     24 C           5.8964    2.8446   17.9883 C.ar    1  UNL1       -0.0003
     25 C           5.6889    1.8169   19.0610 C.ar    1  UNL1       -0.0026
     26 C           6.0930   -0.2824   21.3229 C.3     1  UNL1        0.0968
     27 N           4.9289   -0.1300   22.2566 N.3     1  UNL1       -0.2689
     28 C           4.3961   -1.1844   23.1808 C.3     1  UNL1        0.0748
     29 C           3.2312   -0.6026   23.9255 C.3     1  UNL1        0.0480
     30 C           3.0441    0.8114   23.4614 C.3     1  UNL1        0.1278
     31 O           1.9923    1.7659   23.9441 O.3     1  UNL1       -0.3830
     32 C           4.0933    1.1036   22.4300 C.3     1  UNL1        0.1017
     33 H           2.0904    2.6145   23.4846 H       1  UNL1        0.2104
@<TRIPOS>BOND
     1    14    15    1
     2    15    16    2
     3    15    17   am
     4    17     5    1
     5     5     6   ar
     6     6     7   ar
     7     7     8   ar
     8     8     9   ar
     9     9    10   ar
    10     9    11    1
    11    11    12    1
    12    12     1    1
    13     1     2    2
    14     1     3   am
    15     3     4    1
    16     3    19    1
    17    19    26    1
    18    26    27    1
    19    27    28    1
    20    28    29    1
    21    29    30    1
    22    30    31    1
    23    30    32    1
    24    19    20    1
    25    20    21   ar
    26    21    22   ar
    27    22    23   ar
    28    23    24   ar
    29    24    25   ar
    30    12    13    1
    31    10     5   ar
    32    32    27    1
    33    25    20   ar
    34    13     8    1
    35    17    18    1
    36    31    33    1
@<TRIPOS>MOLECULE
*****
 33 36 0 0 0
SMALL
GASTEIGER

@<TRIPOS>ATOM
      1 C           5.5248   -3.4866   20.2417 C.2     1  UNL1        0.2665
      2 O           5.3762   -4.8689   19.6787 O.2     1  UNL1       -0.2710
      3 N           6.7509   -3.1240   21.0261 N.am    1  UNL1       -0.2714
      4 C           7.8284   -4.1439   21.2475 C.3     1  UNL1        0.1153
      5 C           0.6387    0.7155   19.9727 C.ar    1  UNL1        0.0502
      6 C           1.2078    1.0229   18.6194 C.ar    1  UNL1        0.0178
      7 C           2.4255    0.2934   18.1345 C.ar    1  UNL1        0.0379
      8 C           3.0740   -0.7435   19.0029 C.ar    1  UNL1        0.1353
      9 C           2.5048   -1.0509   20.3562 C.ar    1  UNL1        0.0172
     10 C           1.2872   -0.3214   20.8411 C.ar    1  UNL1        0.0135
     11 C           3.3536   -2.1160   20.9851 C.3     1  UNL1        0.0826
     12 C           4.4474   -2.4667   20.0203 C.3     1  UNL1        0.2456
     13 O           4.2745   -1.6185   18.7953 O.3     1  UNL1       -0.4699
     14 C          -1.6469    3.4193   21.7660 C.3     1  UNL1        0.0949
     15 C          -0.4292    2.6898   21.2811 C.2     1  UNL1        0.2266
     16 O           0.9382    3.2051   21.6197 O.2     1  UNL1       -0.2748
     17 N          -0.5790    1.4450   20.4576 N.am    1  UNL1       -0.2839
     18 H          -1.4765    1.1068   20.2355 H       1  UNL1        0.1549
     19 C           6.8995   -1.7416   21.5891 C.3     1  UNL1        0.1139
     20 C           6.2174   -1.3780   22.8746 C.ar    1  UNL1       -0.0029
     21 C           6.0745   -2.4001   23.9631 C.ar    1  UNL1       -0.0026
     22 C           5.3923   -2.0365   25.2485 C.ar    1  UNL1       -0.0003
     23 C           4.8530   -0.6508   25.4456 C.ar    1  UNL1       -0.0000
     24 C           4.9959    0.3714   24.3571 C.ar    1  UNL1       -0.0003
     25 C           5.6781    0.0078   23.0716 C.ar    1  UNL1       -0.0026
     26 C           7.7303   -0.7229   20.8667 C.3     1  UNL1        0.0968
     27 N           7.1973   -0.0603   19.6309 N.3     1  UNL1       -0.2689
     28 C           7.4590   -0.4895   18.2177 C.3     1  UNL1        0.0748
     29 C           6.7326    0.4532   17.3048 C.3     1  UNL1        0.0480
     30 C           6.0219    1.4652   18.1538 C.3     1  UNL1        0.1278
     31 O           5.1730    2.5960   17.6532 O.3     1  UNL1       -0.3830
     32 C           6.3091    1.1478   19.5915 C.3     1  UNL1        0.1017
     33 H           4.8304    3.1014   18.4069 H       1  UNL1        0.2104
@<TRIPOS>BOND
     1    14    15    1
     2    15    16    2
     3    15    17   am
     4    17     5    1
     5     5     6   ar
     6     6     7   ar
     7     7     8   ar
     8     8     9   ar
     9     9    10   ar
    10     9    11    1
    11    11    12    1
    12    12     1    1
    13     1     2    2
    14     1     3   am
    15     3     4    1
    16     3    19    1
    17    19    26    1
    18    26    27    1
    19    27    28    1
    20    28    29    1
    21    29    30    1
    22    30    31    1
    23    30    32    1
    24    19    20    1
    25    20    21   ar
    26    21    22   ar
    27    22    23   ar
    28    23    24   ar
    29    24    25   ar
    30    12    13    1
    31    10     5   ar
    32    32    27    1
    33    25    20   ar
    34    13     8    1
    35    17    18    1
    36    31    33    1
