@<TRIPOS>MOLECULE
*****
 33 38 0 0 0
SMALL
GASTEIGER

@<TRIPOS>ATOM
      1 C           6.0956   -3.4144   22.2376 C.ar    1  UNL1        0.1170
      2 N           6.9179   -4.5441   22.7830 N.ar    1  UNL1       -0.2264
      3 C           7.0349   -4.7390   24.2658 C.ar    1  UNL1        0.1602
      4 N           6.3295   -3.8041   25.2030 N.ar    1  UNL1       -0.2091
      5 C           5.5072   -2.6744   24.6576 C.ar    1  UNL1        0.1690
      6 C           5.3902   -2.4795   23.1749 C.ar    1  UNL1        0.1850
      7 O           4.5679   -1.3498   22.6295 O.3     1  UNL1       -0.4695
      8 C           3.8625   -0.4150   23.5668 C.3     1  UNL1        0.2277
      9 C           3.9795   -0.6098   25.0495 C.3     1  UNL1        0.1477
     10 C           3.2741    0.3251   25.9867 C.3     1  UNL1        0.1657
     11 O           3.3911    0.1302   27.4694 O.3     1  UNL1       -0.3501
     12 C           4.2134   -0.9995   28.0148 C.3     1  UNL1        0.1636
     13 C           4.9188   -1.9344   27.0776 C.3     1  UNL1        0.1244
     14 N           4.8018   -1.7395   25.5949 N.pl3   1  UNL1       -0.2840
     15 C           7.8573   -5.8687   24.8112 C.2     1  UNL1        0.0230
     16 C           8.6699   -6.7214   23.8824 C.2     1  UNL1       -0.0005
     17 C           9.4923   -7.8511   24.4278 C.2     1  UNL1        0.0010
     18 C           9.5020   -8.1281   25.9020 C.2     1  UNL1        0.0153
     19 C           8.6893   -7.2755   26.8307 C.2     1  UNL1        0.0669
     20 N           8.5025   -7.3085   28.3187 N.2     1  UNL1       -0.2478
     21 C           7.5648   -6.1992   28.6929 C.2     1  UNL1        0.0946
     22 C           7.1720   -5.4806   27.4362 C.2     1  UNL1        0.0046
     23 C           7.8670   -6.1458   26.2853 C.3     1  UNL1        0.0888
     24 C           5.9786   -3.2196   20.7550 C.3     1  UNL1        0.1533
     25 C           4.6560   -3.8684   21.0375 C.3     1  UNL1        0.0599
     26 C           3.6899   -4.1206   19.9182 C.3     1  UNL1        0.1443
     27 O           4.0464   -3.7238   18.5161 O.3     1  UNL1       -0.3536
     28 C           5.3689   -3.0750   18.2336 C.3     1  UNL1        0.1443
     29 C           6.3350   -2.8229   19.3530 C.3     1  UNL1        0.0599
     30 C           8.7050   -2.0573   21.2197 C.3     1  UNL1        0.1764
     31 S           7.3417   -2.6384   20.9873 S.O2    1  UNL1       -0.0062
     32 O           7.1399   -1.6255   21.3466 O.2     1  UNL1       -0.1727
     33 O           7.9672   -3.9255   20.5373 O.2     1  UNL1       -0.1727
@<TRIPOS>BOND
     1    30    31    1
     2    31    32    2
     3    31    33    2
     4    31    24    1
     5    24     1    1
     6     1     2   ar
     7     2     3   ar
     8     3    15    1
     9    15    16    2
    10    16    17    1
    11    17    18    2
    12    18    19    1
    13    19    20    2
    14    20    21    1
    15    21    22    2
    16    22    23    1
    17     3     4   ar
    18     4     5   ar
    19     5     6   ar
    20     6     7    1
    21     7     8    1
    22     9     8    1
    23     9    10    1
    24    10    11    1
    25    11    12    1
    26    12    13    1
    27    13    14    1
    28    24    25    1
    29    25    26    1
    30    26    27    1
    31    27    28    1
    32    28    29    1
    33    29    24    1
    34     6     1   ar
    35    14     9    1
    36    23    15    1
    37    14     5    1
    38    23    19    1
@<TRIPOS>MOLECULE
*****
 33 38 0 0 0
SMALL
GASTEIGER

@<TRIPOS>ATOM
      1 C           5.9915   -3.0020   21.4370 C.ar    1  UNL1        0.1170
      2 N           6.8195   -4.1348   21.9673 N.ar    1  UNL1       -0.2264
      3 C           6.8417   -4.4226   23.4393 C.ar    1  UNL1        0.1602
      4 N           6.0360   -3.5776   24.3809 N.ar    1  UNL1       -0.2091
      5 C           5.2080   -2.4448   23.8506 C.ar    1  UNL1        0.1690
      6 C           5.1858   -2.1570   22.3787 C.ar    1  UNL1        0.1850
      7 O           4.3578   -1.0242   21.8483 O.3     1  UNL1       -0.4695
      8 C           3.5521   -0.1792   22.7900 C.3     1  UNL1        0.2277
      9 C           3.5743   -0.4669   24.2620 C.3     1  UNL1        0.1477
     10 C           2.7686    0.3781   25.2036 C.3     1  UNL1        0.1657
     11 O           2.7908    0.0903   26.6755 O.3     1  UNL1       -0.3501
     12 C           3.6188   -1.0425   27.2059 C.3     1  UNL1        0.1636
     13 C           4.4245   -1.8875   26.2642 C.3     1  UNL1        0.1244
     14 N           4.4023   -1.5997   24.7923 N.pl3   1  UNL1       -0.2840
     15 C           7.6697   -5.5554   23.9696 C.2     1  UNL1        0.0230
     16 C           8.5499   -6.3394   23.0419 C.2     1  UNL1       -0.0005
     17 C           9.3779   -7.4722   23.5722 C.2     1  UNL1        0.0010
     18 C           9.3256   -7.8210   25.0302 C.2     1  UNL1        0.0153
     19 C           8.4454   -7.0370   25.9578 C.2     1  UNL1        0.0669
     20 N           8.1892   -7.1480   27.4316 N.2     1  UNL1       -0.2478
     21 C           7.2029   -6.0839   27.8122 C.2     1  UNL1        0.0946
     22 C           6.8495   -5.3152   26.5736 C.2     1  UNL1        0.0046
     23 C           7.6174   -5.9042   25.4275 C.3     1  UNL1        0.0888
     24 C           5.9693   -2.7142   19.9650 C.3     1  UNL1        0.1533
     25 C           7.0362   -1.7546   20.4020 C.3     1  UNL1        0.0599
     26 C           7.7129   -0.8751   19.3928 C.3     1  UNL1        0.1443
     27 O           7.3228   -0.9554   17.9465 O.3     1  UNL1       -0.3536
     28 C           6.2560   -1.9150   17.5097 C.3     1  UNL1        0.1443
     29 C           5.5793   -2.7945   18.5189 C.3     1  UNL1        0.0599
     30 C           3.8510   -4.8335   20.1136 C.3     1  UNL1        0.1764
     31 S           4.9102   -3.7738   20.0393 S.O2    1  UNL1       -0.0062
     32 O           5.4691   -4.6936   20.2329 O.2     1  UNL1       -0.1727
     33 O           3.8558   -2.7378   19.7842 O.2     1  UNL1       -0.1727
@<TRIPOS>BOND
     1    30    31    1
     2    31    32    2
     3    31    33    2
     4    31    24    1
     5    24     1    1
     6     1     2   ar
     7     2     3   ar
     8     3    15    1
     9    15    16    2
    10    16    17    1
    11    17    18    2
    12    18    19    1
    13    19    20    2
    14    20    21    1
    15    21    22    2
    16    22    23    1
    17     3     4   ar
    18     4     5   ar
    19     5     6   ar
    20     6     7    1
    21     7     8    1
    22     9     8    1
    23     9    10    1
    24    10    11    1
    25    11    12    1
    26    12    13    1
    27    13    14    1
    28    24    25    1
    29    25    26    1
    30    26    27    1
    31    27    28    1
    32    28    29    1
    33    29    24    1
    34     6     1   ar
    35    14     9    1
    36    23    15    1
    37    14     5    1
    38    23    19    1
@<TRIPOS>MOLECULE
*****
 33 38 0 0 0
SMALL
GASTEIGER

@<TRIPOS>ATOM
      1 C          -9.1160  -17.8797   22.4100 C.ar    1  UNL1        0.1170
      2 N          -8.1187  -18.6785   21.6242 N.ar    1  UNL1       -0.2264
      3 C          -6.6602  -18.6023   21.9661 C.ar    1  UNL1        0.1602
      4 N          -6.1989  -17.7272   23.0937 N.ar    1  UNL1       -0.2091
      5 C          -7.1962  -16.9285   23.8795 C.ar    1  UNL1        0.1690
      6 C          -8.6547  -17.0047   23.5377 C.ar    1  UNL1        0.1850
      7 O          -9.6519  -16.2059   24.3235 O.3     1  UNL1       -0.4695
      8 C          -9.1906  -15.3309   25.4511 C.3     1  UNL1        0.2277
      9 C          -7.7321  -15.2546   25.7930 C.3     1  UNL1        0.1477
     10 C          -7.2708  -14.3796   26.9206 C.3     1  UNL1        0.1657
     11 O          -5.8123  -14.3034   27.2624 O.3     1  UNL1       -0.3501
     12 C          -4.8151  -15.1022   26.4766 C.3     1  UNL1        0.1636
     13 C          -5.2763  -15.9772   25.3490 C.3     1  UNL1        0.1244
     14 N          -6.7348  -16.0534   25.0072 N.pl3   1  UNL1       -0.2840
     15 C          -5.6629  -19.4010   21.1804 C.2     1  UNL1        0.0230
     16 C          -6.1332  -20.4651   20.2334 C.2     1  UNL1       -0.0005
     17 C          -5.1360  -21.2639   19.4477 C.2     1  UNL1        0.0010
     18 C          -3.6684  -20.9986   19.6088 C.2     1  UNL1        0.0153
     19 C          -3.1982  -19.9345   20.5557 C.2     1  UNL1        0.0669
     20 N          -1.8259  -19.4514   20.9213 N.2     1  UNL1       -0.2478
     21 C          -1.9751  -18.3541   21.9330 C.2     1  UNL1        0.0946
     22 C          -3.4395  -18.1590   22.1926 C.2     1  UNL1        0.0046
     23 C          -4.1954  -19.1358   21.3414 C.3     1  UNL1        0.0888
     24 C         -10.5745  -17.9560   22.0682 C.3     1  UNL1        0.1533
     25 C         -10.2019  -16.6981   21.3408 C.3     1  UNL1        0.0599
     26 C         -11.2413  -15.9442   20.5654 C.3     1  UNL1        0.1443
     27 O         -12.6534  -16.4481   20.5174 O.3     1  UNL1       -0.3536
     28 C         -13.0259  -17.7059   21.2448 C.3     1  UNL1        0.1443
     29 C         -11.9865  -18.4598   22.0202 C.3     1  UNL1        0.0599
     30 C         -10.3066  -20.4187   23.7604 C.3     1  UNL1        0.1764
     31 S         -10.4405  -19.1873   22.9143 S.O2    1  UNL1       -0.0062
     32 O         -10.4786  -18.8092   23.9397 O.2     1  UNL1       -0.1727
     33 O         -10.3532  -20.0289   21.6757 O.2     1  UNL1       -0.1727
@<TRIPOS>BOND
     1    30    31    1
     2    31    32    2
     3    31    33    2
     4    31    24    1
     5    24     1    1
     6     1     2   ar
     7     2     3   ar
     8     3    15    1
     9    15    16    2
    10    16    17    1
    11    17    18    2
    12    18    19    1
    13    19    20    2
    14    20    21    1
    15    21    22    2
    16    22    23    1
    17     3     4   ar
    18     4     5   ar
    19     5     6   ar
    20     6     7    1
    21     7     8    1
    22     9     8    1
    23     9    10    1
    24    10    11    1
    25    11    12    1
    26    12    13    1
    27    13    14    1
    28    24    25    1
    29    25    26    1
    30    26    27    1
    31    27    28    1
    32    28    29    1
    33    29    24    1
    34     6     1   ar
    35    14     9    1
    36    23    15    1
    37    14     5    1
    38    23    19    1
@<TRIPOS>MOLECULE
*****
 33 38 0 0 0
SMALL
GASTEIGER

@<TRIPOS>ATOM
      1 C           6.7989   -3.5775   24.7340 C.ar    1  UNL1        0.1170
      2 N           6.5615   -3.8545   23.2790 N.ar    1  UNL1       -0.2264
      3 C           5.4751   -3.1262   22.5444 C.ar    1  UNL1        0.1602
      4 N           4.6262   -2.1211   23.2648 N.ar    1  UNL1       -0.2091
      5 C           4.8636   -1.8441   24.7198 C.ar    1  UNL1        0.1690
      6 C           5.9499   -2.5723   25.4543 C.ar    1  UNL1        0.1850
      7 O           6.1873   -2.2953   26.9093 O.3     1  UNL1       -0.4695
      8 C           5.3384   -1.2902   27.6297 C.3     1  UNL1        0.2277
      9 C           4.2520   -0.5619   26.8951 C.3     1  UNL1        0.1477
     10 C           3.4031    0.4432   27.6155 C.3     1  UNL1        0.1657
     11 O           2.3169    1.1714   26.8809 O.3     1  UNL1       -0.3501
     12 C           2.0795    0.8944   25.4260 C.3     1  UNL1        0.1636
     13 C           2.9283   -0.1107   24.7056 C.3     1  UNL1        0.1244
     14 N           4.0146   -0.8389   25.4402 N.pl3   1  UNL1       -0.2840
     15 C           5.2377   -3.4031   21.0894 C.2     1  UNL1        0.0230
     16 C           4.1588   -4.3590   20.6742 C.2     1  UNL1       -0.0005
     17 C           3.9214   -4.6359   19.2192 C.2     1  UNL1        0.0010
     18 C           4.7629   -3.9571   18.1795 C.2     1  UNL1        0.0153
     19 C           5.8418   -3.0013   18.5947 C.2     1  UNL1        0.0669
     20 N           6.8229   -2.1893   17.8022 N.2     1  UNL1       -0.2478
     21 C           7.6667   -1.4104   18.7674 C.2     1  UNL1        0.0946
     22 C           7.2070   -1.7411   20.1564 C.2     1  UNL1        0.0046
     23 C           6.0792   -2.7243   20.0497 C.3     1  UNL1        0.0888
     24 C           7.8852   -4.3057   25.4685 C.3     1  UNL1        0.1533
     25 C           6.6841   -5.0439   25.9810 C.3     1  UNL1        0.0599
     26 C           6.8555   -6.1660   26.9615 C.3     1  UNL1        0.1443
     27 O           8.2280   -6.5501   27.4295 O.3     1  UNL1       -0.3536
     28 C           9.4289   -5.8119   26.9170 C.3     1  UNL1        0.1443
     29 C           9.2576   -4.6897   25.9366 C.3     1  UNL1        0.0599
     30 C           9.5327   -2.3236   23.9333 C.3     1  UNL1        0.1764
     31 S           8.7089   -3.3147   24.7010 S.O2    1  UNL1       -0.0062
     32 O           8.6083   -2.3878   25.2725 O.2     1  UNL1       -0.1727
     33 O           9.0566   -4.3778   23.7015 O.2     1  UNL1       -0.1727
@<TRIPOS>BOND
     1    30    31    1
     2    31    32    2
     3    31    33    2
     4    31    24    1
     5    24     1    1
     6     1     2   ar
     7     2     3   ar
     8     3    15    1
     9    15    16    2
    10    16    17    1
    11    17    18    2
    12    18    19    1
    13    19    20    2
    14    20    21    1
    15    21    22    2
    16    22    23    1
    17     3     4   ar
    18     4     5   ar
    19     5     6   ar
    20     6     7    1
    21     7     8    1
    22     9     8    1
    23     9    10    1
    24    10    11    1
    25    11    12    1
    26    12    13    1
    27    13    14    1
    28    24    25    1
    29    25    26    1
    30    26    27    1
    31    27    28    1
    32    28    29    1
    33    29    24    1
    34     6     1   ar
    35    14     9    1
    36    23    15    1
    37    14     5    1
    38    23    19    1
@<TRIPOS>MOLECULE
*****
 33 38 0 0 0
SMALL
GASTEIGER

@<TRIPOS>ATOM
      1 C           5.9013   -1.9636   24.7375 C.ar    1  UNL1        0.1170
      2 N           5.4865   -2.0938   23.3018 N.ar    1  UNL1       -0.2264
      3 C           5.8089   -3.3442   22.5384 C.ar    1  UNL1        0.1602
      4 N           6.5459   -4.4643   23.2107 N.ar    1  UNL1       -0.2091
      5 C           6.9606   -4.3342   24.6463 C.ar    1  UNL1        0.1690
      6 C           6.6383   -3.0839   25.4097 C.ar    1  UNL1        0.1850
      7 O           7.0531   -2.9538   26.8453 O.3     1  UNL1       -0.4695
      8 C           7.7901   -4.0739   27.5176 C.3     1  UNL1        0.2277
      9 C           8.1124   -5.3243   26.7542 C.3     1  UNL1        0.1477
     10 C           8.8495   -6.4445   27.4264 C.3     1  UNL1        0.1657
     11 O           9.1717   -7.6948   26.6630 O.3     1  UNL1       -0.3501
     12 C           8.7570   -7.8249   25.2274 C.3     1  UNL1        0.1636
     13 C           8.0200   -6.7048   24.5551 C.3     1  UNL1        0.1244
     14 N           7.6977   -5.4545   25.3185 N.pl3   1  UNL1       -0.2840
     15 C           5.3941   -3.4743   21.1028 C.2     1  UNL1        0.0230
     16 C           4.1642   -4.2550   20.7452 C.2     1  UNL1       -0.0005
     17 C           3.7494   -4.3851   19.3096 C.2     1  UNL1        0.0010
     18 C           4.5647   -3.7345   18.2315 C.2     1  UNL1        0.0153
     19 C           5.7945   -2.9539   18.5891 C.2     1  UNL1        0.0669
     20 N           6.7893   -2.2082   17.7498 N.2     1  UNL1       -0.2478
     21 C           7.8189   -1.6172   18.6667 C.2     1  UNL1        0.0946
     22 C           7.4604   -1.9976   20.0727 C.2     1  UNL1        0.0046
     23 C           6.2093   -2.8237   20.0247 C.3     1  UNL1        0.0888
     24 C           5.5790   -0.7133   25.5009 C.3     1  UNL1        0.1533
     25 C           4.5509   -1.6419   26.0760 C.3     1  UNL1        0.0599
     26 C           3.5964   -1.1485   27.1226 C.3     1  UNL1        0.1443
     27 O           3.6701    0.2736   27.5942 O.3     1  UNL1       -0.3536
     28 C           4.6982    1.2021   27.0191 C.3     1  UNL1        0.1443
     29 C           5.6526    0.7087   25.9725 C.3     1  UNL1        0.0599
     30 C           7.8591    0.2754   23.8204 C.3     1  UNL1        0.1764
     31 S           6.7190   -0.2190   24.6607 S.O2    1  UNL1       -0.0062
     32 O           7.6084   -0.5963   25.1729 O.2     1  UNL1       -0.1727
     33 O           5.7460    0.4378   23.7269 O.2     1  UNL1       -0.1727
@<TRIPOS>BOND
     1    30    31    1
     2    31    32    2
     3    31    33    2
     4    31    24    1
     5    24     1    1
     6     1     2   ar
     7     2     3   ar
     8     3    15    1
     9    15    16    2
    10    16    17    1
    11    17    18    2
    12    18    19    1
    13    19    20    2
    14    20    21    1
    15    21    22    2
    16    22    23    1
    17     3     4   ar
    18     4     5   ar
    19     5     6   ar
    20     6     7    1
    21     7     8    1
    22     9     8    1
    23     9    10    1
    24    10    11    1
    25    11    12    1
    26    12    13    1
    27    13    14    1
    28    24    25    1
    29    25    26    1
    30    26    27    1
    31    27    28    1
    32    28    29    1
    33    29    24    1
    34     6     1   ar
    35    14     9    1
    36    23    15    1
    37    14     5    1
    38    23    19    1
@<TRIPOS>MOLECULE
*****
 33 38 0 0 0
SMALL
GASTEIGER

@<TRIPOS>ATOM
      1 C           5.6622   -1.9661   25.7612 C.ar    1  UNL1        0.1170
      2 N           6.4735   -3.1975   26.0357 N.ar    1  UNL1       -0.2264
      3 C           6.5873   -4.2688   24.9919 C.ar    1  UNL1        0.1602
      4 N           5.8898   -4.1087   23.6737 N.ar    1  UNL1       -0.2091
      5 C           5.0784   -2.8773   23.3992 C.ar    1  UNL1        0.1690
      6 C           4.9646   -1.8060   24.4429 C.ar    1  UNL1        0.1850
      7 O           4.1532   -0.5746   24.1684 O.3     1  UNL1       -0.4695
      8 C           3.4557   -0.4145   22.8502 C.3     1  UNL1        0.2277
      9 C           3.5695   -1.4858   21.8064 C.3     1  UNL1        0.1477
     10 C           2.8719   -1.3257   20.4881 C.3     1  UNL1        0.1657
     11 O           2.9858   -2.3970   19.4445 O.3     1  UNL1       -0.3501
     12 C           3.7971   -3.6284   19.7190 C.3     1  UNL1        0.1636
     13 C           4.4947   -3.7885   21.0372 C.3     1  UNL1        0.1244
     14 N           4.3809   -2.7172   22.0809 N.pl3   1  UNL1       -0.2840
     15 C           7.3987   -5.5002   25.2665 C.2     1  UNL1        0.0230
     16 C           8.0057   -6.2673   24.1293 C.2     1  UNL1       -0.0005
     17 C           8.8171   -7.4987   24.4038 C.2     1  UNL1        0.0010
     18 C           9.0214   -7.9630   25.8155 C.2     1  UNL1        0.0153
     19 C           8.4145   -7.1958   26.9526 C.2     1  UNL1        0.0669
     20 N           8.4441   -7.4100   28.4369 N.2     1  UNL1       -0.2478
     21 C           7.6511   -6.3110   29.0798 C.2     1  UNL1        0.0946
     22 C           7.1313   -5.4176   27.9927 C.2     1  UNL1        0.0046
     23 C           7.6031   -5.9644   26.6781 C.3     1  UNL1        0.0888
     24 C           5.5484   -0.8948   26.8049 C.3     1  UNL1        0.1533
     25 C           4.1926   -1.5247   26.9292 C.3     1  UNL1        0.0599
     26 C           3.2077   -0.9937   27.9282 C.3     1  UNL1        0.1443
     27 O           3.5785    0.1672   28.8029 O.3     1  UNL1       -0.3536
     28 C           4.9342    0.7970   28.6785 C.3     1  UNL1        0.1443
     29 C           5.9191    0.2660   27.6796 C.3     1  UNL1        0.0599
     30 C           8.3388   -0.3793   25.8313 C.3     1  UNL1        0.1764
     31 S           6.9435   -0.6370   26.3181 S.O2    1  UNL1       -0.0062
     32 O           6.8010   -0.0662   25.3963 O.2     1  UNL1       -0.1727
     33 O           7.4931   -1.3797   27.4998 O.2     1  UNL1       -0.1727
@<TRIPOS>BOND
     1    30    31    1
     2    31    32    2
     3    31    33    2
     4    31    24    1
     5    24     1    1
     6     1     2   ar
     7     2     3   ar
     8     3    15    1
     9    15    16    2
    10    16    17    1
    11    17    18    2
    12    18    19    1
    13    19    20    2
    14    20    21    1
    15    21    22    2
    16    22    23    1
    17     3     4   ar
    18     4     5   ar
    19     5     6   ar
    20     6     7    1
    21     7     8    1
    22     9     8    1
    23     9    10    1
    24    10    11    1
    25    11    12    1
    26    12    13    1
    27    13    14    1
    28    24    25    1
    29    25    26    1
    30    26    27    1
    31    27    28    1
    32    28    29    1
    33    29    24    1
    34     6     1   ar
    35    14     9    1
    36    23    15    1
    37    14     5    1
    38    23    19    1
@<TRIPOS>MOLECULE
*****
 33 38 0 0 0
SMALL
GASTEIGER

@<TRIPOS>ATOM
      1 C          -0.6853    2.6305   26.7525 C.ar    1  UNL1        0.1170
      2 N          -2.0134    3.3148   26.8859 N.ar    1  UNL1       -0.2264
      3 C          -2.7611    3.7467   25.6593 C.ar    1  UNL1        0.1602
      4 N          -2.1807    3.4942   24.2994 N.ar    1  UNL1       -0.2091
      5 C          -0.8526    2.8098   24.1660 C.ar    1  UNL1        0.1690
      6 C          -0.1049    2.3779   25.3925 C.ar    1  UNL1        0.1850
      7 O           1.2232    1.6936   25.2592 O.3     1  UNL1       -0.4695
      8 C           1.8036    1.4410   23.8993 C.3     1  UNL1        0.2277
      9 C           1.0559    1.8729   22.6727 C.3     1  UNL1        0.1477
     10 C           1.6363    1.6204   21.3128 C.3     1  UNL1        0.1657
     11 O           0.8886    2.0522   20.0863 O.3     1  UNL1       -0.3501
     12 C          -0.4395    2.7366   20.2197 C.3     1  UNL1        0.1636
     13 C          -1.0199    2.9891   21.5795 C.3     1  UNL1        0.1244
     14 N          -0.2722    2.5573   22.8061 N.pl3   1  UNL1       -0.2840
     15 C          -4.0892    4.4311   25.7927 C.2     1  UNL1        0.0230
     16 C          -4.4057    5.2197   27.0288 C.2     1  UNL1       -0.0005
     17 C          -5.7338    5.9041   27.1622 C.2     1  UNL1        0.0010
     18 C          -6.7454    5.7998   26.0594 C.2     1  UNL1        0.0153
     19 C          -6.4288    5.0112   24.8233 C.2     1  UNL1        0.0669
     20 N          -7.2207    4.7325   23.5803 N.2     1  UNL1       -0.2478
     21 C          -6.3822    3.8758   22.6787 C.2     1  UNL1        0.0946
     22 C          -5.0719    3.6251   23.3645 C.2     1  UNL1        0.0046
     23 C          -5.1007    4.3269   24.6900 C.3     1  UNL1        0.0888
     24 C           0.0624    2.1986   27.9790 C.3     1  UNL1        0.1533
     25 C          -0.7176    0.9490   27.6960 C.3     1  UNL1        0.0599
     26 C          -0.5691   -0.2464   28.5899 C.3     1  UNL1        0.1443
     27 O           0.3594   -0.1922   29.7668 O.3     1  UNL1       -0.3536
     28 C           1.1393    1.0574   30.0498 C.3     1  UNL1        0.1443
     29 C           0.9909    2.2528   29.1559 C.3     1  UNL1        0.0599
     30 C           1.1031    4.9978   27.6931 C.3     1  UNL1        0.1764
     31 S           0.5827    3.5981   27.8361 S.O2    1  UNL1       -0.0062
     32 O          -0.2881    4.2266   28.0420 O.2     1  UNL1       -0.1727
     33 O           1.9438    3.0588   27.5092 O.2     1  UNL1       -0.1727
@<TRIPOS>BOND
     1    30    31    1
     2    31    32    2
     3    31    33    2
     4    31    24    1
     5    24     1    1
     6     1     2   ar
     7     2     3   ar
     8     3    15    1
     9    15    16    2
    10    16    17    1
    11    17    18    2
    12    18    19    1
    13    19    20    2
    14    20    21    1
    15    21    22    2
    16    22    23    1
    17     3     4   ar
    18     4     5   ar
    19     5     6   ar
    20     6     7    1
    21     7     8    1
    22     9     8    1
    23     9    10    1
    24    10    11    1
    25    11    12    1
    26    12    13    1
    27    13    14    1
    28    24    25    1
    29    25    26    1
    30    26    27    1
    31    27    28    1
    32    28    29    1
    33    29    24    1
    34     6     1   ar
    35    14     9    1
    36    23    15    1
    37    14     5    1
    38    23    19    1
@<TRIPOS>MOLECULE
*****
 33 38 0 0 0
SMALL
GASTEIGER

@<TRIPOS>ATOM
      1 C           6.7406   -2.2964   31.6819 C.ar    1  UNL1        0.1170
      2 N           6.3569   -1.6600   32.9849 N.ar    1  UNL1       -0.2264
      3 C           5.2161   -0.6875   33.0373 C.ar    1  UNL1        0.1602
      4 N           4.4590   -0.3512   31.7868 N.ar    1  UNL1       -0.2091
      5 C           4.8428   -0.9876   30.4838 C.ar    1  UNL1        0.1690
      6 C           5.9835   -1.9601   30.4313 C.ar    1  UNL1        0.1850
      7 O           6.3672   -2.5965   29.1283 O.3     1  UNL1       -0.4695
      8 C           5.6102   -2.2603   27.8778 C.3     1  UNL1        0.2277
      9 C           4.4694   -1.2877   27.9303 C.3     1  UNL1        0.1477
     10 C           3.7124   -0.9514   26.6797 C.3     1  UNL1        0.1657
     11 O           2.5716    0.0211   26.7322 O.3     1  UNL1       -0.3501
     12 C           2.1879    0.6574   28.0353 C.3     1  UNL1        0.1636
     13 C           2.9449    0.3212   29.2858 C.3     1  UNL1        0.1244
     14 N           4.0857   -0.6513   29.2333 N.pl3   1  UNL1       -0.2840
     15 C           4.8323   -0.0511   34.3404 C.2     1  UNL1        0.0230
     16 C           5.5190   -0.4651   35.6081 C.2     1  UNL1       -0.0005
     17 C           5.1353    0.1712   36.9111 C.2     1  UNL1        0.0010
     18 C           4.0649    1.2215   36.9464 C.2     1  UNL1        0.0153
     19 C           3.3783    1.6355   35.6786 C.2     1  UNL1        0.0669
     20 N           2.2950    2.6361   35.4045 N.2     1  UNL1       -0.2478
     21 C           2.0091    2.6182   33.9321 C.2     1  UNL1        0.0946
     22 C           2.9158    1.6065   33.2963 C.2     1  UNL1        0.0046
     23 C           3.7620    0.9991   34.3756 C.3     1  UNL1        0.0888
     24 C           7.8814   -3.2689   31.6294 C.3     1  UNL1        0.1533
     25 C           6.7242   -4.2204   31.5529 C.3     1  UNL1        0.0599
     26 C           6.9721   -5.6966   31.4569 C.3     1  UNL1        0.1443
     27 O           8.3773   -6.2214   31.4372 O.3     1  UNL1       -0.3536
     28 C           9.5343   -5.2700   31.5137 C.3     1  UNL1        0.1443
     29 C           9.2864   -3.7938   31.6098 C.3     1  UNL1        0.0599
     30 C           9.4032   -0.6905   31.8188 C.3     1  UNL1        0.1764
     31 S           8.6423   -1.9798   31.7241 S.O2    1  UNL1       -0.0062
     32 O           8.5822   -1.5622   30.7152 O.2     1  UNL1       -0.1727
     33 O           8.9170   -2.2484   33.1741 O.2     1  UNL1       -0.1727
@<TRIPOS>BOND
     1    30    31    1
     2    31    32    2
     3    31    33    2
     4    31    24    1
     5    24     1    1
     6     1     2   ar
     7     2     3   ar
     8     3    15    1
     9    15    16    2
    10    16    17    1
    11    17    18    2
    12    18    19    1
    13    19    20    2
    14    20    21    1
    15    21    22    2
    16    22    23    1
    17     3     4   ar
    18     4     5   ar
    19     5     6   ar
    20     6     7    1
    21     7     8    1
    22     9     8    1
    23     9    10    1
    24    10    11    1
    25    11    12    1
    26    12    13    1
    27    13    14    1
    28    24    25    1
    29    25    26    1
    30    26    27    1
    31    27    28    1
    32    28    29    1
    33    29    24    1
    34     6     1   ar
    35    14     9    1
    36    23    15    1
    37    14     5    1
    38    23    19    1
@<TRIPOS>MOLECULE
*****
 33 38 0 0 0
SMALL
GASTEIGER

@<TRIPOS>ATOM
      1 C           5.4538   -0.1306   33.5140 C.ar    1  UNL1        0.1170
      2 N           6.1138   -1.3593   32.9622 N.ar    1  UNL1       -0.2264
      3 C           5.5457   -2.0355   31.7496 C.ar    1  UNL1        0.1602
      4 N           4.3177   -1.4829   31.0890 N.ar    1  UNL1       -0.2091
      5 C           3.6577   -0.2541   31.6408 C.ar    1  UNL1        0.1690
      6 C           4.2257    0.4220   32.8532 C.ar    1  UNL1        0.1850
      7 O           3.5656    1.6508   33.4050 O.3     1  UNL1       -0.4695
      8 C           2.3376    2.2034   32.7443 C.3     1  UNL1        0.2277
      9 C           1.7695    1.5272   31.5318 C.3     1  UNL1        0.1477
     10 C           0.5415    2.0798   30.8711 C.3     1  UNL1        0.1657
     11 O          -0.0265    1.4036   29.6587 O.3     1  UNL1       -0.3501
     12 C           0.6335    0.1749   29.1069 C.3     1  UNL1        0.1636
     13 C           1.8616   -0.3777   29.7676 C.3     1  UNL1        0.1244
     14 N           2.4296    0.2984   30.9800 N.pl3   1  UNL1       -0.2840
     15 C           6.2057   -3.2643   31.1979 C.2     1  UNL1        0.0230
     16 C           6.5363   -4.4106   32.1072 C.2     1  UNL1       -0.0005
     17 C           7.1963   -5.6394   31.5554 C.2     1  UNL1        0.0010
     18 C           7.5258   -5.7219   30.0943 C.2     1  UNL1        0.0153
     19 C           7.1952   -4.5756   29.1851 C.2     1  UNL1        0.0669
     20 N           7.3985   -4.3712   27.7130 N.2     1  UNL1       -0.2478
     21 C           6.8642   -3.0161   27.3550 C.2     1  UNL1        0.0946
     22 C           6.3306   -2.3830   28.6058 C.2     1  UNL1        0.0046
     23 C           6.5352   -3.3468   29.7369 C.3     1  UNL1        0.0888
     24 C           6.0218    0.5456   34.7264 C.3     1  UNL1        0.1533
     25 C           4.7773   -0.0473   35.3179 C.3     1  UNL1        0.0599
     26 C           4.4646    0.1603   36.7701 C.3     1  UNL1        0.1443
     27 O           5.3963    0.9609   37.6310 O.3     1  UNL1       -0.3536
     28 C           6.6407    1.5538   37.0395 C.3     1  UNL1        0.1443
     29 C           6.9534    1.3462   35.5872 C.3     1  UNL1        0.0599
     30 C           8.1161    1.2618   32.7013 C.3     1  UNL1        0.1764
     31 S           7.0689    0.9037   33.7139 S.O2    1  UNL1       -0.0062
     32 O           6.6157    1.7174   33.1409 O.2     1  UNL1       -0.1727
     33 O           7.9708   -0.1573   34.2713 O.2     1  UNL1       -0.1727
@<TRIPOS>BOND
     1    30    31    1
     2    31    32    2
     3    31    33    2
     4    31    24    1
     5    24     1    1
     6     1     2   ar
     7     2     3   ar
     8     3    15    1
     9    15    16    2
    10    16    17    1
    11    17    18    2
    12    18    19    1
    13    19    20    2
    14    20    21    1
    15    21    22    2
    16    22    23    1
    17     3     4   ar
    18     4     5   ar
    19     5     6   ar
    20     6     7    1
    21     7     8    1
    22     9     8    1
    23     9    10    1
    24    10    11    1
    25    11    12    1
    26    12    13    1
    27    13    14    1
    28    24    25    1
    29    25    26    1
    30    26    27    1
    31    27    28    1
    32    28    29    1
    33    29    24    1
    34     6     1   ar
    35    14     9    1
    36    23    15    1
    37    14     5    1
    38    23    19    1
