@<TRIPOS>MOLECULE
*****
 22 24 0 0 0
SMALL
GASTEIGER

@<TRIPOS>ATOM
      1 N          -8.3454  -17.8139   22.1744 N.pl3   1  UNL1       -0.2873
      2 C          -9.7710  -17.5356   21.8001 C.ar    1  UNL1        0.0475
      3 C         -10.4092  -16.5691   22.7533 C.ar    1  UNL1        0.0145
      4 C         -11.8377  -16.1554   22.5576 C.ar    1  UNL1        0.0013
      5 C         -12.6279  -16.7082   21.4087 C.ar    1  UNL1       -0.0002
      6 C         -11.9897  -17.6747   20.4555 C.ar    1  UNL1       -0.0030
      7 C         -10.5613  -18.0883   20.6512 C.ar    1  UNL1       -0.0082
      8 C         -10.1210  -19.0560   19.5930 C.3     1  UNL1        0.0323
      9 C          -8.7819  -19.7099   19.4222 C.3     1  UNL1        0.0323
     10 C          -7.5522  -19.5576   20.2676 C.ar    1  UNL1       -0.0082
     11 C          -6.4214  -20.3935   19.7456 C.ar    1  UNL1       -0.0022
     12 C          -5.0962  -20.3856   20.4485 C.ar    1  UNL1        0.0112
     13 C          -4.9020  -19.5419   21.6733 C.ar    1  UNL1        0.0589
     14 CL         -3.5769  -19.5339   22.3763 Cl      1  UNL1       -0.0822
     15 C          -6.0328  -18.7059   22.1953 C.ar    1  UNL1        0.0259
     16 C          -7.3579  -18.7138   21.4925 C.ar    1  UNL1        0.0484
     17 C          -7.8405  -17.0977   23.3918 C.3     1  UNL1        0.0970
     18 C          -7.3749  -15.6756   23.2862 C.3     1  UNL1        0.0391
     19 C          -7.4127  -14.7827   24.4909 C.3     1  UNL1        0.0739
     20 C          -5.4699  -15.5468   26.0373 C.3     1  UNL1        0.0897
     21 N          -6.9316  -15.2919   25.8172 N.3     1  UNL1       -0.2703
     22 C          -7.9121  -15.5464   26.9234 C.3     1  UNL1        0.0897
@<TRIPOS>BOND
     1    20    21    1
     2    21    22    1
     3    21    19    1
     4    19    18    1
     5    18    17    1
     6    17     1    1
     7     1     2    1
     8     2     3   ar
     9     3     4   ar
    10     4     5   ar
    11     5     6   ar
    12     6     7   ar
    13     7     8    1
    14     8     9    1
    15     9    10    1
    16    10    11   ar
    17    11    12   ar
    18    12    13   ar
    19    13    14    1
    20    13    15   ar
    21    15    16   ar
    22    16     1    1
    23     7     2   ar
    24    16    10   ar
@<TRIPOS>MOLECULE
*****
 22 24 0 0 0
SMALL
GASTEIGER

@<TRIPOS>ATOM
      1 N          -7.9416  -17.9331   22.1553 N.pl3   1  UNL1       -0.2873
      2 C          -6.7479  -18.6975   21.6646 C.ar    1  UNL1        0.0475
      3 C          -5.5534  -18.4714   22.5432 C.ar    1  UNL1        0.0145
      4 C          -4.2516  -19.1464   22.2273 C.ar    1  UNL1        0.0013
      5 C          -4.1443  -20.0473   21.0329 C.ar    1  UNL1       -0.0002
      6 C          -5.3388  -20.2734   20.1543 C.ar    1  UNL1       -0.0030
      7 C          -6.6406  -19.5985   20.4701 C.ar    1  UNL1       -0.0082
      8 C          -7.7006  -19.9576   19.4714 C.3     1  UNL1        0.0323
      9 C          -9.1296  -19.5045   19.4204 C.3     1  UNL1        0.0323
     10 C          -9.8516  -18.5803   20.3556 C.ar    1  UNL1       -0.0082
     11 C         -11.2808  -18.3892   19.9423 C.ar    1  UNL1       -0.0022
     12 C         -12.1814  -17.4987   20.7462 C.ar    1  UNL1        0.0112
     13 C         -11.6527  -16.7994   21.9633 C.ar    1  UNL1        0.0589
     14 CL        -12.5531  -15.9090   22.7672 Cl      1  UNL1       -0.0822
     15 C         -10.2235  -16.9905   22.3766 C.ar    1  UNL1        0.0259
     16 C          -9.3229  -17.8809   21.5728 C.ar    1  UNL1        0.0484
     17 C          -7.7255  -17.1124   23.3921 C.3     1  UNL1        0.0970
     18 C          -7.3722  -15.6592   23.2756 C.3     1  UNL1        0.0391
     19 C          -7.4173  -14.7769   24.4879 C.3     1  UNL1        0.0739
     20 C          -5.5059  -15.5033   26.0906 C.3     1  UNL1        0.0897
     21 N          -6.9676  -15.3058   25.8175 N.3     1  UNL1       -0.2703
     22 C          -7.9794  -15.6374   26.8740 C.3     1  UNL1        0.0897
@<TRIPOS>BOND
     1    20    21    1
     2    21    22    1
     3    21    19    1
     4    19    18    1
     5    18    17    1
     6    17     1    1
     7     1     2    1
     8     2     3   ar
     9     3     4   ar
    10     4     5   ar
    11     5     6   ar
    12     6     7   ar
    13     7     8    1
    14     8     9    1
    15     9    10    1
    16    10    11   ar
    17    11    12   ar
    18    12    13   ar
    19    13    14    1
    20    13    15   ar
    21    15    16   ar
    22    16     1    1
    23     7     2   ar
    24    16    10   ar
@<TRIPOS>MOLECULE
*****
 22 24 0 0 0
SMALL
GASTEIGER

@<TRIPOS>ATOM
      1 N          -6.5611  -18.6215   21.9995 N.pl3   1  UNL1       -0.2873
      2 C          -5.0936  -18.8554   21.7953 C.ar    1  UNL1        0.0475
      3 C          -4.8463  -19.9998   20.8578 C.ar    1  UNL1        0.0145
      4 C          -3.4414  -20.4006   20.5178 C.ar    1  UNL1        0.0013
      5 C          -2.2838  -19.6570   21.1153 C.ar    1  UNL1       -0.0002
      6 C          -2.5312  -18.5126   22.0529 C.ar    1  UNL1       -0.0030
      7 C          -3.9360  -18.1118   22.3929 C.ar    1  UNL1       -0.0082
      8 C          -3.9602  -16.9506   23.3422 C.3     1  UNL1        0.0323
      9 C          -5.1477  -16.2463   23.9284 C.3     1  UNL1        0.0323
     10 C          -6.6045  -16.5292   23.7100 C.ar    1  UNL1       -0.0082
     11 C          -7.4693  -15.5840   24.4902 C.ar    1  UNL1       -0.0022
     12 C          -8.9631  -15.6958   24.4120 C.ar    1  UNL1        0.0112
     13 C          -9.5921  -16.7529   23.5536 C.ar    1  UNL1        0.0589
     14 CL        -11.0859  -16.8648   23.4753 Cl      1  UNL1       -0.0822
     15 C          -8.7274  -17.6981   22.7734 C.ar    1  UNL1        0.0259
     16 C          -7.2336  -17.5863   22.8516 C.ar    1  UNL1        0.0484
     17 C          -7.4774  -19.5450   21.2528 C.3     1  UNL1        0.0970
     18 C          -7.8976  -19.2133   19.8515 C.3     1  UNL1        0.0391
     19 C          -9.2693  -19.5854   19.3719 C.3     1  UNL1        0.0739
     20 C         -11.1049  -19.9652   21.1708 C.3     1  UNL1        0.0897
     21 N         -10.4799  -19.1028   20.1145 N.3     1  UNL1       -0.2703
     22 C         -11.0655  -17.7580   19.8009 C.3     1  UNL1        0.0897
@<TRIPOS>BOND
     1    20    21    1
     2    21    22    1
     3    21    19    1
     4    19    18    1
     5    18    17    1
     6    17     1    1
     7     1     2    1
     8     2     3   ar
     9     3     4   ar
    10     4     5   ar
    11     5     6   ar
    12     6     7   ar
    13     7     8    1
    14     8     9    1
    15     9    10    1
    16    10    11   ar
    17    11    12   ar
    18    12    13   ar
    19    13    14    1
    20    13    15   ar
    21    15    16   ar
    22    16     1    1
    23     7     2   ar
    24    16    10   ar
@<TRIPOS>MOLECULE
*****
 22 24 0 0 0
SMALL
GASTEIGER

@<TRIPOS>ATOM
      1 N          -6.7383  -18.3271   22.3403 N.pl3   1  UNL1       -0.2873
      2 C          -5.7043  -19.1190   21.5961 C.ar    1  UNL1        0.0475
      3 C          -6.3371  -20.1492   20.7084 C.ar    1  UNL1        0.0145
      4 C          -5.4764  -21.0508   19.8739 C.ar    1  UNL1        0.0013
      5 C          -3.9829  -20.9221   19.9272 C.ar    1  UNL1       -0.0002
      6 C          -3.3501  -19.8918   20.8149 C.ar    1  UNL1       -0.0030
      7 C          -4.2108  -18.9903   21.6493 C.ar    1  UNL1       -0.0082
      8 C          -3.3825  -18.0380   22.4600 C.3     1  UNL1        0.0323
      9 C          -3.8430  -16.9792   23.4175 C.3     1  UNL1        0.0323
     10 C          -5.2457  -16.6112   23.8009 C.ar    1  UNL1       -0.0082
     11 C          -5.2653  -15.4894   24.7964 C.ar    1  UNL1       -0.0022
     12 C          -6.5735  -14.9674   25.3125 C.ar    1  UNL1        0.0112
     13 C          -7.8620  -15.5673   24.8332 C.ar    1  UNL1        0.0589
     14 CL         -9.1701  -15.0454   25.3492 Cl      1  UNL1       -0.0822
     15 C          -7.8424  -16.6891   23.8376 C.ar    1  UNL1        0.0259
     16 C          -6.5343  -17.2111   23.3215 C.ar    1  UNL1        0.0484
     17 C          -8.1651  -18.7008   22.0671 C.3     1  UNL1        0.0970
     18 C          -8.8493  -19.7250   22.9232 C.3     1  UNL1        0.0391
     19 C         -10.3030  -20.0287   22.7122 C.3     1  UNL1        0.0739
     20 C         -11.8401  -18.4052   21.3889 C.3     1  UNL1        0.0897
     21 N         -11.3071  -18.9146   22.6952 N.3     1  UNL1       -0.2703
     22 C         -11.7783  -18.3098   23.9844 C.3     1  UNL1        0.0897
@<TRIPOS>BOND
     1    20    21    1
     2    21    22    1
     3    21    19    1
     4    19    18    1
     5    18    17    1
     6    17     1    1
     7     1     2    1
     8     2     3   ar
     9     3     4   ar
    10     4     5   ar
    11     5     6   ar
    12     6     7   ar
    13     7     8    1
    14     8     9    1
    15     9    10    1
    16    10    11   ar
    17    11    12   ar
    18    12    13   ar
    19    13    14    1
    20    13    15   ar
    21    15    16   ar
    22    16     1    1
    23     7     2   ar
    24    16    10   ar
@<TRIPOS>MOLECULE
*****
 22 24 0 0 0
SMALL
GASTEIGER

@<TRIPOS>ATOM
      1 N          -7.8403  -17.2902   22.3850 N.pl3   1  UNL1       -0.2873
      2 C          -6.4049  -17.6382   22.6468 C.ar    1  UNL1        0.0475
      3 C          -5.8045  -16.7404   23.6877 C.ar    1  UNL1        0.0145
      4 C          -4.3730  -16.9204   24.0979 C.ar    1  UNL1        0.0013
      5 C          -3.5419  -17.9982   23.4673 C.ar    1  UNL1       -0.0002
      6 C          -4.1424  -18.8960   22.4265 C.ar    1  UNL1       -0.0030
      7 C          -5.5739  -18.7160   22.0162 C.ar    1  UNL1       -0.0082
      8 C          -5.9730  -19.7120   20.9680 C.3     1  UNL1        0.0323
      9 C          -7.3016  -19.8762   20.2915 C.3     1  UNL1        0.0323
     10 C          -8.5594  -19.0849   20.4962 C.ar    1  UNL1       -0.0082
     11 C          -9.6672  -19.5787   19.6136 C.ar    1  UNL1       -0.0022
     12 C         -11.0148  -18.9217   19.6627 C.ar    1  UNL1        0.0112
     13 C         -11.2545  -17.7708   20.5943 C.ar    1  UNL1        0.0589
     14 CL        -12.6020  -17.1137   20.6435 Cl      1  UNL1       -0.0822
     15 C         -10.1467  -17.2770   21.4769 C.ar    1  UNL1        0.0259
     16 C          -8.7992  -17.9340   21.4279 C.ar    1  UNL1        0.0484
     17 C          -8.3895  -16.1472   23.1862 C.3     1  UNL1        0.0970
     18 C          -9.3401  -16.4117   24.3160 C.3     1  UNL1        0.0391
     19 C          -9.2974  -17.7245   25.0405 C.3     1  UNL1        0.0739
     20 C         -11.6646  -18.6376   24.4813 C.3     1  UNL1        0.0897
     21 N         -10.1849  -18.8518   24.6028 N.3     1  UNL1       -0.2703
     22 C          -9.5928  -20.1931   24.2865 C.3     1  UNL1        0.0897
@<TRIPOS>BOND
     1    20    21    1
     2    21    22    1
     3    21    19    1
     4    19    18    1
     5    18    17    1
     6    17     1    1
     7     1     2    1
     8     2     3   ar
     9     3     4   ar
    10     4     5   ar
    11     5     6   ar
    12     6     7   ar
    13     7     8    1
    14     8     9    1
    15     9    10    1
    16    10    11   ar
    17    11    12   ar
    18    12    13   ar
    19    13    14    1
    20    13    15   ar
    21    15    16   ar
    22    16     1    1
    23     7     2   ar
    24    16    10   ar
@<TRIPOS>MOLECULE
*****
 22 24 0 0 0
SMALL
GASTEIGER

@<TRIPOS>ATOM
      1 N          -8.5396  -17.5375   22.1379 N.pl3   1  UNL1       -0.2873
      2 C          -9.9384  -17.2965   21.6527 C.ar    1  UNL1        0.0475
      3 C         -10.6411  -16.2721   22.4934 C.ar    1  UNL1        0.0145
      4 C         -12.0549  -15.8839   22.1766 C.ar    1  UNL1        0.0013
      5 C         -12.7660  -16.5201   21.0192 C.ar    1  UNL1       -0.0002
      6 C         -12.0632  -17.5445   20.1785 C.ar    1  UNL1       -0.0030
      7 C         -10.6494  -17.9326   20.4953 C.ar    1  UNL1       -0.0082
      8 C         -10.1372  -18.9669   19.5371 C.3     1  UNL1        0.0323
      9 C          -8.7876  -19.6205   19.4997 C.3     1  UNL1        0.0323
     10 C          -7.6168  -19.4011   20.4114 C.ar    1  UNL1       -0.0082
     11 C          -6.4513  -20.2620   20.0232 C.ar    1  UNL1       -0.0022
     12 C          -5.1754  -20.1957   20.8092 C.ar    1  UNL1        0.0112
     13 C          -5.0650  -19.2688   21.9832 C.ar    1  UNL1        0.0589
     14 CL         -3.7891  -19.2025   22.7692 Cl      1  UNL1       -0.0822
     15 C          -6.2305  -18.4079   22.3714 C.ar    1  UNL1        0.0259
     16 C          -7.5063  -18.4741   21.5855 C.ar    1  UNL1        0.0484
     17 C          -8.1183  -16.7358   23.3336 C.3     1  UNL1        0.0970
     18 C          -8.1840  -17.3421   24.7041 C.3     1  UNL1        0.0391
     19 C          -9.5089  -17.7336   25.2883 C.3     1  UNL1        0.0739
     20 C          -9.4953  -20.1592   24.3577 C.3     1  UNL1        0.0897
     21 N         -10.2475  -18.9201   24.7436 N.3     1  UNL1       -0.2703
     22 C         -11.7381  -18.8675   24.5849 C.3     1  UNL1        0.0897
@<TRIPOS>BOND
     1    20    21    1
     2    21    22    1
     3    21    19    1
     4    19    18    1
     5    18    17    1
     6    17     1    1
     7     1     2    1
     8     2     3   ar
     9     3     4   ar
    10     4     5   ar
    11     5     6   ar
    12     6     7   ar
    13     7     8    1
    14     8     9    1
    15     9    10    1
    16    10    11   ar
    17    11    12   ar
    18    12    13   ar
    19    13    14    1
    20    13    15   ar
    21    15    16   ar
    22    16     1    1
    23     7     2   ar
    24    16    10   ar
@<TRIPOS>MOLECULE
*****
 22 24 0 0 0
SMALL
GASTEIGER

@<TRIPOS>ATOM
      1 N         -13.9722   -5.4863   19.2543 N.pl3   1  UNL1       -0.2873
      2 C         -15.0480   -4.4513   19.4012 C.ar    1  UNL1        0.0475
      3 C         -16.3997   -5.0836   19.5536 C.ar    1  UNL1        0.0145
      4 C         -17.6168   -4.2220   19.7147 C.ar    1  UNL1        0.0013
      5 C         -17.4824   -2.7280   19.7233 C.ar    1  UNL1       -0.0002
      6 C         -16.1308   -2.0957   19.5708 C.ar    1  UNL1       -0.0030
      7 C         -14.9136   -2.9574   19.4098 C.ar    1  UNL1       -0.0082
      8 C         -13.6702   -2.1295   19.2736 C.3     1  UNL1        0.0323
      9 C         -12.2541   -2.5909   19.0952 C.3     1  UNL1        0.0323
     10 C         -11.7318   -3.9944   19.0089 C.ar    1  UNL1       -0.0082
     11 C         -10.2427   -4.0148   18.8290 C.ar    1  UNL1       -0.0022
     12 C          -9.5183   -5.3238   18.7199 C.ar    1  UNL1        0.0112
     13 C         -10.2829   -6.6123   18.7908 C.ar    1  UNL1        0.0589
     14 CL         -9.5586   -7.9213   18.6817 Cl      1  UNL1       -0.0822
     15 C         -11.7719   -6.5919   18.9706 C.ar    1  UNL1        0.0259
     16 C         -12.4964   -5.2830   19.0797 C.ar    1  UNL1        0.0484
     17 C         -14.4333   -6.9133   19.2862 C.3     1  UNL1        0.0970
     18 C         -14.8296   -7.6021   18.0139 C.3     1  UNL1        0.0391
     19 C         -15.1989   -9.0558   18.0317 C.3     1  UNL1        0.0739
     20 C         -17.7196   -8.4363   18.1418 C.3     1  UNL1        0.0897
     21 N         -16.6297   -9.4638   18.2224 N.3     1  UNL1       -0.2703
     22 C         -16.9707  -10.8990   18.4936 C.3     1  UNL1        0.0897
@<TRIPOS>BOND
     1    20    21    1
     2    21    22    1
     3    21    19    1
     4    19    18    1
     5    18    17    1
     6    17     1    1
     7     1     2    1
     8     2     3   ar
     9     3     4   ar
    10     4     5   ar
    11     5     6   ar
    12     6     7   ar
    13     7     8    1
    14     8     9    1
    15     9    10    1
    16    10    11   ar
    17    11    12   ar
    18    12    13   ar
    19    13    14    1
    20    13    15   ar
    21    15    16   ar
    22    16     1    1
    23     7     2   ar
    24    16    10   ar
@<TRIPOS>MOLECULE
*****
 22 24 0 0 0
SMALL
GASTEIGER

@<TRIPOS>ATOM
      1 N         -13.0508   -3.4628   19.2932 N.pl3   1  UNL1       -0.2873
      2 C         -13.7085   -2.1194   19.1806 C.ar    1  UNL1        0.0475
      3 C         -14.9857   -2.0671   19.9656 C.ar    1  UNL1        0.0145
      4 C         -15.8020   -0.8089   19.9865 C.ar    1  UNL1        0.0013
      5 C         -15.3413    0.3969   19.2225 C.ar    1  UNL1       -0.0002
      6 C         -14.0642    0.3446   18.4375 C.ar    1  UNL1       -0.0030
      7 C         -13.2478   -0.9136   18.4166 C.ar    1  UNL1       -0.0082
      8 C         -12.0155   -0.7534   17.5765 C.3     1  UNL1        0.0323
      9 C         -10.9396   -1.7594   17.2928 C.3     1  UNL1        0.0323
     10 C         -10.8303   -3.1741   17.7793 C.ar    1  UNL1       -0.0082
     11 C          -9.5905   -3.8385   17.2582 C.ar    1  UNL1       -0.0022
     12 C          -9.2903   -5.2611   17.6274 C.ar    1  UNL1        0.0112
     13 C         -10.2299   -6.0192   18.5176 C.ar    1  UNL1        0.0589
     14 CL         -9.9297   -7.4417   18.8868 Cl      1  UNL1       -0.0822
     15 C         -11.4696   -5.3548   19.0387 C.ar    1  UNL1        0.0259
     16 C         -11.7699   -3.9323   18.6696 C.ar    1  UNL1        0.0484
     17 C         -13.7689   -4.4700   20.1416 C.3     1  UNL1        0.0970
     18 C         -14.9135   -5.2529   19.5694 C.3     1  UNL1        0.0391
     19 C         -14.7597   -6.7213   19.3046 C.3     1  UNL1        0.0739
     20 C         -14.6529   -8.6823   17.6038 C.3     1  UNL1        0.0897
     21 N         -14.5699   -7.2143   17.9008 N.3     1  UNL1       -0.2703
     22 C         -14.2970   -6.2395   16.7940 C.3     1  UNL1        0.0897
@<TRIPOS>BOND
     1    20    21    1
     2    21    22    1
     3    21    19    1
     4    19    18    1
     5    18    17    1
     6    17     1    1
     7     1     2    1
     8     2     3   ar
     9     3     4   ar
    10     4     5   ar
    11     5     6   ar
    12     6     7   ar
    13     7     8    1
    14     8     9    1
    15     9    10    1
    16    10    11   ar
    17    11    12   ar
    18    12    13   ar
    19    13    14    1
    20    13    15   ar
    21    15    16   ar
    22    16     1    1
    23     7     2   ar
    24    16    10   ar
@<TRIPOS>MOLECULE
*****
 22 24 0 0 0
SMALL
GASTEIGER

@<TRIPOS>ATOM
      1 N          -7.5367  -17.3001   22.3858 N.pl3   1  UNL1       -0.2873
      2 C          -6.7337  -16.6159   23.4521 C.ar    1  UNL1        0.0475
      3 C          -7.5111  -15.5071   24.0971 C.ar    1  UNL1        0.0145
      4 C          -6.8884  -14.6931   25.1924 C.ar    1  UNL1        0.0013
      5 C          -5.4883  -14.9880   25.6427 C.ar    1  UNL1       -0.0002
      6 C          -4.7109  -16.0968   24.9977 C.ar    1  UNL1       -0.0030
      7 C          -5.3336  -16.9108   23.9024 C.ar    1  UNL1       -0.0082
      8 C          -4.3908  -17.9626   23.3976 C.3     1  UNL1        0.0323
      9 C          -4.6151  -18.9794   22.3178 C.3     1  UNL1        0.0323
     10 C          -5.8379  -19.1953   21.4762 C.ar    1  UNL1       -0.0082
     11 C          -5.6441  -20.3244   20.5078 C.ar    1  UNL1       -0.0022
     12 C          -6.7506  -20.7062   19.5698 C.ar    1  UNL1        0.0112
     13 C          -8.0508  -19.9589   19.6000 C.ar    1  UNL1        0.0589
     14 CL         -9.1573  -20.3405   18.6620 Cl      1  UNL1       -0.0822
     15 C          -8.2445  -18.8298   20.5683 C.ar    1  UNL1        0.0259
     16 C          -7.1381  -18.4480   21.5064 C.ar    1  UNL1        0.0484
     17 C          -8.9216  -16.7656   22.1704 C.3     1  UNL1        0.0970
     18 C          -9.9872  -17.0075   23.1980 C.3     1  UNL1        0.0391
     19 C          -9.9091  -18.2105   24.0905 C.3     1  UNL1        0.0739
     20 C          -9.1996  -20.7081   23.9996 C.3     1  UNL1        0.0897
     21 N         -10.0662  -19.5853   23.5115 N.3     1  UNL1       -0.2703
     22 C         -11.0899  -19.8373   22.4446 C.3     1  UNL1        0.0897
@<TRIPOS>BOND
     1    20    21    1
     2    21    22    1
     3    21    19    1
     4    19    18    1
     5    18    17    1
     6    17     1    1
     7     1     2    1
     8     2     3   ar
     9     3     4   ar
    10     4     5   ar
    11     5     6   ar
    12     6     7   ar
    13     7     8    1
    14     8     9    1
    15     9    10    1
    16    10    11   ar
    17    11    12   ar
    18    12    13   ar
    19    13    14    1
    20    13    15   ar
    21    15    16   ar
    22    16     1    1
    23     7     2   ar
    24    16    10   ar
