@<TRIPOS>MOLECULE
*****
 67 73 0 0 0
SMALL
GASTEIGER

@<TRIPOS>ATOM
      1 C           7.1876   -2.5051   30.3367 C.3     1  UNL1        0.1399
      2 C           8.1199   -1.6276   29.5551 C.3     1  UNL1        0.0345
      3 C           7.7085   -0.2021   29.7752 C.3     1  UNL1        0.0323
      4 C           6.5218   -0.1985   30.6927 C.3     1  UNL1        0.1200
      5 C           6.5990    1.2907   30.5303 C.3     1  UNL1        0.0322
      6 O           6.1999   -1.6218   31.0396 O.3     1  UNL1       -0.3562
      7 C           7.9398   -4.5925   25.9052 C.3     1  UNL1        0.1222
      8 O           7.7079   -4.2235   27.3405 O.3     1  UNL1       -0.3365
      9 C           7.5909   -5.2972   28.3814 C.3     1  UNL1        0.1892
     10 C           7.4537   -6.2556   29.5271 C.3     1  UNL1        0.0588
     11 C           7.2335   -5.4557   30.7767 C.3     1  UNL1        0.0347
     12 C           7.2346   -4.0029   30.4034 C.3     1  UNL1        0.1200
     13 C           7.1186   -4.0827   31.1881 C.3     1  UNL1        0.0322
     14 O           7.4556   -3.9049   28.9230 O.3     1  UNL1       -0.3366
     15 C           7.7059   -6.7398   27.9871 C.3     1  UNL1        0.0855
     16 C           7.9378   -7.1088   26.5518 C.3     1  UNL1        0.1177
     17 O           8.0527   -8.5516   26.1575 O.3     1  UNL1       -0.3842
     18 C           8.0547   -6.0352   25.5109 C.3     1  UNL1        0.0544
     19 C           8.2867   -6.4043   24.0756 C.3     1  UNL1        0.0050
     20 H           7.9547   -9.1105   26.9442 H       1  UNL1        0.2103
     21 C           8.0568   -3.5189   24.8643 C.3     1  UNL1        0.0572
     22 C           9.3850   -2.8754   24.5964 C.3     1  UNL1        0.0051
     23 C           5.9582   -2.0054   24.6290 C.3     1  UNL1        0.1695
     24 C           4.7468   -1.5752   23.8560 C.3     1  UNL1        0.1493
     25 C           4.4227   -2.2283   22.5451 C.3     1  UNL1        0.0814
     26 C           3.2114   -1.7980   21.7721 C.3     1  UNL1        0.0076
     27 C           5.3100   -3.3115   22.0072 C.3     1  UNL1        0.1910
     28 O           5.8405   -4.3735   21.0903 O.3     1  UNL1       -0.3632
     29 O           6.5213   -3.7417   22.7803 O.3     1  UNL1       -0.3339
     30 C           6.8454   -3.0887   24.0912 C.3     1  UNL1        0.1493
     31 H           5.2620   -4.4502   20.3155 H       1  UNL1        0.2128
     32 C           5.4241   -1.6159   27.1417 C.3     1  UNL1        0.1742
     33 O           6.2822   -1.3523   25.9400 O.3     1  UNL1       -0.3486
     34 O           3.8596   -0.4920   24.3939 O.3     1  UNL1       -0.3508
     35 C           4.2013    0.9480   24.1491 C.3     1  UNL1        0.1741
     36 C           4.2829   -3.2501   20.9157 C.3     1  UNL1        0.0977
     37 C           4.2858   -4.2793   19.8245 C.2     1  UNL1        0.0552
     38 O           4.9785   -3.9930   18.5253 O.co2   1  UNL1       -0.5490
     39 O           3.5958   -5.5949   20.0326 O.co2   1  UNL1       -0.5490
     40 C           5.3513    0.1165   31.5762 C.3     1  UNL1        0.1669
     41 O           5.4143    0.7800   32.9199 O.3     1  UNL1       -0.3513
     42 C           4.0142    0.8968   33.4454 C.3     1  UNL1        0.1449
     43 C           3.0858    0.3055   32.4263 C.3     1  UNL1        0.0643
     44 C           3.9123   -0.1768   31.2711 C.3     1  UNL1        0.1496
     45 C           3.6128    1.4992   34.7591 C.3     1  UNL1        0.1445
     46 O           2.7166    2.7016   34.7904 O.3     1  UNL1       -0.3345
     47 C           2.3152    3.3039   36.1042 C.3     1  UNL1        0.1835
     48 C           1.6634    4.2259   37.0917 C.3     1  UNL1        0.0610
     49 O           1.5939    4.2242   35.1645 O.3     1  UNL1       -0.3635
     50 C           2.8101    2.7038   37.3867 C.3     1  UNL1        0.0514
     51 C           2.4088    3.3061   38.7005 C.3     1  UNL1        0.0050
     52 C           3.7063    1.5014   37.3556 C.3     1  UNL1        0.0073
     53 C           4.1077    0.8991   36.0418 C.3     1  UNL1        0.0299
     54 C           5.0039   -0.3034   36.0105 C.3     1  UNL1        0.0026
     55 H           1.7645    3.9508   34.2496 H       1  UNL1        0.2128
     56 O           3.3910   -0.8366   30.0288 O.3     1  UNL1       -0.3303
     57 C           2.3032   -0.1803   29.2312 C.3     1  UNL1        0.2377
     58 C           2.6537    0.7642   28.1199 C.3     1  UNL1        0.0934
     59 C           1.5659    1.4204   27.3223 C.3     1  UNL1        0.1498
     60 C           0.1277    1.1321   27.6360 C.3     1  UNL1        0.1694
     61 C          -0.2227    0.1876   28.7473 C.3     1  UNL1        0.1472
     62 C          -1.6609   -0.1007   29.0611 C.3     1  UNL1        0.0348
     63 O           0.8650   -0.4686   29.5449 O.3     1  UNL1       -0.3304
     64 O           1.9164    2.3649   26.2109 O.3     1  UNL1       -0.3508
     65 C           2.5116    3.7053   26.5255 C.3     1  UNL1        0.1741
     66 O          -0.9601    1.7883   26.8384 O.3     1  UNL1       -0.3486
     67 C          -1.2853    3.2354   27.0621 C.3     1  UNL1        0.1742
@<TRIPOS>UNITY_ATOM_ATTR
38 1
charge -1
@<TRIPOS>BOND
     1    32    33    1
     2    23    33    1
     3    23    24    1
     4    24    34    1
     5    34    35    1
     6    24    25    1
     7    25    26    1
     8    25    27    1
     9    27    28    1
    10    27    36    1
    11    36    37    1
    12    37    38   ar
    13    37    39   ar
    14    27    29    1
    15    30    29    1
    16    30    21    1
    17    21    22    1
    18    21     7    1
    19     7     8    1
    20     8     9    1
    21     9    10    1
    22    10    11    1
    23    11    12    1
    24    12    13    1
    25    12     1    1
    26     1     2    1
    27     2     3    1
    28     3     4    1
    29     4     5    1
    30     4    40    1
    31    40    41    1
    32    41    42    1
    33    42    45    1
    34    45    46    1
    35    46    47    1
    36    47    48    1
    37    47    49    1
    38    47    50    1
    39    50    51    1
    40    50    52    1
    41    52    53    1
    42    53    54    1
    43    42    43    1
    44    43    44    1
    45    44    56    1
    46    57    56    1
    47    57    58    1
    48    58    59    1
    49    59    64    1
    50    64    65    1
    51    59    60    1
    52    60    66    1
    53    66    67    1
    54    60    61    1
    55    61    62    1
    56    61    63    1
    57     4     6    1
    58    12    14    1
    59     9    15    1
    60    15    16    1
    61    16    17    1
    62    16    18    1
    63    18    19    1
    64    30    23    1
    65    18     7    1
    66    14     9    1
    67     6     1    1
    68    44    40    1
    69    63    57    1
    70    53    45    1
    71    28    31    1
    72    49    55    1
    73    17    20    1
@<TRIPOS>MOLECULE
*****
 67 73 0 0 0
SMALL
GASTEIGER

@<TRIPOS>ATOM
      1 C           2.1193    1.1162   23.0290 C.3     1  UNL1        0.1399
      2 C           3.4881    1.5652   23.4472 C.3     1  UNL1        0.0345
      3 C           3.3561    2.3094   24.7428 C.3     1  UNL1        0.0323
      4 C           1.9057    2.3204   25.1254 C.3     1  UNL1        0.1200
      5 C           2.3880    3.0940   26.3166 C.3     1  UNL1        0.0322
      6 O           1.1414    1.5829   24.0662 O.3     1  UNL1       -0.3562
      7 C           5.6730   -2.1076   21.7882 C.3     1  UNL1        0.1222
      8 O           4.4660   -1.2297   21.9377 O.3     1  UNL1       -0.3365
      9 C           3.3460   -1.3188   20.9440 C.3     1  UNL1        0.1892
     10 C           2.1540   -1.2961   20.0336 C.3     1  UNL1        0.0588
     11 C           1.1905   -0.2727   20.5571 C.3     1  UNL1        0.0347
     12 C           1.7869    0.3371   21.7910 C.3     1  UNL1        0.1200
     13 C           1.0757    0.6647   21.6413 C.3     1  UNL1        0.0322
     14 O           3.1191   -0.3094   22.0301 O.3     1  UNL1       -0.3366
     15 C           3.4330   -2.2859   19.8007 C.3     1  UNL1        0.0855
     16 C           4.6400   -3.1638   19.6511 C.3     1  UNL1        0.1177
     17 O           4.7269   -4.1309   18.5078 O.3     1  UNL1       -0.3842
     18 C           5.7600   -3.0747   20.6449 C.3     1  UNL1        0.0544
     19 C           6.9670   -3.9527   20.4954 C.3     1  UNL1        0.0050
     20 H           3.9265   -4.0617   17.9642 H       1  UNL1        0.2103
     21 C           6.7930   -2.0185   22.7820 C.3     1  UNL1        0.0572
     22 C           8.0388   -1.2557   22.4416 C.3     1  UNL1        0.0051
     23 C           6.1693   -1.9204   25.3022 C.3     1  UNL1        0.1695
     24 C           6.0433   -2.5941   26.6365 C.3     1  UNL1        0.1493
     25 C           6.4152   -4.0397   26.7849 C.3     1  UNL1        0.0814
     26 C           6.2893   -4.7133   28.1191 C.3     1  UNL1        0.0076
     27 C           6.9130   -4.8115   25.5990 C.3     1  UNL1        0.1910
     28 O           7.4294   -5.9553   24.7773 O.3     1  UNL1       -0.3632
     29 O           7.0390   -4.1378   24.2647 O.3     1  UNL1       -0.3339
     30 C           6.6671   -2.6923   24.1163 C.3     1  UNL1        0.1493
     31 H           7.5182   -6.7419   25.3379 H       1  UNL1        0.2128
     32 C           6.8042    0.5940   25.4605 C.3     1  UNL1        0.1742
     33 O           5.7974   -0.4748   25.1539 O.3     1  UNL1       -0.3486
     34 O           5.5455   -1.8222   27.8224 O.3     1  UNL1       -0.3508
     35 C           6.5187   -1.1218   28.7237 C.3     1  UNL1        0.1741
     36 C           6.9664   -5.8825   26.6479 C.3     1  UNL1        0.0977
     37 C           7.7566   -7.1337   26.4027 C.2     1  UNL1        0.0552
     38 O           9.2557   -7.0917   26.4312 O.co2   1  UNL1       -0.5490
     39 O           7.0476   -8.4269   26.1289 O.co2   1  UNL1       -0.5490
     40 C           0.5563    2.4931   25.7570 C.3     1  UNL1        0.1669
     41 O          -0.4768    3.5080   25.3662 O.3     1  UNL1       -0.3513
     42 C          -1.6687    3.3234   26.2580 C.3     1  UNL1        0.1449
     43 C          -1.3723    2.1943   27.2000 C.3     1  UNL1        0.0643
     44 C           0.0028    1.6812   26.8903 C.3     1  UNL1        0.1496
     45 C          -2.9347    4.1267   26.2153 C.3     1  UNL1        0.1445
     46 O          -4.0916    3.6598   25.3824 O.3     1  UNL1       -0.3345
     47 C          -5.3576    4.4632   25.3398 C.3     1  UNL1        0.1835
     48 C          -6.7541    4.8751   24.9793 C.3     1  UNL1        0.0610
     49 O          -5.7334    3.3360   24.4243 O.3     1  UNL1       -0.3635
     50 C          -5.4667    5.7334   26.1302 C.3     1  UNL1        0.0514
     51 C          -6.7327    6.5368   26.0876 C.3     1  UNL1        0.0050
     52 C          -4.3099    6.2004   26.9631 C.3     1  UNL1        0.0073
     53 C          -3.0439    5.3970   27.0057 C.3     1  UNL1        0.0299
     54 C          -1.8870    5.8638   27.8386 C.3     1  UNL1        0.0026
     55 H          -4.9903    2.7168   24.3517 H       1  UNL1        0.2128
     56 O           0.7017    0.5540   27.5911 O.3     1  UNL1       -0.3303
     57 C           1.2122    0.7416   28.9890 C.3     1  UNL1        0.2377
     58 C           0.6989    1.8731   29.8294 C.3     1  UNL1        0.0934
     59 C           1.2093    2.0608   31.2273 C.3     1  UNL1        0.1498
     60 C           2.2331    1.1169   31.7849 C.3     1  UNL1        0.1694
     61 C           2.7465   -0.0146   30.9446 C.3     1  UNL1        0.1472
     62 C           3.7703   -0.9585   31.5021 C.3     1  UNL1        0.0348
     63 O           2.2360   -0.2022   29.5466 O.3     1  UNL1       -0.3304
     64 O           0.6960    3.1922   32.0677 O.3     1  UNL1       -0.3508
     65 C           1.3269    4.5492   31.9649 C.3     1  UNL1        0.1741
     66 O           2.7437    1.3045   33.1829 O.3     1  UNL1       -0.3486
     67 C           3.8794    2.2483   33.4462 C.3     1  UNL1        0.1742
@<TRIPOS>UNITY_ATOM_ATTR
38 1
charge -1
@<TRIPOS>BOND
     1    32    33    1
     2    23    33    1
     3    23    24    1
     4    24    34    1
     5    34    35    1
     6    24    25    1
     7    25    26    1
     8    25    27    1
     9    27    28    1
    10    27    36    1
    11    36    37    1
    12    37    38   ar
    13    37    39   ar
    14    27    29    1
    15    30    29    1
    16    30    21    1
    17    21    22    1
    18    21     7    1
    19     7     8    1
    20     8     9    1
    21     9    10    1
    22    10    11    1
    23    11    12    1
    24    12    13    1
    25    12     1    1
    26     1     2    1
    27     2     3    1
    28     3     4    1
    29     4     5    1
    30     4    40    1
    31    40    41    1
    32    41    42    1
    33    42    45    1
    34    45    46    1
    35    46    47    1
    36    47    48    1
    37    47    49    1
    38    47    50    1
    39    50    51    1
    40    50    52    1
    41    52    53    1
    42    53    54    1
    43    42    43    1
    44    43    44    1
    45    44    56    1
    46    57    56    1
    47    57    58    1
    48    58    59    1
    49    59    64    1
    50    64    65    1
    51    59    60    1
    52    60    66    1
    53    66    67    1
    54    60    61    1
    55    61    62    1
    56    61    63    1
    57     4     6    1
    58    12    14    1
    59     9    15    1
    60    15    16    1
    61    16    17    1
    62    16    18    1
    63    18    19    1
    64    30    23    1
    65    18     7    1
    66    14     9    1
    67     6     1    1
    68    44    40    1
    69    63    57    1
    70    53    45    1
    71    28    31    1
    72    49    55    1
    73    17    20    1
@<TRIPOS>MOLECULE
*****
 67 73 0 0 0
SMALL
GASTEIGER

@<TRIPOS>ATOM
      1 C           3.0842   -0.4216   23.9210 C.3     1  UNL1        0.1399
      2 C           3.5344   -1.6552   23.1961 C.3     1  UNL1        0.0345
      3 C           3.0996   -1.5369   21.7654 C.3     1  UNL1        0.0323
      4 C           2.3806   -0.2301   21.6060 C.3     1  UNL1        0.1200
      5 C           2.2335   -0.6652   20.1781 C.3     1  UNL1        0.0322
      6 O           2.3711    0.4591   22.9382 O.3     1  UNL1       -0.3562
      7 C           6.5280   -3.3396   25.9670 C.3     1  UNL1        0.1222
      8 O           5.4679   -2.3430   25.6022 O.3     1  UNL1       -0.3365
      9 C           4.9406   -1.3956   26.6387 C.3     1  UNL1        0.1892
     10 C           4.3202   -0.3902   27.5629 C.3     1  UNL1        0.0588
     11 C           3.3110    0.3972   26.7810 C.3     1  UNL1        0.0347
     12 C           3.3077   -0.1214   25.3735 C.3     1  UNL1        0.1200
     13 C           2.7789    0.4705   25.4472 C.3     1  UNL1        0.0322
     14 O           4.3149   -1.2295   25.2856 O.3     1  UNL1       -0.3366
     15 C           5.4735   -1.4447   28.0400 C.3     1  UNL1        0.0855
     16 C           6.5336   -2.4413   28.4048 C.3     1  UNL1        0.1177
     17 O           7.0664   -2.4903   29.8061 O.3     1  UNL1       -0.3842
     18 C           7.0608   -3.3887   27.3683 C.3     1  UNL1        0.0544
     19 C           8.1210   -4.3853   27.7332 C.3     1  UNL1        0.0050
     20 H           6.6225   -1.8165   30.3446 H       1  UNL1        0.2103
     21 C           7.0552   -4.2871   24.9305 C.3     1  UNL1        0.0572
     22 C           7.5337   -5.6501   25.3344 C.3     1  UNL1        0.0051
     23 C           8.2604   -3.0626   22.9816 C.3     1  UNL1        0.1695
     24 C           8.3092   -2.6469   21.5412 C.3     1  UNL1        0.1493
     25 C           7.2016   -3.0400   20.6092 C.3     1  UNL1        0.0814
     26 C           7.2504   -2.6243   19.1687 C.3     1  UNL1        0.0076
     27 C           6.0452   -3.8488   21.1176 C.3     1  UNL1        0.1910
     28 O           4.7494   -4.6044   21.1269 O.3     1  UNL1       -0.3632
     29 O           5.9964   -4.2645   22.5580 O.3     1  UNL1       -0.3339
     30 C           7.1040   -3.8714   23.4900 C.3     1  UNL1        0.1493
     31 H           4.3610   -4.5911   20.2381 H       1  UNL1        0.2128
     32 C           9.3276   -1.3407   24.6084 C.3     1  UNL1        0.1742
     33 O           9.3681   -2.6694   23.9136 O.3     1  UNL1       -0.3486
     34 O           9.4656   -1.8381   21.0327 O.3     1  UNL1       -0.3508
     35 C           9.4028   -0.3397   21.0607 C.3     1  UNL1        0.1741
     36 C           5.6440   -3.6955   19.6804 C.3     1  UNL1        0.0977
     37 C           4.4915   -4.4858   19.1351 C.2     1  UNL1        0.0552
     38 O           4.6872   -5.9175   18.7332 O.co2   1  UNL1       -0.5490
     39 O           3.1432   -3.8441   18.9918 O.co2   1  UNL1       -0.5490
     40 C           1.6309    0.9857   21.1481 C.3     1  UNL1        0.1669
     41 O           0.1734    1.0429   20.7985 O.3     1  UNL1       -0.3513
     42 C          -0.1513    2.4504   20.3937 C.3     1  UNL1        0.1449
     43 C           1.1056    3.2629   20.4932 C.3     1  UNL1        0.0643
     44 C           2.2071    2.3577   20.9594 C.3     1  UNL1        0.1496
     45 C          -1.4966    2.9564   19.9648 C.3     1  UNL1        0.1445
     46 O          -2.6836    2.7881   20.8662 O.3     1  UNL1       -0.3345
     47 C          -4.0289    3.2942   20.4372 C.3     1  UNL1        0.1835
     48 C          -5.4963    3.6033   20.4749 C.3     1  UNL1        0.0610
     49 O          -4.3802    2.7271   21.7808 O.3     1  UNL1       -0.3635
     50 C          -4.1872    3.9686   19.1068 C.3     1  UNL1        0.0514
     51 C          -5.5325    4.4747   18.6778 C.3     1  UNL1        0.0050
     52 C          -3.0002    4.1369   18.2053 C.3     1  UNL1        0.0073
     53 C          -1.6549    3.6309   18.6343 C.3     1  UNL1        0.0299
     54 C          -0.4678    3.7992   17.7328 C.3     1  UNL1        0.0026
     55 H          -3.5853    2.3525   22.1915 H       1  UNL1        0.2128
     56 O           3.6342    2.7548   21.1955 O.3     1  UNL1       -0.3303
     57 C           4.6919    2.3780   20.2008 C.3     1  UNL1        0.2377
     58 C           4.3510    1.4828   19.0465 C.3     1  UNL1        0.0934
     59 C           5.4087    1.1060   18.0518 C.3     1  UNL1        0.1498
     60 C           6.8071    1.6245   18.2114 C.3     1  UNL1        0.1694
     61 C           7.1480    2.5197   19.3657 C.3     1  UNL1        0.1472
     62 C           8.5464    3.0382   19.5253 C.3     1  UNL1        0.0348
     63 O           6.0903    2.8965   20.3604 O.3     1  UNL1       -0.3304
     64 O           5.0679    0.2108   16.8975 O.3     1  UNL1       -0.3508
     65 C           4.1107   -0.9281   17.0888 C.3     1  UNL1        0.1741
     66 O           7.8649    1.2478   17.2167 O.3     1  UNL1       -0.3486
     67 C           8.0740    2.0861   15.9906 C.3     1  UNL1        0.1742
@<TRIPOS>UNITY_ATOM_ATTR
38 1
charge -1
@<TRIPOS>BOND
     1    32    33    1
     2    23    33    1
     3    23    24    1
     4    24    34    1
     5    34    35    1
     6    24    25    1
     7    25    26    1
     8    25    27    1
     9    27    28    1
    10    27    36    1
    11    36    37    1
    12    37    38   ar
    13    37    39   ar
    14    27    29    1
    15    30    29    1
    16    30    21    1
    17    21    22    1
    18    21     7    1
    19     7     8    1
    20     8     9    1
    21     9    10    1
    22    10    11    1
    23    11    12    1
    24    12    13    1
    25    12     1    1
    26     1     2    1
    27     2     3    1
    28     3     4    1
    29     4     5    1
    30     4    40    1
    31    40    41    1
    32    41    42    1
    33    42    45    1
    34    45    46    1
    35    46    47    1
    36    47    48    1
    37    47    49    1
    38    47    50    1
    39    50    51    1
    40    50    52    1
    41    52    53    1
    42    53    54    1
    43    42    43    1
    44    43    44    1
    45    44    56    1
    46    57    56    1
    47    57    58    1
    48    58    59    1
    49    59    64    1
    50    64    65    1
    51    59    60    1
    52    60    66    1
    53    66    67    1
    54    60    61    1
    55    61    62    1
    56    61    63    1
    57     4     6    1
    58    12    14    1
    59     9    15    1
    60    15    16    1
    61    16    17    1
    62    16    18    1
    63    18    19    1
    64    30    23    1
    65    18     7    1
    66    14     9    1
    67     6     1    1
    68    44    40    1
    69    63    57    1
    70    53    45    1
    71    28    31    1
    72    49    55    1
    73    17    20    1
@<TRIPOS>MOLECULE
*****
 67 73 0 0 0
SMALL
GASTEIGER

@<TRIPOS>ATOM
      1 C           6.7600   -2.8358   25.5095 C.3     1  UNL1        0.1399
      2 C           7.6948   -2.5658   24.3679 C.3     1  UNL1        0.0345
      3 C           7.3082   -1.2536   23.7526 C.3     1  UNL1        0.0323
      4 C           6.1344   -0.7126   24.5140 C.3     1  UNL1        0.1200
      5 C           6.2321    0.4283   23.5450 C.3     1  UNL1        0.0322
      6 O           5.7957   -1.6905   25.5998 O.3     1  UNL1       -0.3562
      7 C           6.2991   -1.6653   30.3031 C.3     1  UNL1        0.1222
      8 O           6.4521   -2.2826   28.9446 O.3     1  UNL1       -0.3365
      9 C           6.5789   -3.7709   28.8071 C.3     1  UNL1        0.1892
     10 C           6.7159   -5.2357   28.5147 C.3     1  UNL1        0.0588
     11 C           6.8433   -5.4019   27.0294 C.3     1  UNL1        0.0347
     12 C           6.7851   -4.0398   26.4038 C.3     1  UNL1        0.1200
     13 C           6.8721   -4.5958   25.8391 C.3     1  UNL1        0.0322
     14 O           6.6217   -3.0318   27.5025 O.3     1  UNL1       -0.3366
     15 C           6.5528   -4.6418   30.0281 C.3     1  UNL1        0.0855
     16 C           6.3999   -4.0245   31.3865 C.3     1  UNL1        0.1177
     17 O           6.3739   -4.8955   32.6075 O.3     1  UNL1       -0.3842
     18 C           6.2731   -2.5362   31.5240 C.3     1  UNL1        0.0544
     19 C           6.1202   -1.9189   32.8826 C.3     1  UNL1        0.0050
     20 H           6.4667   -5.8244   32.3440 H       1  UNL1        0.2103
     21 C           6.1723   -0.1770   30.4406 C.3     1  UNL1        0.0572
     22 C           7.3805    0.6969   30.2785 C.3     1  UNL1        0.0051
     23 C           4.6775    1.3442   31.9243 C.3     1  UNL1        0.1695
     24 C           3.3423    1.9586   32.2239 C.3     1  UNL1        0.1493
     25 C           2.1666    1.6661   31.3395 C.3     1  UNL1        0.0814
     26 C           0.8314    2.2805   31.6391 C.3     1  UNL1        0.0076
     27 C           2.3262    0.7593   30.1553 C.3     1  UNL1        0.1910
     28 O           1.9803   -0.0293   28.9272 O.3     1  UNL1       -0.3632
     29 O           3.6614    0.1449   29.8557 O.3     1  UNL1       -0.3339
     30 C           4.8370    0.4374   30.7402 C.3     1  UNL1        0.1493
     31 H           1.0420    0.0963   28.7159 H       1  UNL1        0.2128
     32 C           6.4450    3.0147   32.8384 C.3     1  UNL1        0.1742
     33 O           5.8531    1.6368   32.8089 O.3     1  UNL1       -0.3486
     34 O           3.1827    2.8655   33.4080 O.3     1  UNL1       -0.3508
     35 C           2.8999    2.2872   34.7629 C.3     1  UNL1        0.1741
     36 C           0.8709    1.0998   30.0284 C.3     1  UNL1        0.0977
     37 C           0.0262    0.4095   28.9988 C.2     1  UNL1        0.0552
     38 O          -0.6873   -0.8637   29.3450 O.co2   1  UNL1       -0.5490
     39 O          -0.1051    0.9925   27.6229 O.co2   1  UNL1       -0.5490
     40 C           4.9812    0.0669   25.0727 C.3     1  UNL1        0.1669
     41 O           5.0651    1.1359   26.1216 O.3     1  UNL1       -0.3513
     42 C           3.6772    1.6440   26.3779 C.3     1  UNL1        0.1449
     43 C           2.7355    0.8891   25.4873 C.3     1  UNL1        0.0643
     44 C           3.5414   -0.0856   24.6806 C.3     1  UNL1        0.1496
     45 C           3.2977    2.7183   27.3534 C.3     1  UNL1        0.1445
     46 O           1.8714    3.1724   27.4517 O.3     1  UNL1       -0.3345
     47 C           1.4919    4.2468   28.4272 C.3     1  UNL1        0.1835
     48 C           0.6470    5.2235   29.1901 C.3     1  UNL1        0.0610
     49 O           0.1517    3.9656   27.8150 O.3     1  UNL1       -0.3635
     50 C           2.5387    4.8671   29.3044 C.3     1  UNL1        0.0514
     51 C           2.1592    5.9415   30.2799 C.3     1  UNL1        0.0050
     52 C           3.9650    4.4131   29.2061 C.3     1  UNL1        0.0073
     53 C           4.3445    3.3387   28.2306 C.3     1  UNL1        0.0299
     54 C           5.7707    2.8847   28.1323 C.3     1  UNL1        0.0026
     55 H           0.2419    3.2701   27.1449 H       1  UNL1        0.2128
     56 O           3.0021   -1.0445   23.6609 O.3     1  UNL1       -0.3303
     57 C           3.4299   -0.9340   22.2275 C.3     1  UNL1        0.2377
     58 C           3.9812   -2.1332   21.5147 C.3     1  UNL1        0.0934
     59 C           4.4090   -2.0226   20.0813 C.3     1  UNL1        0.1498
     60 C           4.2856   -0.7129   19.3606 C.3     1  UNL1        0.1694
     61 C           3.7344    0.4863   20.0734 C.3     1  UNL1        0.1472
     62 C           3.6109    1.7961   19.3529 C.3     1  UNL1        0.0348
     63 O           3.3065    0.3758   21.5069 O.3     1  UNL1       -0.3304
     64 O           4.9603   -3.2218   19.3685 O.3     1  UNL1       -0.3508
     65 C           4.0730   -4.3962   19.0798 C.3     1  UNL1        0.1741
     66 O           4.7135   -0.6022   17.9272 O.3     1  UNL1       -0.3486
     67 C           3.7291   -0.8714   16.8278 C.3     1  UNL1        0.1742
@<TRIPOS>UNITY_ATOM_ATTR
38 1
charge -1
@<TRIPOS>BOND
     1    32    33    1
     2    23    33    1
     3    23    24    1
     4    24    34    1
     5    34    35    1
     6    24    25    1
     7    25    26    1
     8    25    27    1
     9    27    28    1
    10    27    36    1
    11    36    37    1
    12    37    38   ar
    13    37    39   ar
    14    27    29    1
    15    30    29    1
    16    30    21    1
    17    21    22    1
    18    21     7    1
    19     7     8    1
    20     8     9    1
    21     9    10    1
    22    10    11    1
    23    11    12    1
    24    12    13    1
    25    12     1    1
    26     1     2    1
    27     2     3    1
    28     3     4    1
    29     4     5    1
    30     4    40    1
    31    40    41    1
    32    41    42    1
    33    42    45    1
    34    45    46    1
    35    46    47    1
    36    47    48    1
    37    47    49    1
    38    47    50    1
    39    50    51    1
    40    50    52    1
    41    52    53    1
    42    53    54    1
    43    42    43    1
    44    43    44    1
    45    44    56    1
    46    57    56    1
    47    57    58    1
    48    58    59    1
    49    59    64    1
    50    64    65    1
    51    59    60    1
    52    60    66    1
    53    66    67    1
    54    60    61    1
    55    61    62    1
    56    61    63    1
    57     4     6    1
    58    12    14    1
    59     9    15    1
    60    15    16    1
    61    16    17    1
    62    16    18    1
    63    18    19    1
    64    30    23    1
    65    18     7    1
    66    14     9    1
    67     6     1    1
    68    44    40    1
    69    63    57    1
    70    53    45    1
    71    28    31    1
    72    49    55    1
    73    17    20    1
@<TRIPOS>MOLECULE
*****
 67 73 0 0 0
SMALL
GASTEIGER

@<TRIPOS>ATOM
      1 C           2.0367    1.2292   22.7446 C.3     1  UNL1        0.1399
      2 C           3.4108    1.7525   23.0408 C.3     1  UNL1        0.0345
      3 C           3.3415    2.5427   24.3139 C.3     1  UNL1        0.0323
      4 C           1.9245    2.5076   24.8046 C.3     1  UNL1        0.1200
      5 C           2.4580    3.3488   25.9261 C.3     1  UNL1        0.0322
      6 O           1.1181    1.6958   23.8347 O.3     1  UNL1       -0.3562
      7 C           5.5393   -2.0507   21.5055 C.3     1  UNL1        0.1222
      8 O           4.3376   -1.1674   21.6663 O.3     1  UNL1       -0.3365
      9 C           3.1725   -1.3089   20.7322 C.3     1  UNL1        0.1892
     10 C           1.9390   -1.3344   19.8791 C.3     1  UNL1        0.0588
     11 C           0.9975   -0.2863   20.3940 C.3     1  UNL1        0.0347
     12 C           1.6491    0.3870   21.5654 C.3     1  UNL1        0.1200
     13 C           0.9306    0.7057   21.4327 C.3     1  UNL1        0.0322
     14 O           2.9933   -0.2450   21.7744 O.3     1  UNL1       -0.3366
     15 C           3.2090   -2.3335   19.6374 C.3     1  UNL1        0.0855
     16 C           4.4107   -3.2168   19.4766 C.3     1  UNL1        0.1177
     17 O           4.4472   -4.2415   18.3817 O.3     1  UNL1       -0.3842
     18 C           5.5758   -3.0754   20.4107 C.3     1  UNL1        0.0544
     19 C           6.7775   -3.9587   20.2498 C.3     1  UNL1        0.0050
     20 H           3.6219   -4.2012   17.8736 H       1  UNL1        0.2103
     21 C           6.7044   -1.9092   22.4396 C.3     1  UNL1        0.0572
     22 C           8.0572   -1.5475   21.9019 C.3     1  UNL1        0.0051
     23 C           6.7158   -3.4963   24.4965 C.3     1  UNL1        0.1695
     24 C           6.5281   -3.7167   25.9683 C.3     1  UNL1        0.1493
     25 C           6.1413   -2.5704   26.8550 C.3     1  UNL1        0.0814
     26 C           5.9537   -2.7908   28.3268 C.3     1  UNL1        0.0076
     27 C           5.9423   -1.2036   26.2699 C.3     1  UNL1        0.1910
     28 O           5.6418    0.2635   26.1859 O.3     1  UNL1       -0.3632
     29 O           6.1300   -0.9832   24.7981 O.3     1  UNL1       -0.3339
     30 C           6.5167   -2.1296   23.9114 C.3     1  UNL1        0.1493
     31 H           5.4285    0.6011   27.0699 H       1  UNL1        0.2128
     32 C           8.5483   -5.0037   23.4382 C.3     1  UNL1        0.1742
     33 O           7.1025   -4.6428   23.6098 O.3     1  UNL1       -0.3486
     34 O           6.7271   -5.0835   26.5534 O.3     1  UNL1       -0.3508
     35 C           8.0803   -5.4960   27.0521 C.3     1  UNL1        0.1741
     36 C           5.6502   -0.9144   27.7125 C.3     1  UNL1        0.0977
     37 C           6.0213    0.4144   28.3011 C.2     1  UNL1        0.0552
     38 O           4.9570    1.3088   28.8642 O.co2   1  UNL1       -0.5490
     39 O           7.4568    0.8489   28.3265 O.co2   1  UNL1       -0.5490
     40 C           0.6191    2.6484   25.5297 C.3     1  UNL1        0.1669
     41 O          -0.4629    3.6380   25.2135 O.3     1  UNL1       -0.3513
     42 C          -1.5844    3.4256   26.1868 C.3     1  UNL1        0.1449
     43 C          -1.1955    2.3047   27.1046 C.3     1  UNL1        0.0643
     44 C           0.1664    1.8244   26.6985 C.3     1  UNL1        0.1496
     45 C          -2.8691    4.1983   26.2341 C.3     1  UNL1        0.1445
     46 O          -4.0491    3.7417   25.4285 O.3     1  UNL1       -0.3345
     47 C          -5.3338    4.5145   25.4758 C.3     1  UNL1        0.1835
     48 C          -6.7534    4.9077   25.1927 C.3     1  UNL1        0.0610
     49 O          -5.7221    3.4216   24.5245 O.3     1  UNL1       -0.3635
     50 C          -5.4385    5.7439   26.3288 C.3     1  UNL1        0.0514
     51 C          -6.7233    6.5167   26.3761 C.3     1  UNL1        0.0050
     52 C          -4.2585    6.2006   27.1345 C.3     1  UNL1        0.0073
     53 C          -2.9738    5.4278   27.0872 C.3     1  UNL1        0.0299
     54 C          -1.7938    5.8844   27.8928 C.3     1  UNL1        0.0026
     55 H          -4.9687    2.8251   24.3924 H       1  UNL1        0.2128
     56 O           0.9396    0.7147   27.3473 O.3     1  UNL1       -0.3303
     57 C           1.3916    0.8486   28.7714 C.3     1  UNL1        0.2377
     58 C           2.0558   -0.3071   29.4592 C.3     1  UNL1        0.0934
     59 C           2.5077   -0.1733   30.8832 C.3     1  UNL1        0.1498
     60 C           2.2954    1.1163   31.6194 C.3     1  UNL1        0.1694
     61 C           1.6312    2.2720   30.9316 C.3     1  UNL1        0.1472
     62 C           1.4189    3.5615   31.6677 C.3     1  UNL1        0.0348
     63 O           1.1793    2.1381   29.5075 O.3     1  UNL1       -0.3304
     64 O           3.1719   -1.3290   31.5711 O.3     1  UNL1       -0.3508
     65 C           4.6686   -1.4216   31.6059 C.3     1  UNL1        0.1741
     66 O           2.7473    1.2502   33.0435 O.3     1  UNL1       -0.3486
     67 C           4.1084    1.8014   33.3497 C.3     1  UNL1        0.1742
@<TRIPOS>UNITY_ATOM_ATTR
38 1
charge -1
@<TRIPOS>BOND
     1    32    33    1
     2    23    33    1
     3    23    24    1
     4    24    34    1
     5    34    35    1
     6    24    25    1
     7    25    26    1
     8    25    27    1
     9    27    28    1
    10    27    36    1
    11    36    37    1
    12    37    38   ar
    13    37    39   ar
    14    27    29    1
    15    30    29    1
    16    30    21    1
    17    21    22    1
    18    21     7    1
    19     7     8    1
    20     8     9    1
    21     9    10    1
    22    10    11    1
    23    11    12    1
    24    12    13    1
    25    12     1    1
    26     1     2    1
    27     2     3    1
    28     3     4    1
    29     4     5    1
    30     4    40    1
    31    40    41    1
    32    41    42    1
    33    42    45    1
    34    45    46    1
    35    46    47    1
    36    47    48    1
    37    47    49    1
    38    47    50    1
    39    50    51    1
    40    50    52    1
    41    52    53    1
    42    53    54    1
    43    42    43    1
    44    43    44    1
    45    44    56    1
    46    57    56    1
    47    57    58    1
    48    58    59    1
    49    59    64    1
    50    64    65    1
    51    59    60    1
    52    60    66    1
    53    66    67    1
    54    60    61    1
    55    61    62    1
    56    61    63    1
    57     4     6    1
    58    12    14    1
    59     9    15    1
    60    15    16    1
    61    16    17    1
    62    16    18    1
    63    18    19    1
    64    30    23    1
    65    18     7    1
    66    14     9    1
    67     6     1    1
    68    44    40    1
    69    63    57    1
    70    53    45    1
    71    28    31    1
    72    49    55    1
    73    17    20    1
@<TRIPOS>MOLECULE
*****
 67 73 0 0 0
SMALL
GASTEIGER

@<TRIPOS>ATOM
      1 C           7.0858   -2.3914   30.3401 C.3     1  UNL1        0.1399
      2 C           7.8656   -1.6212   29.3161 C.3     1  UNL1        0.0345
      3 C           7.5129   -0.1703   29.4598 C.3     1  UNL1        0.0323
      4 C           6.5151   -0.0439   30.5727 C.3     1  UNL1        0.1200
      5 C           6.5731    1.4192   30.2471 C.3     1  UNL1        0.0322
      6 O           6.2512   -1.4166   31.1167 O.3     1  UNL1       -0.3562
      7 C           8.0116   -4.8858   26.1590 C.3     1  UNL1        0.1222
      8 O           7.7239   -4.3835   27.5428 O.3     1  UNL1       -0.3365
      9 C           7.5684   -5.3542   28.6758 C.3     1  UNL1        0.1892
     10 C           7.3883   -6.2004   29.9011 C.3     1  UNL1        0.0588
     11 C           7.1189   -5.2867   31.0598 C.3     1  UNL1        0.0347
     12 C           7.1324   -3.8759   30.5506 C.3     1  UNL1        0.1200
     13 C           6.9862   -3.8815   31.3342 C.3     1  UNL1        0.0322
     14 O           7.4102   -3.9176   29.0771 O.3     1  UNL1       -0.3366
     15 C           7.7005   -6.8272   28.4249 C.3     1  UNL1        0.0855
     16 C           7.9883   -7.3294   27.0410 C.3     1  UNL1        0.1177
     17 O           8.1204   -8.8025   26.7903 O.3     1  UNL1       -0.3842
     18 C           8.1438   -6.3587   25.9081 C.3     1  UNL1        0.0544
     19 C           8.4315   -6.8611   24.5243 C.3     1  UNL1        0.0050
     20 H           7.9929   -9.2848   27.6221 H       1  UNL1        0.2103
     21 C           8.1672   -3.9151   25.0261 C.3     1  UNL1        0.0572
     22 C           9.5359   -3.4779   24.5956 C.3     1  UNL1        0.0051
     23 C           6.5820   -3.9043   22.9677 C.3     1  UNL1        0.1695
     24 C           5.3687   -3.3710   22.2651 C.3     1  UNL1        0.1493
     25 C           4.5274   -2.3150   22.9185 C.3     1  UNL1        0.0814
     26 C           3.3141   -1.7816   22.2160 C.3     1  UNL1        0.0076
     27 C           4.8993   -1.7923   24.2744 C.3     1  UNL1        0.1910
     28 O           4.8431   -0.9873   25.5389 O.3     1  UNL1       -0.3632
     29 O           6.1125   -2.3257   24.9770 O.3     1  UNL1       -0.3339
     30 C           6.9539   -3.3817   24.3236 C.3     1  UNL1        0.1493
     31 H           4.0738   -0.3971   25.5125 H       1  UNL1        0.2128
     32 C           8.4881   -4.5701   21.3325 C.3     1  UNL1        0.1742
     33 O           7.4233   -4.9604   22.3142 O.3     1  UNL1       -0.3486
     34 O           4.9968   -3.8936   20.9092 O.3     1  UNL1       -0.3508
     35 C           5.5312   -3.2273   19.6761 C.3     1  UNL1        0.1741
     36 C           3.6665   -0.9794   24.0111 C.3     1  UNL1        0.0977
     37 C           3.6006    0.4501   24.4608 C.2     1  UNL1        0.0552
     38 O           4.5377    1.4645   23.8753 O.co2   1  UNL1       -0.5490
     39 O           2.5974    0.8652   25.4960 O.co2   1  UNL1       -0.5490
     40 C           5.5295    0.3884   31.6174 C.3     1  UNL1        0.1669
     41 O           5.8522    1.1289   32.8813 O.3     1  UNL1       -0.3513
     42 C           4.5702    1.3543   33.6268 C.3     1  UNL1        0.1449
     43 C           3.4551    0.7531   32.8236 C.3     1  UNL1        0.0643
     44 C           4.0481    0.1562   31.5817 C.3     1  UNL1        0.1496
     45 C           4.4281    2.0574   34.9441 C.3     1  UNL1        0.1445
     46 O           4.2056    1.2641   36.1976 O.3     1  UNL1       -0.3345
     47 C           4.0635    1.9673   37.5149 C.3     1  UNL1        0.1835
     48 C           3.8702    2.1758   38.9877 C.3     1  UNL1        0.0610
     49 O           3.9159    0.5432   37.9625 O.3     1  UNL1       -0.3635
     50 C           4.1440    3.4637   37.5788 C.3     1  UNL1        0.0514
     51 C           4.0020    4.1669   38.8961 C.3     1  UNL1        0.0050
     52 C           4.3666    4.2571   36.3253 C.3     1  UNL1        0.0073
     53 C           4.5086    3.5539   35.0080 C.3     1  UNL1        0.0299
     54 C           4.7312    4.3472   33.7545 C.3     1  UNL1        0.0026
     55 H           3.9879   -0.0460   37.1954 H       1  UNL1        0.2128
     56 O           3.2921   -0.5492   30.4949 O.3     1  UNL1       -0.3303
     57 C           2.2006    0.1658   29.7550 C.3     1  UNL1        0.2377
     58 C           2.4876    1.4694   29.0707 C.3     1  UNL1        0.0934
     59 C           1.3961    2.1844   28.3309 C.3     1  UNL1        0.1498
     60 C           0.0176    1.5958   28.2753 C.3     1  UNL1        0.1694
     61 C          -0.2695    0.2923   28.9596 C.3     1  UNL1        0.1472
     62 C          -1.6480   -0.2964   28.9041 C.3     1  UNL1        0.0348
     63 O           0.8220   -0.4227   29.6995 O.3     1  UNL1       -0.3304
     64 O           1.6832    3.4880   27.6466 O.3     1  UNL1       -0.3508
     65 C           1.8643    4.7368   28.4574 C.3     1  UNL1        0.1741
     66 O          -1.0740    2.3108   27.5354 O.3     1  UNL1       -0.3486
     67 C          -1.0586    2.3563   26.0362 C.3     1  UNL1        0.1742
@<TRIPOS>UNITY_ATOM_ATTR
38 1
charge -1
@<TRIPOS>BOND
     1    32    33    1
     2    23    33    1
     3    23    24    1
     4    24    34    1
     5    34    35    1
     6    24    25    1
     7    25    26    1
     8    25    27    1
     9    27    28    1
    10    27    36    1
    11    36    37    1
    12    37    38   ar
    13    37    39   ar
    14    27    29    1
    15    30    29    1
    16    30    21    1
    17    21    22    1
    18    21     7    1
    19     7     8    1
    20     8     9    1
    21     9    10    1
    22    10    11    1
    23    11    12    1
    24    12    13    1
    25    12     1    1
    26     1     2    1
    27     2     3    1
    28     3     4    1
    29     4     5    1
    30     4    40    1
    31    40    41    1
    32    41    42    1
    33    42    45    1
    34    45    46    1
    35    46    47    1
    36    47    48    1
    37    47    49    1
    38    47    50    1
    39    50    51    1
    40    50    52    1
    41    52    53    1
    42    53    54    1
    43    42    43    1
    44    43    44    1
    45    44    56    1
    46    57    56    1
    47    57    58    1
    48    58    59    1
    49    59    64    1
    50    64    65    1
    51    59    60    1
    52    60    66    1
    53    66    67    1
    54    60    61    1
    55    61    62    1
    56    61    63    1
    57     4     6    1
    58    12    14    1
    59     9    15    1
    60    15    16    1
    61    16    17    1
    62    16    18    1
    63    18    19    1
    64    30    23    1
    65    18     7    1
    66    14     9    1
    67     6     1    1
    68    44    40    1
    69    63    57    1
    70    53    45    1
    71    28    31    1
    72    49    55    1
    73    17    20    1
@<TRIPOS>MOLECULE
*****
 67 73 0 0 0
SMALL
GASTEIGER

@<TRIPOS>ATOM
      1 C           2.5361   -0.4255   22.3039 C.3     1  UNL1        0.1399
      2 C           2.5580   -0.3421   23.8014 C.3     1  UNL1        0.0345
      3 C           1.7382    0.8452   24.2116 C.3     1  UNL1        0.0323
      4 C           1.2096    1.4955   22.9675 C.3     1  UNL1        0.1200
      5 C           0.5783    2.4589   23.9285 C.3     1  UNL1        0.0322
      6 O           1.7027    0.7102   21.7886 O.3     1  UNL1       -0.3562
      7 C           6.1314   -2.7825   24.7697 C.3     1  UNL1        0.1222
      8 O           5.1164   -2.2345   23.8107 O.3     1  UNL1       -0.3365
      9 C           5.0332   -2.7778   22.4151 C.3     1  UNL1        0.1892
     10 C           4.8331   -3.2192   20.9955 C.3     1  UNL1        0.0588
     11 C           3.7164   -2.4064   20.4105 C.3     1  UNL1        0.0347
     12 C           3.2264   -1.4626   21.4685 C.3     1  UNL1        0.1200
     13 C           2.8086   -1.3605   20.7972 C.3     1  UNL1        0.0322
     14 O           4.0403   -1.6922   22.7074 O.3     1  UNL1       -0.3366
     15 C           5.9651   -3.8691   21.9783 C.3     1  UNL1        0.0855
     16 C           6.9800   -4.4171   22.9373 C.3     1  UNL1        0.1177
     17 O           7.9118   -5.5085   22.5004 O.3     1  UNL1       -0.3842
     18 C           7.0632   -3.8738   24.3329 C.3     1  UNL1        0.0544
     19 C           8.0782   -4.4218   25.2918 C.3     1  UNL1        0.0050
     20 H           7.7261   -5.7420   21.5775 H       1  UNL1        0.2103
     21 C           6.2145   -2.2391   26.1653 C.3     1  UNL1        0.0572
     22 C           7.1597   -2.8541   27.1545 C.3     1  UNL1        0.0051
     23 C           5.8148    0.3234   26.3183 C.3     1  UNL1        0.1695
     24 C           4.9528    1.4818   26.7247 C.3     1  UNL1        0.1493
     25 C           3.6284    1.2359   27.3846 C.3     1  UNL1        0.0814
     26 C           2.7664    2.3943   27.7910 C.3     1  UNL1        0.0076
     27 C           3.1661   -0.1684   27.6381 C.3     1  UNL1        0.1910
     28 O           2.2998   -1.3077   28.0869 O.3     1  UNL1       -0.3632
     29 O           4.0281   -1.3267   27.2317 O.3     1  UNL1       -0.3339
     30 C           5.3525   -1.0808   26.5718 C.3     1  UNL1        0.1493
     31 H           1.4863   -0.9587   28.4835 H       1  UNL1        0.2128
     32 C           8.3844    0.6679   26.4889 C.3     1  UNL1        0.1742
     33 O           7.1393    0.5694   25.6583 O.3     1  UNL1       -0.3486
     34 O           5.4152    2.8860   26.4712 O.3     1  UNL1       -0.3508
     35 C           6.2984    3.5763   27.4679 C.3     1  UNL1        0.1741
     36 C           2.0032    0.5943   28.2004 C.3     1  UNL1        0.0977
     37 C           1.2246    0.0324   29.3528 C.2     1  UNL1        0.0552
     38 O          -0.1899   -0.4240   29.1509 O.co2   1  UNL1       -0.5490
     39 O           1.8606   -0.0730   30.7073 O.co2   1  UNL1       -0.5490
     40 C           0.5490    2.3472   21.9245 C.3     1  UNL1        0.1669
     41 O          -0.9092    2.3386   21.5730 O.3     1  UNL1       -0.3513
     42 C          -1.1288    3.3432   20.4809 C.3     1  UNL1        0.1449
     43 C           0.1937    3.9728   20.1575 C.3     1  UNL1        0.0643
     44 C           1.2306    3.3572   21.0497 C.3     1  UNL1        0.1496
     45 C          -2.4405    3.6623   19.8271 C.3     1  UNL1        0.1445
     46 O          -2.5067    3.8770   18.3440 O.3     1  UNL1       -0.3345
     47 C          -3.8185    4.1961   17.6903 C.3     1  UNL1        0.1835
     48 C          -4.8183    4.5177   16.6193 C.3     1  UNL1        0.0610
     49 O          -2.9202    4.2035   16.4890 O.3     1  UNL1       -0.3635
     50 C          -5.0640    4.3005   18.5196 C.3     1  UNL1        0.0514
     51 C          -6.3758    4.6195   17.8658 C.3     1  UNL1        0.0050
     52 C          -4.9979    4.0857   20.0027 C.3     1  UNL1        0.0073
     53 C          -3.6861    3.7667   20.6564 C.3     1  UNL1        0.0299
     54 C          -3.6199    3.5519   22.1395 C.3     1  UNL1        0.0026
     55 H          -2.0110    4.0067   16.7640 H       1  UNL1        0.2128
     56 O           2.6926    3.6929   21.0644 O.3     1  UNL1       -0.3303
     57 C           3.7012    2.6699   20.6328 C.3     1  UNL1        0.2377
     58 C           3.6900    2.1532   19.2247 C.3     1  UNL1        0.0934
     59 C           4.6987    1.1302   18.7931 C.3     1  UNL1        0.1498
     60 C           5.7185    0.6240   19.7697 C.3     1  UNL1        0.1694
     61 C           5.7297    1.1407   21.1778 C.3     1  UNL1        0.1472
     62 C           6.7495    0.6346   22.1544 C.3     1  UNL1        0.0348
     63 O           4.7211    2.1637   21.6094 O.3     1  UNL1       -0.3304
     64 O           4.6875    0.6134   17.3850 O.3     1  UNL1       -0.3508
     65 C           3.9626   -0.6585   17.0586 C.3     1  UNL1        0.1741
     66 O           6.7272   -0.3990   19.3382 O.3     1  UNL1       -0.3486
     67 C           7.9900    0.0348   18.6548 C.3     1  UNL1        0.1742
@<TRIPOS>UNITY_ATOM_ATTR
38 1
charge -1
@<TRIPOS>BOND
     1    32    33    1
     2    23    33    1
     3    23    24    1
     4    24    34    1
     5    34    35    1
     6    24    25    1
     7    25    26    1
     8    25    27    1
     9    27    28    1
    10    27    36    1
    11    36    37    1
    12    37    38   ar
    13    37    39   ar
    14    27    29    1
    15    30    29    1
    16    30    21    1
    17    21    22    1
    18    21     7    1
    19     7     8    1
    20     8     9    1
    21     9    10    1
    22    10    11    1
    23    11    12    1
    24    12    13    1
    25    12     1    1
    26     1     2    1
    27     2     3    1
    28     3     4    1
    29     4     5    1
    30     4    40    1
    31    40    41    1
    32    41    42    1
    33    42    45    1
    34    45    46    1
    35    46    47    1
    36    47    48    1
    37    47    49    1
    38    47    50    1
    39    50    51    1
    40    50    52    1
    41    52    53    1
    42    53    54    1
    43    42    43    1
    44    43    44    1
    45    44    56    1
    46    57    56    1
    47    57    58    1
    48    58    59    1
    49    59    64    1
    50    64    65    1
    51    59    60    1
    52    60    66    1
    53    66    67    1
    54    60    61    1
    55    61    62    1
    56    61    63    1
    57     4     6    1
    58    12    14    1
    59     9    15    1
    60    15    16    1
    61    16    17    1
    62    16    18    1
    63    18    19    1
    64    30    23    1
    65    18     7    1
    66    14     9    1
    67     6     1    1
    68    44    40    1
    69    63    57    1
    70    53    45    1
    71    28    31    1
    72    49    55    1
    73    17    20    1
@<TRIPOS>MOLECULE
*****
 67 73 0 0 0
SMALL
GASTEIGER

@<TRIPOS>ATOM
      1 C           5.4512   -2.8202   23.5208 C.3     1  UNL1        0.1399
      2 C           6.1088   -3.8722   24.3638 C.3     1  UNL1        0.0345
      3 C           6.6404   -3.2099   25.6003 C.3     1  UNL1        0.0323
      4 C           6.3113   -1.7485   25.5213 C.3     1  UNL1        0.1200
      5 C           7.0079   -1.6809   26.8480 C.3     1  UNL1        0.0322
      6 O           5.5763   -1.5078   24.2361 O.3     1  UNL1       -0.3562
      7 C           2.3733    0.8637   22.2891 C.3     1  UNL1        0.1222
      8 O           3.2272   -0.3628   22.4181 O.3     1  UNL1       -0.3365
      9 C           3.2217   -1.3980   21.3326 C.3     1  UNL1        0.1892
     10 C           3.3196   -2.5131   20.3341 C.3     1  UNL1        0.0588
     11 C           4.2860   -3.5290   20.8671 C.3     1  UNL1        0.0347
     12 C           4.7853   -3.0418   22.1950 C.3     1  UNL1        0.1200
     13 C           5.1209   -3.7429   22.0180 C.3     1  UNL1        0.0322
     14 O           4.1275   -1.7247   22.4827 O.3     1  UNL1       -0.3366
     15 C           2.3624   -1.2067   20.1181 C.3     1  UNL1        0.0855
     16 C           1.5086    0.0198   19.9891 C.3     1  UNL1        0.1177
     17 O           0.6493    0.2111   18.7745 O.3     1  UNL1       -0.3842
     18 C           1.5140    1.0550   21.0746 C.3     1  UNL1        0.0544
     19 C           0.6602    2.2815   20.9456 C.3     1  UNL1        0.0050
     20 H           0.7627   -0.5438   18.1761 H       1  UNL1        0.2103
     21 C           2.3788    1.8989   23.3746 C.3     1  UNL1        0.0572
     22 C           3.2260    3.1287   23.2340 C.3     1  UNL1        0.0051
     23 C           0.1881    2.3533   24.6953 C.3     1  UNL1        0.1695
     24 C          -0.6537    2.1586   25.9214 C.3     1  UNL1        0.1493
     25 C          -0.1466    1.3149   27.0532 C.3     1  UNL1        0.0814
     26 C          -0.9884    1.1202   28.2793 C.3     1  UNL1        0.0076
     27 C           1.2024    0.6658   26.9588 C.3     1  UNL1        0.1910
     28 O           2.4040   -0.1492   27.3356 O.3     1  UNL1       -0.3632
     29 O           2.0442    0.8605   25.7326 O.3     1  UNL1       -0.3339
     30 C           1.5371    1.7042   24.6008 C.3     1  UNL1        0.1493
     31 H           2.2710   -0.5330   28.2165 H       1  UNL1        0.2128
     32 C          -0.1512    4.6870   23.6049 C.3     1  UNL1        0.1742
     33 O          -0.3192    3.1970   23.5635 O.3     1  UNL1       -0.3486
     34 O          -2.0027    2.8077   26.0158 O.3     1  UNL1       -0.3508
     35 C          -2.1340    4.1832   26.5996 C.3     1  UNL1        0.1741
     36 C           0.7780    0.1881   28.3158 C.3     1  UNL1        0.0977
     37 C           1.7200    0.2975   29.4780 C.2     1  UNL1        0.0552
     38 O           2.0359   -0.9139   30.3040 O.co2   1  UNL1       -0.5490
     39 O           2.3462    1.6186   29.8140 O.co2   1  UNL1       -0.5490
     40 C           6.1278   -0.2732   25.7198 C.3     1  UNL1        0.1669
     41 O           5.2734    0.3760   26.7678 O.3     1  UNL1       -0.3513
     42 C           5.3840    1.8626   26.6008 C.3     1  UNL1        0.1449
     43 C           6.3069    2.1322   25.4495 C.3     1  UNL1        0.0643
     44 C           6.7666    0.8122   24.9049 C.3     1  UNL1        0.1496
     45 C           4.6932    2.8978   27.4380 C.3     1  UNL1        0.1445
     46 O           3.4346    3.5458   26.9421 O.3     1  UNL1       -0.3345
     47 C           2.7438    4.5810   27.7794 C.3     1  UNL1        0.1835
     48 C           1.7340    5.6053   28.2049 C.3     1  UNL1        0.0610
     49 O           1.8253    4.5495   26.5939 O.3     1  UNL1       -0.3635
     50 C           3.3116    4.9682   29.1126 C.3     1  UNL1        0.0514
     51 C           2.6208    6.0035   29.9499 C.3     1  UNL1        0.0050
     52 C           4.5702    4.3203   29.6087 C.3     1  UNL1        0.0073
     53 C           5.2610    3.2850   28.7714 C.3     1  UNL1        0.0299
     54 C           6.5197    2.6370   29.2674 C.3     1  UNL1        0.0026
     55 H           2.1537    3.9052   25.9474 H       1  UNL1        0.2128
     56 O           7.7010    0.6127   23.7486 O.3     1  UNL1       -0.3303
     57 C           7.1520    0.3933   22.3700 C.3     1  UNL1        0.2377
     58 C           6.1737    1.3701   21.7880 C.3     1  UNL1        0.0934
     59 C           5.6247    1.1506   20.4094 C.3     1  UNL1        0.1498
     60 C           6.0540   -0.0457   19.6129 C.3     1  UNL1        0.1694
     61 C           7.0322   -1.0226   20.1949 C.3     1  UNL1        0.1472
     62 C           7.4616   -2.2189   19.3984 C.3     1  UNL1        0.0348
     63 O           7.5813   -0.8031   21.5734 O.3     1  UNL1       -0.3304
     64 O           4.6465    2.1275   19.8274 O.3     1  UNL1       -0.3508
     65 C           5.1419    3.3517   19.1163 C.3     1  UNL1        0.1741
     66 O           5.5050   -0.2653   18.2343 O.3     1  UNL1       -0.3486
     67 C           6.1701    0.3742   17.0516 C.3     1  UNL1        0.1742
@<TRIPOS>UNITY_ATOM_ATTR
38 1
charge -1
@<TRIPOS>BOND
     1    32    33    1
     2    23    33    1
     3    23    24    1
     4    24    34    1
     5    34    35    1
     6    24    25    1
     7    25    26    1
     8    25    27    1
     9    27    28    1
    10    27    36    1
    11    36    37    1
    12    37    38   ar
    13    37    39   ar
    14    27    29    1
    15    30    29    1
    16    30    21    1
    17    21    22    1
    18    21     7    1
    19     7     8    1
    20     8     9    1
    21     9    10    1
    22    10    11    1
    23    11    12    1
    24    12    13    1
    25    12     1    1
    26     1     2    1
    27     2     3    1
    28     3     4    1
    29     4     5    1
    30     4    40    1
    31    40    41    1
    32    41    42    1
    33    42    45    1
    34    45    46    1
    35    46    47    1
    36    47    48    1
    37    47    49    1
    38    47    50    1
    39    50    51    1
    40    50    52    1
    41    52    53    1
    42    53    54    1
    43    42    43    1
    44    43    44    1
    45    44    56    1
    46    57    56    1
    47    57    58    1
    48    58    59    1
    49    59    64    1
    50    64    65    1
    51    59    60    1
    52    60    66    1
    53    66    67    1
    54    60    61    1
    55    61    62    1
    56    61    63    1
    57     4     6    1
    58    12    14    1
    59     9    15    1
    60    15    16    1
    61    16    17    1
    62    16    18    1
    63    18    19    1
    64    30    23    1
    65    18     7    1
    66    14     9    1
    67     6     1    1
    68    44    40    1
    69    63    57    1
    70    53    45    1
    71    28    31    1
    72    49    55    1
    73    17    20    1
@<TRIPOS>MOLECULE
*****
 67 73 0 0 0
SMALL
GASTEIGER

@<TRIPOS>ATOM
      1 C           3.5099    0.9470   25.2769 C.3     1  UNL1        0.1399
      2 C           4.5238    2.0258   25.5178 C.3     1  UNL1        0.0345
      3 C           3.8141    3.2035   26.1173 C.3     1  UNL1        0.0323
      4 C           2.3615    2.8525   26.2469 C.3     1  UNL1        0.1200
      5 C           2.2406    4.2341   26.8183 C.3     1  UNL1        0.0322
      6 O           2.1735    1.4579   25.7275 O.3     1  UNL1       -0.3562
      7 C           2.7919    0.8142   20.3751 C.3     1  UNL1        0.1222
      8 O           3.0773    0.5853   21.8298 O.3     1  UNL1       -0.3365
      9 C           3.5154   -0.7686   22.3040 C.3     1  UNL1        0.1892
     10 C           3.9592   -2.0611   22.9227 C.3     1  UNL1        0.0588
     11 C           4.1252   -1.8365   24.3964 C.3     1  UNL1        0.0347
     12 C           3.7842   -0.4053   24.6886 C.3     1  UNL1        0.1200
     13 C           3.9887   -0.7799   25.3620 C.3     1  UNL1        0.0322
     14 O           3.4073    0.2547   23.3954 O.3     1  UNL1       -0.3366
     15 C           3.6681   -1.8936   21.3237 C.3     1  UNL1        0.0855
     16 C           3.3826   -1.6646   19.8690 C.3     1  UNL1        0.1177
     17 O           3.5353   -2.7897   18.8886 O.3     1  UNL1       -0.3842
     18 C           2.9445   -0.3107   19.3947 C.3     1  UNL1        0.0544
     19 C           2.6591   -0.0818   17.9399 C.3     1  UNL1        0.0050
     20 H           3.8229   -3.5893   19.3564 H       1  UNL1        0.2103
     21 C           2.3538    2.1681   19.9008 C.3     1  UNL1        0.0572
     22 C           2.9622    2.7633   18.6657 C.3     1  UNL1        0.0051
     23 C           1.7145    3.9426   21.6876 C.3     1  UNL1        0.1695
     24 C           0.6680    4.7014   22.4485 C.3     1  UNL1        0.1493
     25 C          -0.7859    4.4445   22.1836 C.3     1  UNL1        0.0814
     26 C          -1.8324    5.2033   22.9445 C.3     1  UNL1        0.0076
     27 C          -1.1932    3.4288   21.1577 C.3     1  UNL1        0.1910
     28 O          -2.0698    2.5735   20.2916 O.3     1  UNL1       -0.3632
     29 O          -0.1467    2.6700   20.3968 O.3     1  UNL1       -0.3339
     30 C           1.3072    2.9269   20.6617 C.3     1  UNL1        0.1493
     31 H          -3.0008    2.7669   20.4829 H       1  UNL1        0.2128
     32 C           3.8997    5.2489   21.1689 C.3     1  UNL1        0.1742
     33 O           3.1685    4.1996   21.9526 O.3     1  UNL1       -0.3486
     34 O           1.0754    5.7170   23.4744 O.3     1  UNL1       -0.3508
     35 C           1.3720    7.1270   23.0573 C.3     1  UNL1        0.1741
     36 C          -2.5442    3.8905   21.6178 C.3     1  UNL1        0.0977
     37 C          -3.7608    3.5882   20.7941 C.2     1  UNL1        0.0552
     38 O          -4.6700    2.4611   21.1848 O.co2   1  UNL1       -0.5490
     39 O          -4.0680    4.4132   19.5795 O.co2   1  UNL1       -0.5490
     40 C           0.8837    2.7903   26.4960 C.3     1  UNL1        0.1669
     41 O          -0.1554    3.6644   25.8587 O.3     1  UNL1       -0.3513
     42 C          -1.4959    3.2575   26.3950 C.3     1  UNL1        0.1449
     43 C          -1.2852    2.1318   27.3638 C.3     1  UNL1        0.0643
     44 C           0.1855    1.8431   27.4262 C.3     1  UNL1        0.1496
     45 C          -2.8153    3.8688   26.0272 C.3     1  UNL1        0.1445
     46 O          -3.7198    3.1717   25.0546 O.3     1  UNL1       -0.3345
     47 C          -5.0393    3.7831   24.6868 C.3     1  UNL1        0.1835
     48 C          -6.3758    3.9616   24.0297 C.3     1  UNL1        0.0610
     49 O          -5.0885    2.5366   23.8538 O.3     1  UNL1       -0.3635
     50 C          -5.4542    5.0916   25.2916 C.3     1  UNL1        0.0514
     51 C          -6.7736    5.7029   24.9238 C.3     1  UNL1        0.0050
     52 C          -4.5496    5.7887   26.2642 C.3     1  UNL1        0.0073
     53 C          -3.2302    5.1774   26.6320 C.3     1  UNL1        0.0299
     54 C          -2.3257    5.8744   27.6045 C.3     1  UNL1        0.0026
     55 H          -4.2770    2.0234   23.9915 H       1  UNL1        0.2128
     56 O           0.8425    0.7917   28.2706 O.3     1  UNL1       -0.3303
     57 C           1.2413    1.1048   29.6823 C.3     1  UNL1        0.2377
     58 C           2.2171    0.2199   30.3998 C.3     1  UNL1        0.0934
     59 C           2.6159    0.5330   31.8115 C.3     1  UNL1        0.1498
     60 C           2.0391    1.7310   32.5057 C.3     1  UNL1        0.1694
     61 C           1.0633    2.6159   31.7882 C.3     1  UNL1        0.1472
     62 C           0.4864    3.8140   32.4823 C.3     1  UNL1        0.0348
     63 O           0.6645    2.3028   30.3765 O.3     1  UNL1       -0.3304
     64 O           3.5917   -0.3520   32.5290 O.3     1  UNL1       -0.3508
     65 C           4.4733   -1.2826   31.7502 C.3     1  UNL1        0.1741
     66 O           2.4379    2.0442   33.9174 O.3     1  UNL1       -0.3486
     67 C           3.7080    2.7947   34.1889 C.3     1  UNL1        0.1742
@<TRIPOS>UNITY_ATOM_ATTR
38 1
charge -1
@<TRIPOS>BOND
     1    32    33    1
     2    23    33    1
     3    23    24    1
     4    24    34    1
     5    34    35    1
     6    24    25    1
     7    25    26    1
     8    25    27    1
     9    27    28    1
    10    27    36    1
    11    36    37    1
    12    37    38   ar
    13    37    39   ar
    14    27    29    1
    15    30    29    1
    16    30    21    1
    17    21    22    1
    18    21     7    1
    19     7     8    1
    20     8     9    1
    21     9    10    1
    22    10    11    1
    23    11    12    1
    24    12    13    1
    25    12     1    1
    26     1     2    1
    27     2     3    1
    28     3     4    1
    29     4     5    1
    30     4    40    1
    31    40    41    1
    32    41    42    1
    33    42    45    1
    34    45    46    1
    35    46    47    1
    36    47    48    1
    37    47    49    1
    38    47    50    1
    39    50    51    1
    40    50    52    1
    41    52    53    1
    42    53    54    1
    43    42    43    1
    44    43    44    1
    45    44    56    1
    46    57    56    1
    47    57    58    1
    48    58    59    1
    49    59    64    1
    50    64    65    1
    51    59    60    1
    52    60    66    1
    53    66    67    1
    54    60    61    1
    55    61    62    1
    56    61    63    1
    57     4     6    1
    58    12    14    1
    59     9    15    1
    60    15    16    1
    61    16    17    1
    62    16    18    1
    63    18    19    1
    64    30    23    1
    65    18     7    1
    66    14     9    1
    67     6     1    1
    68    44    40    1
    69    63    57    1
    70    53    45    1
    71    28    31    1
    72    49    55    1
    73    17    20    1
