@<TRIPOS>MOLECULE
*****
 34 37 0 0 0
SMALL
GASTEIGER

@<TRIPOS>ATOM
      1 C          -8.2658  -18.7150   21.4989 C.ar    1  UNL1        0.0360
      2 C          -8.4701  -19.7630   22.5526 C.ar    1  UNL1        0.0031
      3 C          -7.4363  -20.8301   22.7594 C.ar    1  UNL1        0.0002
      4 C          -6.1983  -20.8491   21.9127 C.ar    1  UNL1        0.0045
      5 C          -5.9941  -19.8011   20.8591 C.ar    1  UNL1        0.0535
      6 C          -7.0279  -18.7341   20.6523 C.ar    1  UNL1        0.0076
      7 N          -9.5205  -16.4523   22.1704 N.ar    1  UNL1       -0.2111
      8 N         -10.6514  -15.6547   21.5917 N.ar    1  UNL1       -0.1488
      9 C         -11.1295  -16.3575   20.3558 C.ar    1  UNL1        0.1612
     10 C         -12.2468  -15.9074   19.4620 C.3     1  UNL1        0.0756
     11 N         -10.2940  -17.5894   20.1706 N.ar    1  UNL1       -0.2101
     12 C          -9.2996  -17.6480   21.2921 C.ar    1  UNL1        0.1651
     13 C          -7.1982  -15.4363   25.8885 C.ar    1  UNL1        0.1388
     14 C          -6.6713  -15.0361   24.5424 C.ar    1  UNL1        0.0384
     15 C          -7.4454  -15.3748   23.3030 C.ar    1  UNL1        0.0223
     16 C          -8.7464  -16.1136   23.4098 C.ar    1  UNL1        0.0847
     17 C          -9.2733  -16.5138   24.7560 C.ar    1  UNL1        0.0223
     18 C          -8.4992  -16.1751   25.9953 C.ar    1  UNL1        0.0384
     19 C          -7.0440  -14.2352   28.1872 C.3     1  UNL1        0.2525
     20 O          -6.4241  -15.0976   27.1279 O.3     1  UNL1       -0.4714
     21 C          -4.7561  -19.8201   20.0124 C.2     1  UNL1        0.2458
     22 O          -3.9854  -21.0953   19.8391 O.2     1  UNL1       -0.2701
     23 N          -4.2887  -18.5640   19.3389 N.am    1  UNL1       -0.3009
     24 H          -4.7944  -17.7270   19.4526 H       1  UNL1        0.1497
     25 C          -3.0507  -18.5830   18.4921 C.3     1  UNL1        0.0897
     26 C          -2.0667  -17.4539   18.5767 C.3     1  UNL1        0.0216
     27 C          -0.7214  -17.6767   19.2014 C.3     1  UNL1        0.0064
     28 C          -0.5274  -17.4378   20.6695 C.3     1  UNL1        0.0264
     29 C          -1.7106  -17.4344   21.5915 C.ar    1  UNL1       -0.0222
     30 C          -2.2046  -18.7215   22.1825 C.ar    1  UNL1       -0.0043
     31 C          -3.3878  -18.7180   23.1045 C.ar    1  UNL1       -0.0003
     32 C          -4.0770  -17.4276   23.4355 C.ar    1  UNL1       -0.0000
     33 C          -3.5830  -16.1405   22.8445 C.ar    1  UNL1       -0.0003
     34 C          -2.3999  -16.1438   21.9226 C.ar    1  UNL1       -0.0043
@<TRIPOS>BOND
     1    19    20    1
     2    20    13    1
     3    13    14   ar
     4    14    15   ar
     5    15    16   ar
     6    16     7    1
     7     7     8   ar
     8     8     9   ar
     9     9    10    1
    10     9    11   ar
    11    11    12   ar
    12    12     1    1
    13     1     2   ar
    14     2     3   ar
    15     3     4   ar
    16     4     5   ar
    17     5    21    1
    18    21    22    2
    19    21    23   am
    20    23    25    1
    21    25    26    1
    22    26    27    1
    23    27    28    1
    24    28    29    1
    25    29    30   ar
    26    30    31   ar
    27    31    32   ar
    28    32    33   ar
    29    33    34   ar
    30     5     6   ar
    31    16    17   ar
    32    17    18   ar
    33    18    13   ar
    34    12     7   ar
    35     6     1   ar
    36    34    29   ar
    37    23    24    1
@<TRIPOS>MOLECULE
*****
 34 37 0 0 0
SMALL
GASTEIGER

@<TRIPOS>ATOM
      1 C          -6.8125  -17.8605   22.5692 C.ar    1  UNL1        0.0360
      2 C          -6.1270  -19.1244   22.1414 C.ar    1  UNL1        0.0031
      3 C          -6.7116  -19.9591   21.0407 C.ar    1  UNL1        0.0002
      4 C          -7.9817  -19.5300   20.3678 C.ar    1  UNL1        0.0045
      5 C          -8.6671  -18.2662   20.7956 C.ar    1  UNL1        0.0535
      6 C          -8.0825  -17.4315   21.8963 C.ar    1  UNL1        0.0076
      7 N          -4.7765  -16.6900   23.8459 N.ar    1  UNL1       -0.2111
      8 N          -4.6436  -15.8371   25.0726 N.ar    1  UNL1       -0.1488
      9 C          -6.0128  -15.6457   25.6547 C.ar    1  UNL1        0.1612
     10 C          -6.3446  -14.8579   26.8873 C.3     1  UNL1        0.0756
     11 N          -6.9919  -16.3804   24.7877 N.ar    1  UNL1       -0.2101
     12 C          -6.2278  -17.0258   23.6699 C.ar    1  UNL1        0.1651
     13 C          -1.4121  -18.0099   21.1647 C.ar    1  UNL1        0.1388
     14 C          -2.1898  -19.0258   21.9477 C.ar    1  UNL1        0.0384
     15 C          -3.3113  -18.5858   22.8414 C.ar    1  UNL1        0.0223
     16 C          -3.6550  -17.1300   22.9522 C.ar    1  UNL1        0.0847
     17 C          -2.8773  -16.1141   22.1692 C.ar    1  UNL1        0.0223
     18 C          -1.7559  -16.5541   21.2755 C.ar    1  UNL1        0.0384
     19 C           0.7609  -17.4673   19.8480 C.3     1  UNL1        0.2525
     20 O          -0.2906  -18.4499   20.2710 O.3     1  UNL1       -0.4714
     21 C          -9.9372  -17.8372   20.1227 C.2     1  UNL1        0.2458
     22 O         -10.7525  -18.8341   19.3538 O.2     1  UNL1       -0.2701
     23 N         -10.3921  -16.4110   20.2188 N.am    1  UNL1       -0.3009
     24 H          -9.8570  -15.7566   20.7235 H       1  UNL1        0.1497
     25 C         -11.6622  -15.9819   19.5459 C.3     1  UNL1        0.0897
     26 C         -12.9707  -16.0977   20.2701 C.3     1  UNL1        0.0216
     27 C         -12.9971  -16.5255   21.7075 C.3     1  UNL1        0.0064
     28 C         -12.9639  -17.9840   22.0566 C.3     1  UNL1        0.0264
     29 C         -11.8312  -18.5345   22.8714 C.ar    1  UNL1       -0.0222
     30 C         -11.2889  -19.9012   22.5750 C.ar    1  UNL1       -0.0043
     31 C         -10.1563  -20.4517   23.3899 C.ar    1  UNL1       -0.0003
     32 C          -9.5658  -19.6355   24.5012 C.ar    1  UNL1       -0.0000
     33 C         -10.1081  -18.2687   24.7976 C.ar    1  UNL1       -0.0003
     34 C         -11.2407  -17.7182   23.9828 C.ar    1  UNL1       -0.0043
@<TRIPOS>BOND
     1    19    20    1
     2    20    13    1
     3    13    14   ar
     4    14    15   ar
     5    15    16   ar
     6    16     7    1
     7     7     8   ar
     8     8     9   ar
     9     9    10    1
    10     9    11   ar
    11    11    12   ar
    12    12     1    1
    13     1     2   ar
    14     2     3   ar
    15     3     4   ar
    16     4     5   ar
    17     5    21    1
    18    21    22    2
    19    21    23   am
    20    23    25    1
    21    25    26    1
    22    26    27    1
    23    27    28    1
    24    28    29    1
    25    29    30   ar
    26    30    31   ar
    27    31    32   ar
    28    32    33   ar
    29    33    34   ar
    30     5     6   ar
    31    16    17   ar
    32    17    18   ar
    33    18    13   ar
    34    12     7   ar
    35     6     1   ar
    36    34    29   ar
    37    23    24    1
@<TRIPOS>MOLECULE
*****
 34 37 0 0 0
SMALL
GASTEIGER

@<TRIPOS>ATOM
      1 C          -6.1103  -18.9150   21.7311 C.ar    1  UNL1        0.0360
      2 C          -6.3219  -20.1241   22.5933 C.ar    1  UNL1        0.0031
      3 C          -7.6938  -20.7140   22.7342 C.ar    1  UNL1        0.0002
      4 C          -8.8541  -20.0948   22.0130 C.ar    1  UNL1        0.0045
      5 C          -8.6425  -18.8857   21.1509 C.ar    1  UNL1        0.0535
      6 C          -7.2706  -18.2959   21.0100 C.ar    1  UNL1        0.0076
      7 N          -4.1174  -17.3094   22.5027 N.ar    1  UNL1       -0.2111
      8 N          -2.7418  -17.0039   21.9885 N.ar    1  UNL1       -0.1488
      9 C          -2.5126  -17.8309   20.7582 C.ar    1  UNL1        0.1612
     10 C          -1.2680  -17.8397   19.9211 C.3     1  UNL1        0.0756
     11 N          -3.7465  -18.6474   20.5120 N.ar    1  UNL1       -0.2101
     12 C          -4.7383  -18.3251   21.5902 C.ar    1  UNL1        0.1651
     13 C          -6.0431  -15.4968   26.1437 C.ar    1  UNL1        0.1388
     14 C          -4.9375  -16.4983   26.3001 C.ar    1  UNL1        0.0384
     15 C          -4.2956  -17.1025   25.0864 C.ar    1  UNL1        0.0223
     16 C          -4.7593  -16.7052   23.7164 C.ar    1  UNL1        0.0847
     17 C          -5.8649  -15.7036   23.5600 C.ar    1  UNL1        0.0223
     18 C          -6.5068  -15.0994   24.7736 C.ar    1  UNL1        0.0384
     19 C          -8.1447  -15.1135   27.6222 C.3     1  UNL1        0.2525
     20 O          -6.6850  -14.8926   27.3573 O.3     1  UNL1       -0.4714
     21 C          -9.8029  -18.2665   20.4296 C.2     1  UNL1        0.2458
     22 O         -10.6934  -19.1165   19.5726 O.2     1  UNL1       -0.2701
     23 N         -10.0727  -16.7973   20.5653 N.am    1  UNL1       -0.3009
     24 H          -9.4883  -16.2393   21.1278 H       1  UNL1        0.1497
     25 C         -11.2331  -16.1781   19.8441 C.3     1  UNL1        0.0897
     26 C         -12.6062  -16.2339   20.4453 C.3     1  UNL1        0.0216
     27 C         -12.7730  -16.2280   21.9360 C.3     1  UNL1        0.0064
     28 C         -12.7478  -17.5195   22.6986 C.3     1  UNL1        0.0264
     29 C         -11.5889  -17.8380   23.5960 C.ar    1  UNL1       -0.0222
     30 C         -11.5515  -19.1405   24.3390 C.ar    1  UNL1       -0.0043
     31 C         -10.3925  -19.4591   25.2364 C.ar    1  UNL1       -0.0003
     32 C          -9.2709  -18.4752   25.3908 C.ar    1  UNL1       -0.0000
     33 C          -9.3083  -17.1727   24.6478 C.ar    1  UNL1       -0.0003
     34 C         -10.4672  -16.8541   23.7505 C.ar    1  UNL1       -0.0043
@<TRIPOS>BOND
     1    19    20    1
     2    20    13    1
     3    13    14   ar
     4    14    15   ar
     5    15    16   ar
     6    16     7    1
     7     7     8   ar
     8     8     9   ar
     9     9    10    1
    10     9    11   ar
    11    11    12   ar
    12    12     1    1
    13     1     2   ar
    14     2     3   ar
    15     3     4   ar
    16     4     5   ar
    17     5    21    1
    18    21    22    2
    19    21    23   am
    20    23    25    1
    21    25    26    1
    22    26    27    1
    23    27    28    1
    24    28    29    1
    25    29    30   ar
    26    30    31   ar
    27    31    32   ar
    28    32    33   ar
    29    33    34   ar
    30     5     6   ar
    31    16    17   ar
    32    17    18   ar
    33    18    13   ar
    34    12     7   ar
    35     6     1   ar
    36    34    29   ar
    37    23    24    1
@<TRIPOS>MOLECULE
*****
 34 37 0 0 0
SMALL
GASTEIGER

@<TRIPOS>ATOM
      1 C          -4.8913  -18.9749   21.2491 C.ar    1  UNL1        0.0360
      2 C          -5.1292  -20.1712   20.3760 C.ar    1  UNL1        0.0031
      3 C          -6.4764  -20.8306   20.3580 C.ar    1  UNL1        0.0002
      4 C          -7.5857  -20.2937   21.2131 C.ar    1  UNL1        0.0045
      5 C          -7.3478  -19.0974   22.0862 C.ar    1  UNL1        0.0535
      6 C          -6.0006  -18.4381   22.1041 C.ar    1  UNL1        0.0076
      7 N          -3.0641  -17.3182   22.2795 N.ar    1  UNL1       -0.2111
      8 N          -1.6637  -16.9240   21.9139 N.ar    1  UNL1       -0.1488
      9 C          -1.2784  -17.6776   20.6755 C.ar    1  UNL1        0.1612
     10 C           0.0380  -17.5871   19.9622 C.3     1  UNL1        0.0756
     11 N          -2.4405  -18.5376   20.2758 N.ar    1  UNL1       -0.2101
     12 C          -3.5441  -18.3155   21.2671 C.ar    1  UNL1        0.1651
     13 C          -5.4125  -15.7793   25.7962 C.ar    1  UNL1        0.1388
     14 C          -4.5396  -16.9895   25.9489 C.ar    1  UNL1        0.0384
     15 C          -3.7568  -17.5025   24.7767 C.ar    1  UNL1        0.0223
     16 C          -3.8469  -16.8053   23.4517 C.ar    1  UNL1        0.0847
     17 C          -4.7197  -15.5950   23.2989 C.ar    1  UNL1        0.0223
     18 C          -5.5025  -15.0820   24.4712 C.ar    1  UNL1        0.0384
     19 C          -7.6643  -15.5514   27.0719 C.3     1  UNL1        0.2525
     20 O          -6.1953  -15.2663   26.9684 O.3     1  UNL1       -0.4714
     21 C          -8.4571  -18.5606   22.9413 C.2     1  UNL1        0.2458
     22 O          -8.9664  -17.1670   22.7213 O.2     1  UNL1       -0.2701
     23 N          -9.0571  -19.4173   24.0164 N.am    1  UNL1       -0.3009
     24 H          -8.7228  -20.3320   24.1609 H       1  UNL1        0.1497
     25 C         -10.1664  -18.8804   24.8715 C.3     1  UNL1        0.0897
     26 C         -11.5822  -19.3058   24.6176 C.3     1  UNL1        0.0216
     27 C         -12.6643  -18.2745   24.4930 C.3     1  UNL1        0.0064
     28 C         -13.3140  -18.0259   23.1640 C.3     1  UNL1        0.0264
     29 C         -12.4680  -17.7793   21.9501 C.ar    1  UNL1       -0.0222
     30 C         -11.7443  -18.9189   21.2962 C.ar    1  UNL1       -0.0043
     31 C         -10.8983  -18.6723   20.0823 C.ar    1  UNL1       -0.0003
     32 C         -10.7759  -17.2862   19.5223 C.ar    1  UNL1       -0.0000
     33 C         -11.4996  -16.1466   20.1763 C.ar    1  UNL1       -0.0003
     34 C         -12.3455  -16.3931   21.3901 C.ar    1  UNL1       -0.0043
@<TRIPOS>BOND
     1    19    20    1
     2    20    13    1
     3    13    14   ar
     4    14    15   ar
     5    15    16   ar
     6    16     7    1
     7     7     8   ar
     8     8     9   ar
     9     9    10    1
    10     9    11   ar
    11    11    12   ar
    12    12     1    1
    13     1     2   ar
    14     2     3   ar
    15     3     4   ar
    16     4     5   ar
    17     5    21    1
    18    21    22    2
    19    21    23   am
    20    23    25    1
    21    25    26    1
    22    26    27    1
    23    27    28    1
    24    28    29    1
    25    29    30   ar
    26    30    31   ar
    27    31    32   ar
    28    32    33   ar
    29    33    34   ar
    30     5     6   ar
    31    16    17   ar
    32    17    18   ar
    33    18    13   ar
    34    12     7   ar
    35     6     1   ar
    36    34    29   ar
    37    23    24    1
@<TRIPOS>MOLECULE
*****
 34 37 0 0 0
SMALL
GASTEIGER

@<TRIPOS>ATOM
      1 C          -8.0985  -17.9814   21.9167 C.ar    1  UNL1        0.0360
      2 C          -8.9187  -17.1232   22.8337 C.ar    1  UNL1        0.0031
      3 C          -8.2457  -16.2978   23.8900 C.ar    1  UNL1        0.0002
      4 C          -6.7526  -16.3305   24.0293 C.ar    1  UNL1        0.0045
      5 C          -5.9324  -17.1887   23.1123 C.ar    1  UNL1        0.0535
      6 C          -6.6055  -18.0141   22.0560 C.ar    1  UNL1        0.0076
      7 N         -10.2177  -19.2046   20.8406 N.ar    1  UNL1       -0.2111
      8 N         -10.4564  -20.0230   19.6064 N.ar    1  UNL1       -0.1488
      9 C          -9.1578  -20.1311   18.8635 C.ar    1  UNL1        0.1612
     10 C          -8.9390  -20.8624   17.5722 C.3     1  UNL1        0.0756
     11 N          -8.1165  -19.3795   19.6385 N.ar    1  UNL1       -0.2101
     12 C          -8.7715  -18.8069   20.8604 C.ar    1  UNL1        0.1651
     13 C         -13.2990  -18.1310   23.9394 C.ar    1  UNL1        0.1388
     14 C         -12.2131  -19.1116   24.2698 C.ar    1  UNL1        0.0384
     15 C         -11.1860  -19.4694   23.2369 C.ar    1  UNL1        0.0223
     16 C         -11.2448  -18.8467   21.8735 C.ar    1  UNL1        0.0847
     17 C         -12.3307  -17.8661   21.5432 C.ar    1  UNL1        0.0223
     18 C         -13.3578  -17.5083   22.5761 C.ar    1  UNL1        0.0384
     19 C         -14.4110  -18.5568   26.2486 C.3     1  UNL1        0.2525
     20 O         -14.3261  -17.7731   24.9724 O.3     1  UNL1       -0.4714
     21 C          -4.4393  -17.2214   23.2516 C.2     1  UNL1        0.2458
     22 O          -3.8098  -17.9287   24.4150 O.2     1  UNL1       -0.2701
     23 N          -3.5755  -16.5469   22.2274 N.am    1  UNL1       -0.3009
     24 H          -3.9886  -16.0827   21.4638 H       1  UNL1        0.1497
     25 C          -2.0824  -16.5796   22.3667 C.3     1  UNL1        0.0897
     26 C          -1.2168  -15.9595   21.3102 C.3     1  UNL1        0.0216
     27 C          -0.4673  -16.8320   20.3474 C.3     1  UNL1        0.0064
     28 C          -0.6749  -18.3175   20.3634 C.3     1  UNL1        0.0264
     29 C          -2.0646  -18.8809   20.3251 C.ar    1  UNL1       -0.0222
     30 C          -2.4915  -19.8940   21.3456 C.ar    1  UNL1       -0.0043
     31 C          -3.8812  -20.4574   21.3073 C.ar    1  UNL1       -0.0003
     32 C          -4.8439  -20.0078   20.2486 C.ar    1  UNL1       -0.0000
     33 C          -4.4169  -18.9947   19.2281 C.ar    1  UNL1       -0.0003
     34 C          -3.0274  -18.4313   19.2663 C.ar    1  UNL1       -0.0043
@<TRIPOS>BOND
     1    19    20    1
     2    20    13    1
     3    13    14   ar
     4    14    15   ar
     5    15    16   ar
     6    16     7    1
     7     7     8   ar
     8     8     9   ar
     9     9    10    1
    10     9    11   ar
    11    11    12   ar
    12    12     1    1
    13     1     2   ar
    14     2     3   ar
    15     3     4   ar
    16     4     5   ar
    17     5    21    1
    18    21    22    2
    19    21    23   am
    20    23    25    1
    21    25    26    1
    22    26    27    1
    23    27    28    1
    24    28    29    1
    25    29    30   ar
    26    30    31   ar
    27    31    32   ar
    28    32    33   ar
    29    33    34   ar
    30     5     6   ar
    31    16    17   ar
    32    17    18   ar
    33    18    13   ar
    34    12     7   ar
    35     6     1   ar
    36    34    29   ar
    37    23    24    1
@<TRIPOS>MOLECULE
*****
 34 37 0 0 0
SMALL
GASTEIGER

@<TRIPOS>ATOM
      1 C           5.6719   -3.5212   20.7451 C.ar    1  UNL1        0.0360
      2 C           4.4337   -4.3555   20.5997 C.ar    1  UNL1        0.0031
      3 C           3.4740   -4.0844   19.4792 C.ar    1  UNL1        0.0002
      4 C           3.7524   -2.9790   18.5041 C.ar    1  UNL1        0.0045
      5 C           4.9905   -2.1448   18.6496 C.ar    1  UNL1        0.0535
      6 C           5.9502   -2.4159   19.7701 C.ar    1  UNL1        0.0076
      7 N           6.7173   -3.0328   23.1562 N.ar    1  UNL1       -0.2111
      8 N           7.8127   -3.6417   23.9804 N.ar    1  UNL1       -0.1488
      9 C           8.4040   -4.7775   23.1992 C.ar    1  UNL1        0.1612
     10 C           9.5279   -5.6645   23.6465 C.3     1  UNL1        0.0756
     11 N           7.6739   -4.8707   21.8922 N.ar    1  UNL1       -0.2101
     12 C           6.6316   -3.7923   21.8656 C.ar    1  UNL1        0.1651
     13 C           4.1409    0.4594   24.3465 C.ar    1  UNL1        0.1388
     14 C           5.5360    0.6924   23.8472 C.ar    1  UNL1        0.0384
     15 C           6.3948   -0.4717   23.4505 C.ar    1  UNL1        0.0223
     16 C           5.8585   -1.8687   23.5530 C.ar    1  UNL1        0.0847
     17 C           4.4634   -2.1018   24.0523 C.ar    1  UNL1        0.0223
     18 C           3.6046   -0.9377   24.4490 C.ar    1  UNL1        0.0384
     19 C           1.8325    1.6516   24.3584 C.3     1  UNL1        0.2525
     20 O           3.2820    1.6234   24.7432 O.3     1  UNL1       -0.4714
     21 C           5.2689   -1.0395   17.6746 C.2     1  UNL1        0.2458
     22 O           4.3329   -0.7975   16.5277 O.2     1  UNL1       -0.2701
     23 N           6.4834   -0.1760   17.8464 N.am    1  UNL1       -0.3009
     24 H           7.0978   -0.3348   18.5991 H       1  UNL1        0.1497
     25 C           6.7618    0.9293   16.8714 C.3     1  UNL1        0.0897
     26 C           6.4337    2.3479   17.2320 C.3     1  UNL1        0.0216
     27 C           5.0551    2.7017   17.7055 C.3     1  UNL1        0.0064
     28 C           4.6618    2.4423   19.1297 C.3     1  UNL1        0.0264
     29 C           3.5874    1.4429   19.4409 C.ar    1  UNL1       -0.0222
     30 C           2.4069    1.3015   18.5262 C.ar    1  UNL1       -0.0043
     31 C           1.3325    0.3021   18.8374 C.ar    1  UNL1       -0.0003
     32 C           1.4385   -0.5559   20.0632 C.ar    1  UNL1       -0.0000
     33 C           2.6189   -0.4144   20.9778 C.ar    1  UNL1       -0.0003
     34 C           3.6933    0.5849   20.6667 C.ar    1  UNL1       -0.0043
@<TRIPOS>BOND
     1    19    20    1
     2    20    13    1
     3    13    14   ar
     4    14    15   ar
     5    15    16   ar
     6    16     7    1
     7     7     8   ar
     8     8     9   ar
     9     9    10    1
    10     9    11   ar
    11    11    12   ar
    12    12     1    1
    13     1     2   ar
    14     2     3   ar
    15     3     4   ar
    16     4     5   ar
    17     5    21    1
    18    21    22    2
    19    21    23   am
    20    23    25    1
    21    25    26    1
    22    26    27    1
    23    27    28    1
    24    28    29    1
    25    29    30   ar
    26    30    31   ar
    27    31    32   ar
    28    32    33   ar
    29    33    34   ar
    30     5     6   ar
    31    16    17   ar
    32    17    18   ar
    33    18    13   ar
    34    12     7   ar
    35     6     1   ar
    36    34    29   ar
    37    23    24    1
@<TRIPOS>MOLECULE
*****
 34 37 0 0 0
SMALL
GASTEIGER

@<TRIPOS>ATOM
      1 C           7.1838   -5.1258   25.5768 C.ar    1  UNL1        0.0360
      2 C           7.6284   -5.3526   24.1622 C.ar    1  UNL1        0.0031
      3 C           8.2642   -6.6550   23.7755 C.ar    1  UNL1        0.0002
      4 C           8.4555   -7.7306   24.8034 C.ar    1  UNL1        0.0045
      5 C           8.0109   -7.5038   26.2179 C.ar    1  UNL1        0.0535
      6 C           7.3751   -6.2014   26.6046 C.ar    1  UNL1        0.0076
      7 N           5.9699   -2.8102   25.0205 N.ar    1  UNL1       -0.2111
      8 N           5.4433   -1.6662   25.8353 N.ar    1  UNL1       -0.1488
      9 C           5.6958   -1.9724   27.2818 C.ar    1  UNL1        0.1612
     10 C           5.3299   -1.0987   28.4449 C.3     1  UNL1        0.0756
     11 N           6.3786   -3.3056   27.3611 N.ar    1  UNL1       -0.2101
     12 C           6.5480   -3.8234   25.9635 C.ar    1  UNL1        0.1651
     13 C           5.8388   -3.1439   20.5348 C.ar    1  UNL1        0.1388
     14 C           6.9828   -2.4391   21.2013 C.ar    1  UNL1        0.0384
     15 C           7.0266   -2.3279   22.6965 C.ar    1  UNL1        0.0223
     16 C           5.9262   -2.9214   23.5253 C.ar    1  UNL1        0.0847
     17 C           4.7821   -3.6263   22.8587 C.ar    1  UNL1        0.0223
     18 C           4.7384   -3.7375   21.3635 C.ar    1  UNL1        0.0384
     19 C           6.5947   -2.3093   18.1934 C.3     1  UNL1        0.2525
     20 O           5.7950   -3.2552   19.0396 O.3     1  UNL1       -0.4714
     21 C           8.2022   -8.5794   27.2457 C.2     1  UNL1        0.2458
     22 O           9.3592   -8.5099   28.1977 O.2     1  UNL1       -0.2701
     23 N           7.2363   -9.7246   27.3216 N.am    1  UNL1       -0.3009
     24 H           6.4769   -9.7702   26.6968 H       1  UNL1        0.1497
     25 C           7.4276  -10.8002   28.3495 C.3     1  UNL1        0.0897
     26 C           6.9085  -12.1839   28.0926 C.3     1  UNL1        0.0216
     27 C           5.4701  -12.3881   27.7198 C.3     1  UNL1        0.0064
     28 C           4.3983  -12.2460   28.7596 C.3     1  UNL1        0.0264
     29 C           3.1362  -13.0491   28.6504 C.ar    1  UNL1       -0.0222
     30 C           1.8325  -12.4631   29.1054 C.ar    1  UNL1       -0.0043
     31 C           0.5704  -13.2662   28.9961 C.ar    1  UNL1       -0.0003
     32 C           0.6118  -14.6554   28.4319 C.ar    1  UNL1       -0.0000
     33 C           1.9155  -15.2414   27.9769 C.ar    1  UNL1       -0.0003
     34 C           3.1776  -14.4384   28.0861 C.ar    1  UNL1       -0.0043
@<TRIPOS>BOND
     1    19    20    1
     2    20    13    1
     3    13    14   ar
     4    14    15   ar
     5    15    16   ar
     6    16     7    1
     7     7     8   ar
     8     8     9   ar
     9     9    10    1
    10     9    11   ar
    11    11    12   ar
    12    12     1    1
    13     1     2   ar
    14     2     3   ar
    15     3     4   ar
    16     4     5   ar
    17     5    21    1
    18    21    22    2
    19    21    23   am
    20    23    25    1
    21    25    26    1
    22    26    27    1
    23    27    28    1
    24    28    29    1
    25    29    30   ar
    26    30    31   ar
    27    31    32   ar
    28    32    33   ar
    29    33    34   ar
    30     5     6   ar
    31    16    17   ar
    32    17    18   ar
    33    18    13   ar
    34    12     7   ar
    35     6     1   ar
    36    34    29   ar
    37    23    24    1
@<TRIPOS>MOLECULE
*****
 34 37 0 0 0
SMALL
GASTEIGER

@<TRIPOS>ATOM
      1 C           4.0835   -0.9482   22.3913 C.ar    1  UNL1        0.0360
      2 C           4.6133    0.4315   22.1345 C.ar    1  UNL1        0.0031
      3 C           4.7976    1.3884   23.2749 C.ar    1  UNL1        0.0002
      4 C           4.4522    0.9655   24.6720 C.ar    1  UNL1        0.0045
      5 C           3.9225   -0.4141   24.9287 C.ar    1  UNL1        0.0535
      6 C           3.7382   -1.3709   23.7883 C.ar    1  UNL1        0.0076
      7 N           3.0139   -1.6953   20.0583 N.ar    1  UNL1       -0.2111
      8 N           3.1354   -2.9003   19.1733 N.ar    1  UNL1       -0.1488
      9 C           4.0958   -3.8547   19.8188 C.ar    1  UNL1        0.1612
     10 C           4.5112   -5.1897   19.2756 C.3     1  UNL1        0.0756
     11 N           4.5679   -3.2396   21.1028 N.ar    1  UNL1       -0.2101
     12 C           3.8992   -1.9050   21.2509 C.ar    1  UNL1        0.1651
     13 C           0.4444    1.9147   19.2737 C.ar    1  UNL1        0.1388
     14 C           0.0529    0.9323   20.3374 C.ar    1  UNL1        0.0384
     15 C           0.9094   -0.2710   20.5990 C.ar    1  UNL1        0.0223
     16 C           2.1574   -0.4920   19.7968 C.ar    1  UNL1        0.0847
     17 C           2.5489    0.4904   18.7330 C.ar    1  UNL1        0.0223
     18 C           1.6924    1.6937   18.4715 C.ar    1  UNL1        0.0384
     19 C          -1.4477    3.5336   20.0144 C.3     1  UNL1        0.2525
     20 O          -0.4121    3.1180   19.0121 O.3     1  UNL1       -0.4714
     21 C           3.5771   -0.8369   26.3258 C.2     1  UNL1        0.2458
     22 O           4.3131   -1.9749   26.9687 O.2     1  UNL1       -0.2701
     23 N           2.4957   -0.1218   27.0802 N.am    1  UNL1       -0.3009
     24 H           2.0125    0.6251   26.6583 H       1  UNL1        0.1497
     25 C           2.1503   -0.5446   28.4773 C.3     1  UNL1        0.0897
     26 C           0.8260   -0.1642   29.0703 C.3     1  UNL1        0.0216
     27 C          -0.3626    0.0443   28.1793 C.3     1  UNL1        0.0064
     28 C          -0.7908    1.4346   27.8134 C.3     1  UNL1        0.0264
     29 C          -0.7052    1.8950   26.3884 C.ar    1  UNL1       -0.0222
     30 C          -1.6466    2.9475   25.8824 C.ar    1  UNL1       -0.0043
     31 C          -1.5610    3.4079   24.4574 C.ar    1  UNL1       -0.0003
     32 C          -0.5340    2.8159   23.5383 C.ar    1  UNL1       -0.0000
     33 C           0.4073    1.7633   24.0442 C.ar    1  UNL1       -0.0003
     34 C           0.3218    1.3029   25.4692 C.ar    1  UNL1       -0.0043
@<TRIPOS>BOND
     1    19    20    1
     2    20    13    1
     3    13    14   ar
     4    14    15   ar
     5    15    16   ar
     6    16     7    1
     7     7     8   ar
     8     8     9   ar
     9     9    10    1
    10     9    11   ar
    11    11    12   ar
    12    12     1    1
    13     1     2   ar
    14     2     3   ar
    15     3     4   ar
    16     4     5   ar
    17     5    21    1
    18    21    22    2
    19    21    23   am
    20    23    25    1
    21    25    26    1
    22    26    27    1
    23    27    28    1
    24    28    29    1
    25    29    30   ar
    26    30    31   ar
    27    31    32   ar
    28    32    33   ar
    29    33    34   ar
    30     5     6   ar
    31    16    17   ar
    32    17    18   ar
    33    18    13   ar
    34    12     7   ar
    35     6     1   ar
    36    34    29   ar
    37    23    24    1
@<TRIPOS>MOLECULE
*****
 34 37 0 0 0
SMALL
GASTEIGER

@<TRIPOS>ATOM
      1 C           3.9640   -2.0218   22.5045 C.ar    1  UNL1        0.0360
      2 C           2.9263   -0.9744   22.7808 C.ar    1  UNL1        0.0031
      3 C           2.8474   -0.3359   24.1358 C.ar    1  UNL1        0.0002
      4 C           3.8061   -0.7447   25.2146 C.ar    1  UNL1        0.0045
      5 C           4.8437   -1.7920   24.9383 C.ar    1  UNL1        0.0535
      6 C           4.9227   -2.4305   23.5833 C.ar    1  UNL1        0.0076
      7 N           3.7129   -2.0006   19.8434 N.ar    1  UNL1       -0.2111
      8 N           3.9318   -3.0032   18.7494 N.ar    1  UNL1       -0.1488
      9 C           4.3971   -4.2825   19.3794 C.ar    1  UNL1        0.1612
     10 C           4.7344   -5.5511   18.6534 C.3     1  UNL1        0.0756
     11 N           4.4658   -4.0706   20.8627 N.ar    1  UNL1       -0.2101
     12 C           4.0429   -2.6603   21.1495 C.ar    1  UNL1        0.1651
     13 C           2.3122    2.2415   19.3022 C.ar    1  UNL1        0.1388
     14 C           3.7719    1.9518   19.4896 C.ar    1  UNL1        0.0384
     15 C           4.2388    0.5378   19.6700 C.ar    1  UNL1        0.0223
     16 C           3.2460   -0.5866   19.6630 C.ar    1  UNL1        0.0847
     17 C           1.7863   -0.2969   19.4756 C.ar    1  UNL1        0.0223
     18 C           1.3194    1.1172   19.2952 C.ar    1  UNL1        0.0384
     19 C           2.1653    4.6893   20.1604 C.3     1  UNL1        0.2525
     20 O           1.8453    3.6555   19.1218 O.3     1  UNL1       -0.4714
     21 C           5.8025   -2.2009   26.0170 C.2     1  UNL1        0.2458
     22 O           7.2621   -1.8822   25.8835 O.2     1  UNL1       -0.2701
     23 N           5.3015   -2.9284   27.2294 N.am    1  UNL1       -0.3009
     24 H           4.3435   -3.1376   27.3170 H       1  UNL1        0.1497
     25 C           6.2603   -3.3373   28.3081 C.3     1  UNL1        0.0897
     26 C           6.7698   -4.7470   28.3639 C.3     1  UNL1        0.0216
     27 C           6.3559   -5.7361   27.3150 C.3     1  UNL1        0.0064
     28 C           7.3718   -6.6628   26.7156 C.3     1  UNL1        0.0264
     29 C           7.8194   -6.4686   25.2972 C.ar    1  UNL1       -0.0222
     30 C           8.5467   -7.5689   24.5828 C.ar    1  UNL1       -0.0043
     31 C           8.9943   -7.3746   23.1644 C.ar    1  UNL1       -0.0003
     32 C           8.7147   -6.0801   22.4603 C.ar    1  UNL1       -0.0000
     33 C           7.9873   -4.9797   23.1746 C.ar    1  UNL1       -0.0003
     34 C           7.5397   -5.1739   24.5930 C.ar    1  UNL1       -0.0043
@<TRIPOS>BOND
     1    19    20    1
     2    20    13    1
     3    13    14   ar
     4    14    15   ar
     5    15    16   ar
     6    16     7    1
     7     7     8   ar
     8     8     9   ar
     9     9    10    1
    10     9    11   ar
    11    11    12   ar
    12    12     1    1
    13     1     2   ar
    14     2     3   ar
    15     3     4   ar
    16     4     5   ar
    17     5    21    1
    18    21    22    2
    19    21    23   am
    20    23    25    1
    21    25    26    1
    22    26    27    1
    23    27    28    1
    24    28    29    1
    25    29    30   ar
    26    30    31   ar
    27    31    32   ar
    28    32    33   ar
    29    33    34   ar
    30     5     6   ar
    31    16    17   ar
    32    17    18   ar
    33    18    13   ar
    34    12     7   ar
    35     6     1   ar
    36    34    29   ar
    37    23    24    1
