@<TRIPOS>MOLECULE
*****
 18 20 0 0 0
SMALL
GASTEIGER

@<TRIPOS>ATOM
      1 O         -10.1901  -20.7824   24.2293 O.2     1  UNL1       -0.2376
      2 C          -9.6198  -19.7081   23.3514 C.2     1  UNL1        0.3788
      3 N          -8.1859  -19.7773   22.9168 N.am    1  UNL1        0.0364
      4 C          -7.6156  -18.7030   22.0389 C.2     1  UNL1        0.3688
      5 N          -8.4793  -17.5596   21.5956 N.2     1  UNL1       -0.0400
      6 C          -9.9133  -17.4904   22.0302 C.2     1  UNL1        0.1818
      7 C         -10.7770  -16.3470   21.5868 C.3     1  UNL1        0.1000
      8 C         -12.2110  -16.2778   22.0214 C.2     1  UNL1       -0.0174
      9 C         -12.7813  -17.3521   22.8993 C.2     1  UNL1       -0.0038
     10 C         -11.9176  -18.4955   23.3426 C.2     1  UNL1        0.0101
     11 C         -10.4836  -18.5647   22.9080 C.2     1  UNL1        0.1209
     12 C          -6.1815  -18.7722   21.6044 C.ar    1  UNL1        0.0865
     13 C          -5.8443  -19.1049   20.1812 C.ar    1  UNL1        0.0080
     14 C          -4.4103  -19.1740   19.7467 C.ar    1  UNL1        0.0069
     15 C          -3.3135  -18.9105   20.7354 C.ar    1  UNL1        0.0346
     16 BR         -1.8795  -18.9797   20.3008 Br      1  UNL1       -0.0490
     17 C          -3.6507  -18.5778   22.1586 C.ar    1  UNL1        0.0069
     18 C          -5.0847  -18.5086   22.5931 C.ar    1  UNL1        0.0080
@<TRIPOS>BOND
     1     1     2    2
     2     2     3    1
     3     3     4    2
     4     4    12    1
     5    12    13   ar
     6    13    14   ar
     7    14    15   ar
     8    15    16    1
     9    15    17   ar
    10    17    18   ar
    11     4     5    1
    12     5     6    2
    13     6     7    1
    14     7     8    1
    15     8     9    2
    16     9    10    1
    17    10    11    2
    18    11     2    1
    19    18    12   ar
    20    11     6    1
@<TRIPOS>MOLECULE
*****
 18 20 0 0 0
SMALL
GASTEIGER

@<TRIPOS>ATOM
      1 O          -5.2126  -21.3422   20.0187 O.2     1  UNL1       -0.2376
      2 C          -5.5848  -20.2174   20.9385 C.2     1  UNL1        0.3788
      3 N          -7.0283  -19.9375   21.2351 N.am    1  UNL1        0.0364
      4 C          -7.4006  -18.8127   22.1550 C.2     1  UNL1        0.3688
      5 N          -6.3294  -17.9677   22.7782 N.2     1  UNL1       -0.0400
      6 C          -4.8858  -18.2475   22.4816 C.2     1  UNL1        0.1818
      7 C          -3.8147  -17.4025   23.1049 C.3     1  UNL1        0.1000
      8 C          -2.3712  -17.6823   22.8083 C.2     1  UNL1       -0.0174
      9 C          -1.9989  -18.8072   21.8884 C.2     1  UNL1       -0.0038
     10 C          -3.0701  -19.6522   21.2652 C.2     1  UNL1        0.0101
     11 C          -4.5136  -19.3723   21.5618 C.2     1  UNL1        0.1209
     12 C          -8.8442  -18.5329   22.4516 C.ar    1  UNL1        0.0865
     13 C          -9.2910  -17.1321   22.7484 C.ar    1  UNL1        0.0080
     14 C         -10.7345  -16.8523   23.0449 C.ar    1  UNL1        0.0069
     15 C         -11.7312  -17.9734   23.0447 C.ar    1  UNL1        0.0346
     16 BR        -13.1747  -17.6935   23.3413 Br      1  UNL1       -0.0490
     17 C         -11.2843  -19.3741   22.7479 C.ar    1  UNL1        0.0069
     18 C          -9.8408  -19.6539   22.4514 C.ar    1  UNL1        0.0080
@<TRIPOS>BOND
     1     1     2    2
     2     2     3    1
     3     3     4    2
     4     4    12    1
     5    12    13   ar
     6    13    14   ar
     7    14    15   ar
     8    15    16    1
     9    15    17   ar
    10    17    18   ar
    11     4     5    1
    12     5     6    2
    13     6     7    1
    14     7     8    1
    15     8     9    2
    16     9    10    1
    17    10    11    2
    18    11     2    1
    19    18    12   ar
    20    11     6    1
@<TRIPOS>MOLECULE
*****
 18 20 0 0 0
SMALL
GASTEIGER

@<TRIPOS>ATOM
      1 O          -4.4428  -16.4772   23.2967 O.2     1  UNL1       -0.2376
      2 C          -5.4197  -17.4715   22.7424 C.2     1  UNL1        0.3788
      3 N          -6.8738  -17.3719   23.0966 N.am    1  UNL1        0.0364
      4 C          -7.8506  -18.3661   22.5423 C.2     1  UNL1        0.3688
      5 N          -7.3733  -19.4600   21.6337 N.2     1  UNL1       -0.0400
      6 C          -5.9191  -19.5597   21.2794 C.2     1  UNL1        0.1818
      7 C          -5.4418  -20.6535   20.3708 C.3     1  UNL1        0.1000
      8 C          -3.9876  -20.7531   20.0166 C.2     1  UNL1       -0.0174
      9 C          -3.0108  -19.7589   20.5709 C.2     1  UNL1       -0.0038
     10 C          -3.4881  -18.6650   21.4795 C.2     1  UNL1        0.0101
     11 C          -4.9423  -18.5654   21.8338 C.2     1  UNL1        0.1209
     12 C          -9.3048  -18.2664   22.8965 C.ar    1  UNL1        0.0865
     13 C          -9.8803  -19.1545   23.9596 C.ar    1  UNL1        0.0080
     14 C         -11.3345  -19.0548   24.3138 C.ar    1  UNL1        0.0069
     15 C         -12.2131  -18.0670   23.6050 C.ar    1  UNL1        0.0346
     16 BR        -13.6673  -17.9674   23.9593 Br      1  UNL1       -0.0490
     17 C         -11.6375  -17.1790   22.5420 C.ar    1  UNL1        0.0069
     18 C         -10.1834  -17.2787   22.1878 C.ar    1  UNL1        0.0080
@<TRIPOS>BOND
     1     1     2    2
     2     2     3    1
     3     3     4    2
     4     4    12    1
     5    12    13   ar
     6    13    14   ar
     7    14    15   ar
     8    15    16    1
     9    15    17   ar
    10    17    18   ar
    11     4     5    1
    12     5     6    2
    13     6     7    1
    14     7     8    1
    15     8     9    2
    16     9    10    1
    17    10    11    2
    18    11     2    1
    19    18    12   ar
    20    11     6    1
@<TRIPOS>MOLECULE
*****
 18 20 0 0 0
SMALL
GASTEIGER

@<TRIPOS>ATOM
      1 O          -4.8323  -20.1859   20.5153 O.2     1  UNL1       -0.2376
      2 C          -4.4135  -18.9530   21.2599 C.2     1  UNL1        0.3788
      3 N          -5.2866  -18.4006   22.3473 N.am    1  UNL1        0.0364
      4 C          -4.8678  -17.1677   23.0918 C.2     1  UNL1        0.3688
      5 N          -3.5758  -16.4870   22.7490 N.2     1  UNL1       -0.0400
      6 C          -2.7026  -17.0394   21.6615 C.2     1  UNL1        0.1818
      7 C          -1.4107  -16.3588   21.3187 C.3     1  UNL1        0.1000
      8 C          -0.5376  -16.9111   20.2312 C.2     1  UNL1       -0.0174
      9 C          -0.9564  -18.1441   19.4867 C.2     1  UNL1       -0.0038
     10 C          -2.2483  -18.8247   19.8295 C.2     1  UNL1        0.0101
     11 C          -3.1215  -18.2724   20.9169 C.2     1  UNL1        0.1209
     12 C          -5.7410  -16.6153   24.1793 C.ar    1  UNL1        0.0865
     13 C          -5.1271  -16.1193   25.4549 C.ar    1  UNL1        0.0080
     14 C          -6.0002  -15.5670   26.5422 C.ar    1  UNL1        0.0069
     15 C          -7.4873  -15.5107   26.3541 C.ar    1  UNL1        0.0346
     16 BR         -8.3605  -14.9584   27.4416 Br      1  UNL1       -0.0490
     17 C          -8.1012  -16.0067   25.0785 C.ar    1  UNL1        0.0069
     18 C          -7.2281  -16.5590   23.9912 C.ar    1  UNL1        0.0080
@<TRIPOS>BOND
     1     1     2    2
     2     2     3    1
     3     3     4    2
     4     4    12    1
     5    12    13   ar
     6    13    14   ar
     7    14    15   ar
     8    15    16    1
     9    15    17   ar
    10    17    18   ar
    11     4     5    1
    12     5     6    2
    13     6     7    1
    14     7     8    1
    15     8     9    2
    16     9    10    1
    17    10    11    2
    18    11     2    1
    19    18    12   ar
    20    11     6    1
@<TRIPOS>MOLECULE
*****
 18 20 0 0 0
SMALL
GASTEIGER

@<TRIPOS>ATOM
      1 O         -13.2665   -2.7130   19.6834 O.2     1  UNL1       -0.2376
      2 C         -13.3749   -4.1909   19.4515 C.2     1  UNL1        0.3788
      3 N         -14.7023   -4.8761   19.5874 N.am    1  UNL1        0.0364
      4 C         -14.8106   -6.3541   19.3555 C.2     1  UNL1        0.3688
      5 N         -13.5916   -7.1469   18.9876 N.2     1  UNL1       -0.0400
      6 C         -12.2641   -6.4618   18.8517 C.2     1  UNL1        0.1818
      7 C         -11.0451   -7.2546   18.4838 C.3     1  UNL1        0.1000
      8 C          -9.7177   -6.5694   18.3478 C.2     1  UNL1       -0.0174
      9 C          -9.6094   -5.0915   18.5798 C.2     1  UNL1       -0.0038
     10 C         -10.8284   -4.2986   18.9476 C.2     1  UNL1        0.0101
     11 C         -12.1558   -4.9838   19.0836 C.2     1  UNL1        0.1209
     12 C         -16.1381   -7.0393   19.4915 C.ar    1  UNL1        0.0865
     13 C         -16.2001   -8.5293   19.6527 C.ar    1  UNL1        0.0080
     14 C         -17.5275   -9.2143   19.7886 C.ar    1  UNL1        0.0069
     15 C         -18.7930   -8.4094   19.7634 C.ar    1  UNL1        0.0346
     16 BR        -20.1205   -9.0946   19.8993 Br      1  UNL1       -0.0490
     17 C         -18.7311   -6.9194   19.6022 C.ar    1  UNL1        0.0069
     18 C         -17.4036   -6.2344   19.4662 C.ar    1  UNL1        0.0080
@<TRIPOS>BOND
     1     1     2    2
     2     2     3    1
     3     3     4    2
     4     4    12    1
     5    12    13   ar
     6    13    14   ar
     7    14    15   ar
     8    15    16    1
     9    15    17   ar
    10    17    18   ar
    11     4     5    1
    12     5     6    2
    13     6     7    1
    14     7     8    1
    15     8     9    2
    16     9    10    1
    17    10    11    2
    18    11     2    1
    19    18    12   ar
    20    11     6    1
@<TRIPOS>MOLECULE
*****
 18 20 0 0 0
SMALL
GASTEIGER

@<TRIPOS>ATOM
      1 O         -15.2100  -11.0963   17.9707 O.2     1  UNL1       -0.2376
      2 C         -15.1951   -9.6187   18.2286 C.2     1  UNL1        0.3788
      3 N         -13.9844   -8.8076   17.8731 N.am    1  UNL1        0.0364
      4 C         -13.9695   -7.3300   18.1310 C.2     1  UNL1        0.3688
      5 N         -15.1651   -6.6635   18.7442 N.2     1  UNL1       -0.0400
      6 C         -16.3759   -7.4747   19.0997 C.2     1  UNL1        0.1818
      7 C         -17.5715   -6.8082   19.7130 C.3     1  UNL1        0.1000
      8 C         -18.7822   -7.6194   20.0684 C.2     1  UNL1       -0.0174
      9 C         -18.7971   -9.0970   19.8106 C.2     1  UNL1       -0.0038
     10 C         -17.6015   -9.7634   19.1973 C.2     1  UNL1        0.0101
     11 C         -16.3908   -8.9523   18.8419 C.2     1  UNL1        0.1209
     12 C         -12.7587   -6.5189   17.7755 C.ar    1  UNL1        0.0865
     13 C         -11.9368   -5.8844   18.8580 C.ar    1  UNL1        0.0080
     14 C         -10.7261   -5.0733   18.5025 C.ar    1  UNL1        0.0069
     15 C         -10.3375   -4.8967   17.0645 C.ar    1  UNL1        0.0346
     16 BR         -9.1267   -4.0856   16.7090 Br      1  UNL1       -0.0490
     17 C         -11.1594   -5.5312   15.9820 C.ar    1  UNL1        0.0069
     18 C         -12.3701   -6.3423   16.3375 C.ar    1  UNL1        0.0080
@<TRIPOS>BOND
     1     1     2    2
     2     2     3    1
     3     3     4    2
     4     4    12    1
     5    12    13   ar
     6    13    14   ar
     7    14    15   ar
     8    15    16    1
     9    15    17   ar
    10    17    18   ar
    11     4     5    1
    12     5     6    2
    13     6     7    1
    14     7     8    1
    15     8     9    2
    16     9    10    1
    17    10    11    2
    18    11     2    1
    19    18    12   ar
    20    11     6    1
@<TRIPOS>MOLECULE
*****
 18 20 0 0 0
SMALL
GASTEIGER

@<TRIPOS>ATOM
      1 O          -9.9348   -4.9866   19.2649 O.2     1  UNL1       -0.2376
      2 C         -11.4110   -4.8610   19.0301 C.2     1  UNL1        0.3788
      3 N         -12.2742   -6.0876   19.0096 N.am    1  UNL1        0.0364
      4 C         -13.7504   -5.9621   18.7748 C.2     1  UNL1        0.3688
      5 N         -14.3634   -4.6100   18.5605 N.2     1  UNL1       -0.0400
      6 C         -13.5002   -3.3833   18.5810 C.2     1  UNL1        0.1818
      7 C         -14.1133   -2.0312   18.3667 C.3     1  UNL1        0.1000
      8 C         -13.2501   -0.8046   18.3872 C.2     1  UNL1       -0.0174
      9 C         -11.7739   -0.9302   18.6220 C.2     1  UNL1       -0.0038
     10 C         -11.1609   -2.2823   18.8363 C.2     1  UNL1        0.0101
     11 C         -12.0240   -3.5088   18.8158 C.2     1  UNL1        0.1209
     12 C         -14.6135   -7.1887   18.7543 C.ar    1  UNL1        0.0865
     13 C         -15.9129   -7.2041   19.5036 C.ar    1  UNL1        0.0080
     14 C         -16.7759   -8.4307   19.4831 C.ar    1  UNL1        0.0069
     15 C         -16.3397   -9.6419   18.7133 C.ar    1  UNL1        0.0346
     16 BR        -17.2028  -10.8686   18.6929 Br      1  UNL1       -0.0490
     17 C         -15.0403   -9.6266   17.9641 C.ar    1  UNL1        0.0069
     18 C         -14.1772   -8.4000   17.9846 C.ar    1  UNL1        0.0080
@<TRIPOS>BOND
     1     1     2    2
     2     2     3    1
     3     3     4    2
     4     4    12    1
     5    12    13   ar
     6    13    14   ar
     7    14    15   ar
     8    15    16    1
     9    15    17   ar
    10    17    18   ar
    11     4     5    1
    12     5     6    2
    13     6     7    1
    14     7     8    1
    15     8     9    2
    16     9    10    1
    17    10    11    2
    18    11     2    1
    19    18    12   ar
    20    11     6    1
@<TRIPOS>MOLECULE
*****
 18 20 0 0 0
SMALL
GASTEIGER

@<TRIPOS>ATOM
      1 O         -11.5242   -8.3773   15.9829 O.2     1  UNL1       -0.2376
      2 C         -12.2065   -7.5377   17.0220 C.2     1  UNL1        0.3788
      3 N         -13.5788   -7.9068   17.5018 N.am    1  UNL1        0.0364
      4 C         -14.2611   -7.0673   18.5409 C.2     1  UNL1        0.3688
      5 N         -13.5709   -5.8586   19.1002 N.2     1  UNL1       -0.0400
      6 C         -12.1985   -5.4895   18.6203 C.2     1  UNL1        0.1818
      7 C         -11.5083   -4.2808   19.1796 C.3     1  UNL1        0.1000
      8 C         -10.1359   -3.9117   18.6997 C.2     1  UNL1       -0.0174
      9 C          -9.4537   -4.7513   17.6606 C.2     1  UNL1       -0.0038
     10 C         -10.1439   -5.9599   17.1014 C.2     1  UNL1        0.0101
     11 C         -11.5162   -6.3290   17.5812 C.2     1  UNL1        0.1209
     12 C         -15.6335   -7.4365   19.0208 C.ar    1  UNL1        0.0865
     13 C         -15.9456   -8.8595   19.3780 C.ar    1  UNL1        0.0080
     14 C         -17.3180   -9.2285   19.8578 C.ar    1  UNL1        0.0069
     15 C         -18.3783   -8.1746   19.9804 C.ar    1  UNL1        0.0346
     16 BR        -19.7507   -8.5438   20.4603 Br      1  UNL1       -0.0490
     17 C         -18.0662   -6.7517   19.6232 C.ar    1  UNL1        0.0069
     18 C         -16.6938   -6.3826   19.1434 C.ar    1  UNL1        0.0080
@<TRIPOS>BOND
     1     1     2    2
     2     2     3    1
     3     3     4    2
     4     4    12    1
     5    12    13   ar
     6    13    14   ar
     7    14    15   ar
     8    15    16    1
     9    15    17   ar
    10    17    18   ar
    11     4     5    1
    12     5     6    2
    13     6     7    1
    14     7     8    1
    15     8     9    2
    16     9    10    1
    17    10    11    2
    18    11     2    1
    19    18    12   ar
    20    11     6    1
@<TRIPOS>MOLECULE
*****
 18 20 0 0 0
SMALL
GASTEIGER

@<TRIPOS>ATOM
      1 O          -9.6820   -7.5445   18.8475 O.2     1  UNL1       -0.2376
      2 C         -10.8679   -6.7097   18.4645 C.2     1  UNL1        0.3788
      3 N         -12.2464   -7.1289   18.8816 N.am    1  UNL1        0.0364
      4 C         -13.4323   -6.2941   18.4987 C.2     1  UNL1        0.3688
      5 N         -13.2397   -5.0399   17.6987 N.2     1  UNL1       -0.0400
      6 C         -11.8612   -4.6206   17.2816 C.2     1  UNL1        0.1818
      7 C         -11.6687   -3.3664   16.4817 C.3     1  UNL1        0.1000
      8 C         -10.2902   -2.9472   16.0646 C.2     1  UNL1       -0.0174
      9 C          -9.1043   -3.7820   16.4475 C.2     1  UNL1       -0.0038
     10 C          -9.2968   -5.0362   17.2475 C.2     1  UNL1        0.0101
     11 C         -10.6753   -5.4554   17.6645 C.2     1  UNL1        0.1209
     12 C         -14.8108   -6.7134   18.9158 C.ar    1  UNL1        0.0865
     13 C         -15.8687   -5.6779   19.1578 C.ar    1  UNL1        0.0080
     14 C         -17.2471   -6.0973   19.5749 C.ar    1  UNL1        0.0069
     15 C         -17.5677   -7.5521   19.7500 C.ar    1  UNL1        0.0346
     16 BR        -18.9462   -7.9715   20.1671 Br      1  UNL1       -0.0490
     17 C         -16.5098   -8.5876   19.5080 C.ar    1  UNL1        0.0069
     18 C         -15.1314   -8.1683   19.0909 C.ar    1  UNL1        0.0080
@<TRIPOS>BOND
     1     1     2    2
     2     2     3    1
     3     3     4    2
     4     4    12    1
     5    12    13   ar
     6    13    14   ar
     7    14    15   ar
     8    15    16    1
     9    15    17   ar
    10    17    18   ar
    11     4     5    1
    12     5     6    2
    13     6     7    1
    14     7     8    1
    15     8     9    2
    16     9    10    1
    17    10    11    2
    18    11     2    1
    19    18    12   ar
    20    11     6    1
