@<TRIPOS>MOLECULE
*****
 36 40 0 0 0
SMALL
GASTEIGER

@<TRIPOS>ATOM
      1 C          -0.0697    5.6878   33.8033 C.3     1  UNL1        0.0948
      2 C           0.9317    4.6042   34.0734 C.2     1  UNL1        0.2262
      3 O           1.7140    4.6080   35.3532 O.2     1  UNL1       -0.2749
      4 N           1.1509    3.5168   33.0637 N.am    1  UNL1       -0.2786
      5 C           2.1128    2.3733   33.1941 C.3     1  UNL1        0.1029
      6 C           2.0029    1.5318   31.9573 C.3     1  UNL1        0.1053
      7 C           0.9731    2.1552   31.0624 C.3     1  UNL1        0.0888
      8 C           0.4465    3.3820   31.7461 C.3     1  UNL1        0.1014
      9 C           0.5451    1.6419   29.7195 C.ar    1  UNL1        0.1447
     10 N          -0.5770    0.6810   29.4597 N.ar    1  UNL1       -0.1336
     11 N          -0.6517    0.4446   27.9802 N.ar    1  UNL1       -0.1337
     12 C           0.4243    1.2595   27.3258 C.ar    1  UNL1        0.1425
     13 N           1.1639    1.9995   28.4007 N.ar    1  UNL1       -0.3040
     14 C           0.7103    1.3233   25.8547 C.3     1  UNL1        0.0588
     15 C           1.9092    1.0529   24.9946 C.3     1  UNL1        0.0075
     16 C           1.1149    1.4134   23.7742 C.3     1  UNL1        0.0009
     17 C          -0.0839    1.6838   24.6344 C.3     1  UNL1        0.0075
     18 C           1.4010    1.4772   22.3032 C.3     1  UNL1        0.0000
     19 C           1.5591    0.2112   21.5143 C.3     1  UNL1        0.0000
     20 C           2.7401   -0.6812   21.7570 C.3     1  UNL1        0.0000
     21 C           0.5363   -0.1623   20.4827 C.3     1  UNL1        0.0000
     22 C           2.3195    2.9332   28.1932 C.3     1  UNL1        0.0878
     23 C           3.3832    3.8286   28.7558 C.3     1  UNL1        0.0246
     24 C           3.2572    3.6548   27.2713 C.3     1  UNL1        0.0246
     25 C           2.7855    0.2856   31.6663 C.2     1  UNL1        0.2278
     26 O           2.1234   -0.8731   30.9815 O.2     1  UNL1       -0.2747
     27 N           4.2302    0.1981   32.0602 N.am    1  UNL1       -0.2841
     28 H           4.6648    0.9586   32.5097 H       1  UNL1        0.1548
     29 C           5.0128   -1.0481   31.7693 C.ar    1  UNL1        0.0462
     30 C           5.7671   -1.1760   30.4791 C.ar    1  UNL1        0.0140
     31 C           6.5496   -2.4221   30.1883 C.ar    1  UNL1       -0.0030
     32 C           6.5778   -3.5405   31.1875 C.ar    1  UNL1       -0.0221
     33 C           7.3604   -4.7867   30.8966 C.3     1  UNL1        0.0310
     34 C           5.8234   -3.4126   32.4777 C.ar    1  UNL1       -0.0073
     35 C           5.0409   -2.1664   32.7686 C.ar    1  UNL1       -0.0087
     36 C           4.2865   -2.0385   34.0588 C.3     1  UNL1        0.0323
@<TRIPOS>BOND
     1     1     2    1
     2     2     3    2
     3     2     4   am
     4     4     5    1
     5     5     6    1
     6     6    25    1
     7    25    26    2
     8    25    27   am
     9    27    29    1
    10    29    30   ar
    11    30    31   ar
    12    31    32   ar
    13    32    33    1
    14    32    34   ar
    15    34    35   ar
    16    35    36    1
    17     6     7    1
    18     7     9    1
    19     9    10   ar
    20    10    11   ar
    21    11    12   ar
    22    14    12    1
    23    14    15    1
    24    15    16    1
    25    16    18    1
    26    18    19    1
    27    19    20    1
    28    19    21    1
    29    16    17    1
    30    12    13   ar
    31    13    22    1
    32    22    23    1
    33    23    24    1
    34     7     8    1
    35     8     4    1
    36    35    29   ar
    37    13     9   ar
    38    24    22    1
    39    17    14    1
    40    27    28    1
@<TRIPOS>MOLECULE
*****
 36 40 0 0 0
SMALL
GASTEIGER

@<TRIPOS>ATOM
      1 C           5.7159    0.2511   16.9580 C.3     1  UNL1        0.0948
      2 C           6.0833   -0.9091   17.8349 C.2     1  UNL1        0.2262
      3 O           6.8838   -2.0477   17.2759 O.2     1  UNL1       -0.2749
      4 N           5.6501   -0.9306   19.2708 N.am    1  UNL1       -0.2786
      5 C           5.9410   -2.0170   20.2634 C.3     1  UNL1        0.1029
      6 C           5.3206   -1.6273   21.5723 C.3     1  UNL1        0.1053
      7 C           4.6463   -0.3000   21.3888 C.3     1  UNL1        0.0888
      8 C           4.8499    0.1306   19.9664 C.3     1  UNL1        0.1014
      9 C           3.8995    0.4627   22.4425 C.ar    1  UNL1        0.1447
     10 N           4.4906    1.0561   23.6869 N.ar    1  UNL1       -0.1336
     11 N           3.3869    1.7262   24.4504 N.ar    1  UNL1       -0.1337
     12 C           2.1138    1.5469   23.6779 C.ar    1  UNL1        0.1425
     13 N           2.4305    0.7661   22.4370 N.ar    1  UNL1       -0.3040
     14 C           0.7612    2.0586   24.0764 C.3     1  UNL1        0.0588
     15 C          -0.2496    1.6839   25.1195 C.3     1  UNL1        0.0075
     16 C          -1.1516    2.7824   24.6400 C.3     1  UNL1        0.0009
     17 C          -0.1408    3.1571   23.5969 C.3     1  UNL1        0.0075
     18 C          -2.5041    3.2940   25.0385 C.3     1  UNL1        0.0000
     19 C          -2.6509    4.1546   26.2583 C.3     1  UNL1        0.0000
     20 C          -1.4331    4.7084   26.9365 C.3     1  UNL1        0.0000
     21 C          -4.0157    4.4613   26.7999 C.3     1  UNL1        0.0000
     22 C           1.4503    0.3598   21.3766 C.3     1  UNL1        0.0878
     23 C           1.0462   -0.5646   20.2666 C.3     1  UNL1        0.0246
     24 C           0.1568    0.5807   20.6501 C.3     1  UNL1        0.0246
     25 C           5.3665   -2.4248   22.8419 C.2     1  UNL1        0.2278
     26 O           4.2946   -3.4328   23.1336 O.2     1  UNL1       -0.2747
     27 N           6.4842   -2.2144   23.8198 N.am    1  UNL1       -0.2841
     28 H           7.1878   -1.5528   23.6284 H       1  UNL1        0.1548
     29 C           6.5301   -3.0119   25.0894 C.ar    1  UNL1        0.0462
     30 C           6.0717   -2.3969   26.3784 C.ar    1  UNL1        0.0140
     31 C           6.1175   -3.1945   27.6479 C.ar    1  UNL1       -0.0030
     32 C           6.6218   -4.6071   27.6284 C.ar    1  UNL1       -0.0221
     33 C           6.6676   -5.4047   28.8981 C.3     1  UNL1        0.0310
     34 C           7.0802   -5.2221   26.3394 C.ar    1  UNL1       -0.0073
     35 C           7.0343   -4.4245   25.0699 C.ar    1  UNL1       -0.0087
     36 C           7.4928   -5.0395   23.7808 C.3     1  UNL1        0.0323
@<TRIPOS>BOND
     1     1     2    1
     2     2     3    2
     3     2     4   am
     4     4     5    1
     5     5     6    1
     6     6    25    1
     7    25    26    2
     8    25    27   am
     9    27    29    1
    10    29    30   ar
    11    30    31   ar
    12    31    32   ar
    13    32    33    1
    14    32    34   ar
    15    34    35   ar
    16    35    36    1
    17     6     7    1
    18     7     9    1
    19     9    10   ar
    20    10    11   ar
    21    11    12   ar
    22    14    12    1
    23    14    15    1
    24    15    16    1
    25    16    18    1
    26    18    19    1
    27    19    20    1
    28    19    21    1
    29    16    17    1
    30    12    13   ar
    31    13    22    1
    32    22    23    1
    33    23    24    1
    34     7     8    1
    35     8     4    1
    36    35    29   ar
    37    13     9   ar
    38    24    22    1
    39    17    14    1
    40    27    28    1
@<TRIPOS>MOLECULE
*****
 36 40 0 0 0
SMALL
GASTEIGER

@<TRIPOS>ATOM
      1 C          -4.7086    4.8519   25.7875 C.3     1  UNL1        0.0948
      2 C          -3.5483    4.6081   24.8686 C.2     1  UNL1        0.2262
      3 O          -3.5281    5.2315   23.5045 O.2     1  UNL1       -0.2749
      4 N          -2.4083    3.7408   25.3138 N.am    1  UNL1       -0.2786
      5 C          -1.1869    3.4084   24.5092 C.3     1  UNL1        0.1029
      6 C          -0.3133    2.5158   25.3400 C.3     1  UNL1        0.1053
      7 C          -0.9948    2.2966   26.6580 C.3     1  UNL1        0.0888
      8 C          -2.2896    3.0537   26.6419 C.3     1  UNL1        0.1014
      9 C          -0.4732    1.4662   27.7930 C.ar    1  UNL1        0.1447
     10 N          -1.1208    0.2356   28.3554 N.ar    1  UNL1       -0.1336
     11 N          -0.2602   -0.2707   29.4749 N.ar    1  UNL1       -0.1337
     12 C           0.9192    0.6470   29.6044 C.ar    1  UNL1        0.1425
     13 N           0.7876    1.7205   28.5649 N.ar    1  UNL1       -0.3040
     14 C           2.0344    0.5146   30.5987 C.3     1  UNL1        0.0588
     15 C           2.4113    1.2166   31.8696 C.3     1  UNL1        0.0075
     16 C           3.6117    0.3272   32.0049 C.3     1  UNL1        0.0009
     17 C           3.2348   -0.3748   30.7340 C.3     1  UNL1        0.0075
     18 C           4.7268    0.1948   32.9992 C.3     1  UNL1        0.0000
     19 C           4.6704   -0.8723   34.0519 C.3     1  UNL1        0.0000
     20 C           4.9980   -0.5381   35.4770 C.3     1  UNL1        0.0000
     21 C           4.2864   -2.2737   33.6794 C.3     1  UNL1        0.0000
     22 C           1.7482    2.8499   28.3373 C.3     1  UNL1        0.0878
     23 C           3.1526    3.3438   28.1545 C.3     1  UNL1        0.0246
     24 C           2.0074    4.3121   28.1259 C.3     1  UNL1        0.0246
     25 C           1.0096    1.9430   24.9254 C.2     1  UNL1        0.2278
     26 O           2.1858    2.8494   24.7126 O.2     1  UNL1       -0.2747
     27 N           1.1564    0.4639   24.7237 N.am    1  UNL1       -0.2841
     28 H           0.3845   -0.1309   24.8634 H       1  UNL1        0.1548
     29 C           2.4794   -0.1089   24.3092 C.ar    1  UNL1        0.0462
     30 C           2.7853   -0.3141   22.8552 C.ar    1  UNL1        0.0140
     31 C           4.1082   -0.8869   22.4407 C.ar    1  UNL1       -0.0030
     32 C           5.1252   -1.2544   23.4802 C.ar    1  UNL1       -0.0221
     33 C           6.4481   -1.8271   23.0657 C.3     1  UNL1        0.0310
     34 C           4.8193   -1.0491   24.9343 C.ar    1  UNL1       -0.0073
     35 C           3.4964   -0.4763   25.3487 C.ar    1  UNL1       -0.0087
     36 C           3.1904   -0.2710   26.8028 C.3     1  UNL1        0.0323
@<TRIPOS>BOND
     1     1     2    1
     2     2     3    2
     3     2     4   am
     4     4     5    1
     5     5     6    1
     6     6    25    1
     7    25    26    2
     8    25    27   am
     9    27    29    1
    10    29    30   ar
    11    30    31   ar
    12    31    32   ar
    13    32    33    1
    14    32    34   ar
    15    34    35   ar
    16    35    36    1
    17     6     7    1
    18     7     9    1
    19     9    10   ar
    20    10    11   ar
    21    11    12   ar
    22    14    12    1
    23    14    15    1
    24    15    16    1
    25    16    18    1
    26    18    19    1
    27    19    20    1
    28    19    21    1
    29    16    17    1
    30    12    13   ar
    31    13    22    1
    32    22    23    1
    33    23    24    1
    34     7     8    1
    35     8     4    1
    36    35    29   ar
    37    13     9   ar
    38    24    22    1
    39    17    14    1
    40    27    28    1
@<TRIPOS>MOLECULE
*****
 36 40 0 0 0
SMALL
GASTEIGER

@<TRIPOS>ATOM
      1 C           7.0675   -3.2095   28.4697 C.3     1  UNL1        0.0948
      2 C           7.1715   -2.2546   29.6219 C.2     1  UNL1        0.2262
      3 O           8.4256   -2.2042   30.4432 O.2     1  UNL1       -0.2749
      4 N           6.0215   -1.3503   29.9527 N.am    1  UNL1       -0.2786
      5 C           5.9798   -0.3492   31.0689 C.3     1  UNL1        0.1029
      6 C           4.6437    0.3316   31.0314 C.3     1  UNL1        0.1053
      7 C           3.8596   -0.2488   29.8920 C.3     1  UNL1        0.0888
      8 C           4.7110   -1.2882   29.2253 C.3     1  UNL1        0.1014
      9 C           2.4683    0.1417   29.4898 C.ar    1  UNL1        0.1447
     10 N           1.2092   -0.1914   30.2340 N.ar    1  UNL1       -0.1336
     11 N           0.0544    0.3948   29.4770 N.ar    1  UNL1       -0.1337
     12 C           0.5999    1.0903   28.2651 C.ar    1  UNL1        0.1425
     13 N           2.0917    0.9338   28.2730 N.ar    1  UNL1       -0.3040
     14 C          -0.2051    1.8149   27.2274 C.3     1  UNL1        0.0588
     15 C          -0.9599    3.1105   27.1845 C.3     1  UNL1        0.0075
     16 C          -1.3436    2.8398   25.7598 C.3     1  UNL1        0.0009
     17 C          -0.5888    1.5442   25.8028 C.3     1  UNL1        0.0075
     18 C          -2.1487    3.5644   24.7223 C.3     1  UNL1        0.0000
     19 C          -3.6458    3.5828   24.8123 C.3     1  UNL1        0.0000
     20 C          -4.4737    3.2226   23.6145 C.3     1  UNL1        0.0000
     21 C          -4.3151    3.9613   26.1003 C.3     1  UNL1        0.0000
     22 C           3.0404    1.4746   27.2446 C.3     1  UNL1        0.0878
     23 C           3.2898    2.2753   26.0010 C.3     1  UNL1        0.0246
     24 C           4.4342    1.6105   26.7069 C.3     1  UNL1        0.0246
     25 C           4.1741    1.4044   31.9687 C.2     1  UNL1        0.2278
     26 O           4.9751    2.6624   32.1305 O.2     1  UNL1       -0.2747
     27 N           2.9037    1.2193   32.7444 N.am    1  UNL1       -0.2841
     28 H           2.3780    0.3937   32.6382 H       1  UNL1        0.1548
     29 C           2.4341    2.2922   33.6817 C.ar    1  UNL1        0.0462
     30 C           2.8904    2.2920   35.1106 C.ar    1  UNL1        0.0140
     31 C           2.4208    3.3649   36.0479 C.ar    1  UNL1       -0.0030
     32 C           1.4950    4.4378   35.5563 C.ar    1  UNL1       -0.0221
     33 C           1.0255    5.5107   36.4936 C.3     1  UNL1        0.0310
     34 C           1.0388    4.4380   34.1274 C.ar    1  UNL1       -0.0073
     35 C           1.5083    3.3651   33.1901 C.ar    1  UNL1       -0.0087
     36 C           1.0521    3.3652   31.7611 C.3     1  UNL1        0.0323
@<TRIPOS>BOND
     1     1     2    1
     2     2     3    2
     3     2     4   am
     4     4     5    1
     5     5     6    1
     6     6    25    1
     7    25    26    2
     8    25    27   am
     9    27    29    1
    10    29    30   ar
    11    30    31   ar
    12    31    32   ar
    13    32    33    1
    14    32    34   ar
    15    34    35   ar
    16    35    36    1
    17     6     7    1
    18     7     9    1
    19     9    10   ar
    20    10    11   ar
    21    11    12   ar
    22    14    12    1
    23    14    15    1
    24    15    16    1
    25    16    18    1
    26    18    19    1
    27    19    20    1
    28    19    21    1
    29    16    17    1
    30    12    13   ar
    31    13    22    1
    32    22    23    1
    33    23    24    1
    34     7     8    1
    35     8     4    1
    36    35    29   ar
    37    13     9   ar
    38    24    22    1
    39    17    14    1
    40    27    28    1
@<TRIPOS>MOLECULE
*****
 36 40 0 0 0
SMALL
GASTEIGER

@<TRIPOS>ATOM
      1 C          -0.1202    5.7451   30.6563 C.3     1  UNL1        0.0948
      2 C           0.2879    4.5287   31.4334 C.2     1  UNL1        0.2262
      3 O          -0.1505    4.3674   32.8587 O.2     1  UNL1       -0.2749
      4 N           1.1344    3.4736   30.7850 N.am    1  UNL1       -0.2786
      5 C           1.6178    2.2099   31.4327 C.3     1  UNL1        0.1029
      6 C           2.4282    1.4523   30.4231 C.3     1  UNL1        0.1053
      7 C           2.4457    2.2477   29.1515 C.3     1  UNL1        0.0888
      8 C           1.6461    3.4970   29.3752 C.3     1  UNL1        0.1014
      9 C           3.1408    1.8618   27.8796 C.ar    1  UNL1        0.1447
     10 N           4.6245    1.8202   27.6633 N.ar    1  UNL1       -0.1336
     11 N           4.8749    1.3823   26.2506 N.ar    1  UNL1       -0.1337
     12 C           3.5460    1.1533   25.5939 C.ar    1  UNL1        0.1425
     13 N           2.4742    1.4496   26.6006 N.ar    1  UNL1       -0.3040
     14 C           3.3272    0.7064   24.1788 C.3     1  UNL1        0.0588
     15 C           3.0136   -0.6024   23.5163 C.3     1  UNL1        0.0075
     16 C           3.0177    0.0743   22.1775 C.3     1  UNL1        0.0009
     17 C           3.3313    1.3831   22.8401 C.3     1  UNL1        0.0075
     18 C           2.7989   -0.3726   20.7626 C.3     1  UNL1        0.0000
     19 C           1.6150    0.1310   19.9914 C.3     1  UNL1        0.0000
     20 C           0.2614    0.1707   20.6367 C.3     1  UNL1        0.0000
     21 C           1.7845    0.5948   18.5751 C.3     1  UNL1        0.0000
     22 C           0.9954    1.3510   26.3690 C.3     1  UNL1        0.0878
     23 C          -0.4016    1.2705   26.9093 C.3     1  UNL1        0.0246
     24 C          -0.1689    1.2607   25.4276 C.3     1  UNL1        0.0246
     25 C           3.1027    0.1312   30.6460 C.2     1  UNL1        0.2278
     26 O           2.2797   -1.1057   30.8529 O.2     1  UNL1       -0.2747
     27 N           4.6003    0.0470   30.6619 N.am    1  UNL1       -0.2841
     28 H           5.1405    0.8587   30.5261 H       1  UNL1        0.1548
     29 C           5.2748   -1.2742   30.8848 C.ar    1  UNL1        0.0462
     30 C           5.8780   -2.0131   29.7272 C.ar    1  UNL1        0.0140
     31 C           6.5524   -3.3342   29.9501 C.ar    1  UNL1       -0.0030
     32 C           6.6237   -3.9164   31.3307 C.ar    1  UNL1       -0.0221
     33 C           7.2982   -5.2376   31.5536 C.3     1  UNL1        0.0310
     34 C           6.0205   -3.1775   32.4883 C.ar    1  UNL1       -0.0073
     35 C           5.3460   -1.8564   32.2654 C.ar    1  UNL1       -0.0087
     36 C           4.7428   -1.1175   33.4230 C.3     1  UNL1        0.0323
@<TRIPOS>BOND
     1     1     2    1
     2     2     3    2
     3     2     4   am
     4     4     5    1
     5     5     6    1
     6     6    25    1
     7    25    26    2
     8    25    27   am
     9    27    29    1
    10    29    30   ar
    11    30    31   ar
    12    31    32   ar
    13    32    33    1
    14    32    34   ar
    15    34    35   ar
    16    35    36    1
    17     6     7    1
    18     7     9    1
    19     9    10   ar
    20    10    11   ar
    21    11    12   ar
    22    14    12    1
    23    14    15    1
    24    15    16    1
    25    16    18    1
    26    18    19    1
    27    19    20    1
    28    19    21    1
    29    16    17    1
    30    12    13   ar
    31    13    22    1
    32    22    23    1
    33    23    24    1
    34     7     8    1
    35     8     4    1
    36    35    29   ar
    37    13     9   ar
    38    24    22    1
    39    17    14    1
    40    27    28    1
@<TRIPOS>MOLECULE
*****
 36 40 0 0 0
SMALL
GASTEIGER

@<TRIPOS>ATOM
      1 C          -2.4651    5.9738   23.2795 C.3     1  UNL1        0.0948
      2 C          -2.2176    4.9726   22.1903 C.2     1  UNL1        0.2262
      3 O          -2.9843    5.0590   20.9040 O.2     1  UNL1       -0.2749
      4 N          -1.2035    3.8851   22.3874 N.am    1  UNL1       -0.2786
      5 C          -0.8499    2.8186   21.3937 C.3     1  UNL1        0.1029
      6 C           0.2072    1.9475   22.0050 C.3     1  UNL1        0.1053
      7 C           0.5070    2.4756   23.3765 C.3     1  UNL1        0.0888
      8 C          -0.3649    3.6731   23.6129 C.3     1  UNL1        0.1014
      9 C           1.5036    1.9063   24.3422 C.ar    1  UNL1        0.1447
     10 N           2.9301    1.5591   24.0348 N.ar    1  UNL1       -0.1336
     11 N           3.5569    1.0224   25.2874 N.ar    1  UNL1       -0.1337
     12 C           2.5177    1.0378   26.3690 C.ar    1  UNL1        0.1425
     13 N           1.2487    1.5841   25.7849 N.ar    1  UNL1       -0.3040
     14 C           2.7133    0.5863   27.7860 C.3     1  UNL1        0.0588
     15 C           2.2734   -0.6003   28.5914 C.3     1  UNL1        0.0075
     16 C           2.9898   -0.0523   29.7900 C.3     1  UNL1        0.0009
     17 C           3.4296    1.1343   28.9846 C.3     1  UNL1        0.0075
     18 C           3.1852   -0.5039   31.2069 C.3     1  UNL1        0.0000
     19 C           4.3908   -1.3167   31.5756 C.3     1  UNL1        0.0000
     20 C           4.3870   -2.1369   32.8315 C.3     1  UNL1        0.0000
     21 C           5.6003   -1.3092   30.6884 C.3     1  UNL1        0.0000
     22 C          -0.0476    1.7747   26.5152 C.3     1  UNL1        0.0878
     23 C          -1.3639    2.4786   26.6632 C.3     1  UNL1        0.0246
     24 C          -0.9765    1.4010   27.6320 C.3     1  UNL1        0.0246
     25 C           0.8515    0.7573   21.3583 C.2     1  UNL1        0.2278
     26 O           0.0046   -0.3784   20.8651 O.2     1  UNL1       -0.2747
     27 N           2.3426    0.7026   21.2048 N.am    1  UNL1       -0.2841
     28 H           2.8984    1.4479   21.5284 H       1  UNL1        0.1548
     29 C           2.9868   -0.4877   20.5580 C.ar    1  UNL1        0.0462
     30 C           3.4438   -1.6426   21.3992 C.ar    1  UNL1        0.0140
     31 C           4.0880   -2.8328   20.7524 C.ar    1  UNL1       -0.0030
     32 C           4.2752   -2.8682   19.2646 C.ar    1  UNL1       -0.0221
     33 C           4.9194   -4.0585   18.6179 C.3     1  UNL1        0.0310
     34 C           3.8183   -1.7134   18.4235 C.ar    1  UNL1       -0.0073
     35 C           3.1741   -0.5231   19.0702 C.ar    1  UNL1       -0.0087
     36 C           2.7171    0.6318   18.2291 C.3     1  UNL1        0.0323
@<TRIPOS>BOND
     1     1     2    1
     2     2     3    2
     3     2     4   am
     4     4     5    1
     5     5     6    1
     6     6    25    1
     7    25    26    2
     8    25    27   am
     9    27    29    1
    10    29    30   ar
    11    30    31   ar
    12    31    32   ar
    13    32    33    1
    14    32    34   ar
    15    34    35   ar
    16    35    36    1
    17     6     7    1
    18     7     9    1
    19     9    10   ar
    20    10    11   ar
    21    11    12   ar
    22    14    12    1
    23    14    15    1
    24    15    16    1
    25    16    18    1
    26    18    19    1
    27    19    20    1
    28    19    21    1
    29    16    17    1
    30    12    13   ar
    31    13    22    1
    32    22    23    1
    33    23    24    1
    34     7     8    1
    35     8     4    1
    36    35    29   ar
    37    13     9   ar
    38    24    22    1
    39    17    14    1
    40    27    28    1
@<TRIPOS>MOLECULE
*****
 36 40 0 0 0
SMALL
GASTEIGER

@<TRIPOS>ATOM
      1 C           7.0740   -1.1424   32.7713 C.3     1  UNL1        0.0948
      2 C           7.4644   -1.2934   31.3309 C.2     1  UNL1        0.2262
      3 O           8.8634   -1.6974   30.9714 O.2     1  UNL1       -0.2749
      4 N           6.4557   -1.0402   30.2500 N.am    1  UNL1       -0.2786
      5 C           6.6986   -1.1506   28.7739 C.3     1  UNL1        0.1029
      6 C           5.4200   -0.8108   28.0670 C.3     1  UNL1        0.1053
      7 C           4.3868   -0.4904   29.1061 C.3     1  UNL1        0.0888
      8 C           5.0269   -0.6322   30.4553 C.3     1  UNL1        0.1014
      9 C           2.9635   -0.0973   28.8425 C.ar    1  UNL1        0.1447
     10 N           1.7483   -0.9138   29.1690 N.ar    1  UNL1       -0.1336
     11 N           0.5392   -0.1398   28.7344 N.ar    1  UNL1       -0.1337
     12 C           1.0071    1.1552   28.1393 C.ar    1  UNL1        0.1425
     13 N           2.5054    1.1814   28.2061 N.ar    1  UNL1       -0.3040
     14 C           0.1306    2.2343   27.5762 C.3     1  UNL1        0.0588
     15 C          -0.0158    3.7095   27.8057 C.3     1  UNL1        0.0075
     16 C          -1.1091    3.7606   26.7799 C.3     1  UNL1        0.0009
     17 C          -0.9627    2.2855   26.5503 C.3     1  UNL1        0.0075
     18 C          -1.9855    4.8398   26.2168 C.3     1  UNL1        0.0000
     19 C          -3.2478    5.2282   26.9281 C.3     1  UNL1        0.0000
     20 C          -4.4536    4.3391   26.8554 C.3     1  UNL1        0.0000
     21 C          -3.3042    6.5058   27.7120 C.3     1  UNL1        0.0000
     22 C           3.3902    2.2916   27.7215 C.3     1  UNL1        0.0878
     23 C           3.8696    3.1808   26.6127 C.3     1  UNL1        0.0246
     24 C           4.4433    3.3252   27.9911 C.3     1  UNL1        0.0246
     25 C           5.2112   -0.7944   26.5817 C.2     1  UNL1        0.2278
     26 O           6.0471    0.1017   25.7167 O.2     1  UNL1       -0.2747
     27 N           4.1664   -1.6740   25.9614 N.am    1  UNL1       -0.2841
     28 H           3.6178   -2.2621   26.5291 H       1  UNL1        0.1548
     29 C           3.9577   -1.6575   24.4760 C.ar    1  UNL1        0.0462
     30 C           4.6610   -2.6589   23.6086 C.ar    1  UNL1        0.0140
     31 C           4.4522   -2.6424   22.1233 C.ar    1  UNL1       -0.0030
     32 C           3.5401   -1.6244   21.5055 C.ar    1  UNL1       -0.0221
     33 C           3.3313   -1.6079   20.0201 C.3     1  UNL1        0.0310
     34 C           2.8367   -0.6230   22.3729 C.ar    1  UNL1       -0.0073
     35 C           3.0455   -0.6395   23.8581 C.ar    1  UNL1       -0.0087
     36 C           2.3422    0.3620   24.7256 C.3     1  UNL1        0.0323
@<TRIPOS>BOND
     1     1     2    1
     2     2     3    2
     3     2     4   am
     4     4     5    1
     5     5     6    1
     6     6    25    1
     7    25    26    2
     8    25    27   am
     9    27    29    1
    10    29    30   ar
    11    30    31   ar
    12    31    32   ar
    13    32    33    1
    14    32    34   ar
    15    34    35   ar
    16    35    36    1
    17     6     7    1
    18     7     9    1
    19     9    10   ar
    20    10    11   ar
    21    11    12   ar
    22    14    12    1
    23    14    15    1
    24    15    16    1
    25    16    18    1
    26    18    19    1
    27    19    20    1
    28    19    21    1
    29    16    17    1
    30    12    13   ar
    31    13    22    1
    32    22    23    1
    33    23    24    1
    34     7     8    1
    35     8     4    1
    36    35    29   ar
    37    13     9   ar
    38    24    22    1
    39    17    14    1
    40    27    28    1
@<TRIPOS>MOLECULE
*****
 36 40 0 0 0
SMALL
GASTEIGER

@<TRIPOS>ATOM
      1 C           6.8180   -3.7337   25.1937 C.3     1  UNL1        0.0948
      2 C           5.9496   -2.6792   24.5742 C.2     1  UNL1        0.2262
      3 O           6.0065   -2.4342   23.0956 O.2     1  UNL1       -0.2749
      4 N           5.0242   -1.8697   25.4335 N.am    1  UNL1       -0.2786
      5 C           4.1012   -0.7869   24.9586 C.3     1  UNL1        0.1029
      6 C           3.3659   -0.2488   26.1502 C.3     1  UNL1        0.1053
      7 C           3.8344   -0.9991   27.3616 C.3     1  UNL1        0.0888
      8 C           4.8593   -2.0009   26.9187 C.3     1  UNL1        0.1014
      9 C           3.3612   -0.7853   28.7688 C.ar    1  UNL1        0.1447
     10 N           1.9511   -0.4954   29.1903 N.ar    1  UNL1       -0.1336
     11 N           1.9334   -0.3548   30.6837 N.ar    1  UNL1       -0.1337
     12 C           3.3324   -0.5577   31.1850 C.ar    1  UNL1        0.1425
     13 N           4.2149   -0.8238   30.0016 N.ar    1  UNL1       -0.3040
     14 C           3.7719   -0.5040   32.6182 C.3     1  UNL1        0.0588
     15 C           3.8112    0.5584   33.6765 C.3     1  UNL1        0.0075
     16 C           4.3934   -0.4280   34.6450 C.3     1  UNL1        0.0009
     17 C           4.3542   -1.4904   33.5867 C.3     1  UNL1        0.0075
     18 C           4.8328   -0.3742   36.0781 C.3     1  UNL1        0.0000
     19 C           6.0025    0.4781   36.4726 C.3     1  UNL1        0.0000
     20 C           5.8261    1.9567   36.6527 C.3     1  UNL1        0.0000
     21 C           7.3485   -0.1483   36.6869 C.3     1  UNL1        0.0000
     22 C           5.6918   -1.0829   30.0436 C.3     1  UNL1        0.0878
     23 C           6.8508   -1.9245   30.4888 C.3     1  UNL1        0.0246
     24 C           7.0907   -0.6901   29.6711 C.3     1  UNL1        0.0246
     25 C           2.3419    0.8471   26.1334 C.2     1  UNL1        0.2278
     26 O           2.6681    2.1875   26.7225 O.2     1  UNL1       -0.2747
     27 N           0.9917    0.6027   25.5274 N.am    1  UNL1       -0.2841
     28 H           0.7776   -0.2771   25.1407 H       1  UNL1        0.1548
     29 C          -0.0324    1.6986   25.5106 C.ar    1  UNL1        0.0462
     30 C          -0.1833    2.5655   24.2958 C.ar    1  UNL1        0.0140
     31 C          -1.2073    3.6614   24.2790 C.ar    1  UNL1       -0.0030
     32 C          -2.0804    3.8905   25.4770 C.ar    1  UNL1       -0.0221
     33 C          -3.1044    4.9865   25.4602 C.3     1  UNL1        0.0310
     34 C          -1.9295    3.0236   26.6918 C.ar    1  UNL1       -0.0073
     35 C          -0.9055    1.9277   26.7086 C.ar    1  UNL1       -0.0087
     36 C          -0.7545    1.0608   27.9234 C.3     1  UNL1        0.0323
@<TRIPOS>BOND
     1     1     2    1
     2     2     3    2
     3     2     4   am
     4     4     5    1
     5     5     6    1
     6     6    25    1
     7    25    26    2
     8    25    27   am
     9    27    29    1
    10    29    30   ar
    11    30    31   ar
    12    31    32   ar
    13    32    33    1
    14    32    34   ar
    15    34    35   ar
    16    35    36    1
    17     6     7    1
    18     7     9    1
    19     9    10   ar
    20    10    11   ar
    21    11    12   ar
    22    14    12    1
    23    14    15    1
    24    15    16    1
    25    16    18    1
    26    18    19    1
    27    19    20    1
    28    19    21    1
    29    16    17    1
    30    12    13   ar
    31    13    22    1
    32    22    23    1
    33    23    24    1
    34     7     8    1
    35     8     4    1
    36    35    29   ar
    37    13     9   ar
    38    24    22    1
    39    17    14    1
    40    27    28    1
@<TRIPOS>MOLECULE
*****
 36 40 0 0 0
SMALL
GASTEIGER

@<TRIPOS>ATOM
      1 C          -4.4611    4.3658   26.8462 C.3     1  UNL1        0.0948
      2 C          -4.0970    4.1203   25.4119 C.2     1  UNL1        0.2262
      3 O          -5.1120    4.3472   24.3311 O.2     1  UNL1       -0.2749
      4 N          -2.7179    3.6479   25.0585 N.am    1  UNL1       -0.2786
      5 C          -2.2113    3.3615   23.6760 C.3     1  UNL1        0.1029
      6 C          -0.7835    2.9155   23.7886 C.3     1  UNL1        0.1053
      7 C          -0.4077    2.9263   25.2407 C.3     1  UNL1        0.0888
      8 C          -1.6032    3.3789   26.0255 C.3     1  UNL1        0.1014
      9 C           0.9289    2.5504   25.8083 C.ar    1  UNL1        0.1447
     10 N           2.2631    3.0132   25.3028 N.ar    1  UNL1       -0.1336
     11 N           3.3248    2.3946   26.1632 N.ar    1  UNL1       -0.1337
     12 C           2.6467    1.5495   27.2004 C.ar    1  UNL1        0.1425
     13 N           1.1659    1.6458   26.9811 N.ar    1  UNL1       -0.3040
     14 C           3.3294    0.7488   28.2693 C.3     1  UNL1        0.0588
     15 C           3.1977   -0.6505   28.7937 C.3     1  UNL1        0.0075
     16 C           4.2950   -0.3838   29.7811 C.3     1  UNL1        0.0009
     17 C           4.4267    1.0155   29.2568 C.3     1  UNL1        0.0075
     18 C           4.9777   -1.1846   30.8499 C.3     1  UNL1        0.0000
     19 C           4.3803   -1.2655   32.2234 C.3     1  UNL1        0.0000
     20 C           4.5674   -2.5025   33.0510 C.3     1  UNL1        0.0000
     21 C           3.5956   -0.1096   32.7694 C.3     1  UNL1        0.0000
     22 C           0.1079    0.9582   27.7923 C.3     1  UNL1        0.0878
     23 C          -0.3217   -0.1808   28.6686 C.3     1  UNL1        0.0246
     24 C          -1.2949    0.9064   28.3210 C.3     1  UNL1        0.0246
     25 C           0.1113    2.5270   22.6492 C.2     1  UNL1        0.2278
     26 O           1.0209    3.5458   22.0287 O.2     1  UNL1       -0.2747
     27 N           0.0966    1.1198   22.1301 N.am    1  UNL1       -0.2841
     28 H          -0.5003    0.4511   22.5373 H       1  UNL1        0.1548
     29 C           0.9915    0.7313   20.9906 C.ar    1  UNL1        0.0462
     30 C           0.5914    1.0498   19.5805 C.ar    1  UNL1        0.0140
     31 C           1.4863    0.6613   18.4411 C.ar    1  UNL1       -0.0030
     32 C           2.7812   -0.0457   18.7119 C.ar    1  UNL1       -0.0221
     33 C           3.6761   -0.4342   17.5724 C.3     1  UNL1        0.0310
     34 C           3.1813   -0.3642   20.1220 C.ar    1  UNL1       -0.0073
     35 C           2.2864    0.0243   21.2614 C.ar    1  UNL1       -0.0087
     36 C           2.6865   -0.2943   22.6716 C.3     1  UNL1        0.0323
@<TRIPOS>BOND
     1     1     2    1
     2     2     3    2
     3     2     4   am
     4     4     5    1
     5     5     6    1
     6     6    25    1
     7    25    26    2
     8    25    27   am
     9    27    29    1
    10    29    30   ar
    11    30    31   ar
    12    31    32   ar
    13    32    33    1
    14    32    34   ar
    15    34    35   ar
    16    35    36    1
    17     6     7    1
    18     7     9    1
    19     9    10   ar
    20    10    11   ar
    21    11    12   ar
    22    14    12    1
    23    14    15    1
    24    15    16    1
    25    16    18    1
    26    18    19    1
    27    19    20    1
    28    19    21    1
    29    16    17    1
    30    12    13   ar
    31    13    22    1
    32    22    23    1
    33    23    24    1
    34     7     8    1
    35     8     4    1
    36    35    29   ar
    37    13     9   ar
    38    24    22    1
    39    17    14    1
    40    27    28    1
