@<TRIPOS>MOLECULE
*****
 26 30 0 0 0
SMALL
GASTEIGER

@<TRIPOS>ATOM
      1 C         -11.2237  -18.3550   23.0240 C.3     1  UNL1        0.1420
      2 O         -11.0779  -17.3588   24.1357 O.3     1  UNL1       -0.3753
      3 C         -11.8447  -19.3062   22.0442 C.3     1  UNL1        0.0395
      4 C         -10.7475  -19.8834   21.1997 C.3     1  UNL1        0.0035
      5 C          -9.4486  -19.2891   21.6574 C.3     1  UNL1        0.0032
      6 C          -8.0359  -19.4859   21.1933 C.3     1  UNL1        0.0007
      7 C          -7.7417  -20.4305   20.0658 C.3     1  UNL1        0.0044
      8 C          -6.3290  -20.6274   19.6016 C.3     1  UNL1        0.0221
      9 C          -5.2105  -19.8796   20.2650 C.2     1  UNL1       -0.0414
     10 C          -3.7977  -20.0765   19.8007 C.2     1  UNL1        0.0314
     11 C          -2.6793  -19.3287   20.4640 C.ar    1  UNL1        0.1723
     12 O          -1.1985  -19.3182   20.2249 O.2     1  UNL1       -0.3537
     13 N          -0.5776  -18.3670   21.2047 N.ar    1  UNL1       -0.0757
     14 C          -1.6747  -17.7898   22.0492 C.ar    1  UNL1        0.1394
     15 C          -2.9736  -18.3841   21.5915 C.ar    1  UNL1        0.0376
     16 C          -4.3863  -18.1873   22.0556 C.3     1  UNL1        0.0349
     17 C          -5.5047  -18.9351   21.3923 C.3     1  UNL1        0.0195
     18 C          -5.7990  -17.9905   22.5198 C.3     1  UNL1        0.0044
     19 C          -6.9175  -18.7382   21.8566 C.3     1  UNL1        0.0038
     20 C          -7.2117  -17.7936   22.9839 C.3     1  UNL1        0.0004
     21 C          -8.6245  -17.5967   23.4482 C.3     1  UNL1        0.0032
     22 C          -9.7429  -18.3445   22.7849 C.3     1  UNL1        0.0333
     23 C         -10.0116  -17.3944   23.9142 C.3     1  UNL1        0.0033
     24 H         -11.9510  -17.1611   24.5093 H       1  UNL1        0.2114
     25 C         -14.0492  -17.9614   23.9523 C.1     1  UNL1       -0.0119
     26 C         -12.6364  -18.1582   23.4881 C.1     1  UNL1       -0.0526
@<TRIPOS>BOND
     1    25    26    3
     2    26     1    1
     3     1     2    1
     4     1     3    1
     5     3     4    1
     6     5     4    1
     7     5     6    1
     8     6     7    1
     9     7     8    1
    10     8     9    1
    11     9    10    2
    12    10    11    1
    13    11    12   ar
    14    12    13   ar
    15    13    14   ar
    16    14    15   ar
    17    15    16    1
    18    16    17    1
    19    17    18    1
    20    17    19    1
    21    19    20    1
    22    20    21    1
    23    21    22    1
    24    22    23    1
    25    22     1    1
    26    22     5    1
    27    19     6    1
    28    17     9    1
    29    15    11   ar
    30     2    24    1
@<TRIPOS>MOLECULE
*****
 26 30 0 0 0
SMALL
GASTEIGER

@<TRIPOS>ATOM
      1 C         -11.1924   -5.5340   18.8098 C.3     1  UNL1        0.1420
      2 O         -12.0670   -6.6087   19.3840 O.3     1  UNL1       -0.3753
      3 C         -10.0113   -4.8459   18.1919 C.3     1  UNL1        0.0395
      4 C         -10.3532   -3.3943   18.0298 C.3     1  UNL1        0.0035
      5 C         -11.7455   -3.1854   18.5474 C.3     1  UNL1        0.0032
      6 C         -12.6080   -1.9619   18.6421 C.3     1  UNL1        0.0007
      7 C         -12.0893   -0.6395   18.1600 C.3     1  UNL1        0.0044
      8 C         -12.9519    0.5840   18.2547 C.3     1  UNL1        0.0221
      9 C         -14.3331    0.4852   18.8315 C.2     1  UNL1       -0.0414
     10 C         -15.1957    1.7088   18.9261 C.2     1  UNL1        0.0314
     11 C         -16.5769    1.6099   19.5028 C.ar    1  UNL1        0.1723
     12 O         -17.6486    2.6361   19.7225 O.2     1  UNL1       -0.3537
     13 N         -18.8296    1.9480   20.3403 N.ar    1  UNL1       -0.0757
     14 C         -18.4877    0.4964   20.5024 C.ar    1  UNL1        0.1394
     15 C         -17.0955    0.2875   19.9848 C.ar    1  UNL1        0.0376
     16 C         -16.2329   -0.9360   19.8901 C.3     1  UNL1        0.0349
     17 C         -14.8517   -0.8371   19.3135 C.3     1  UNL1        0.0195
     18 C         -15.3704   -2.1595   19.7955 C.3     1  UNL1        0.0044
     19 C         -13.9892   -2.0608   19.2188 C.3     1  UNL1        0.0038
     20 C         -14.5078   -3.3831   19.7008 C.3     1  UNL1        0.0004
     21 C         -13.6453   -4.6067   19.6061 C.3     1  UNL1        0.0032
     22 C         -12.2641   -4.5078   19.0295 C.3     1  UNL1        0.0333
     23 C         -12.8053   -5.8187   19.5182 C.3     1  UNL1        0.0033
     24 H         -11.5927   -7.4547   19.3677 H       1  UNL1        0.2114
     25 C          -9.4673   -7.9811   18.6204 C.1     1  UNL1       -0.0119
     26 C         -10.3298   -6.7575   18.7151 C.1     1  UNL1       -0.0526
@<TRIPOS>BOND
     1    25    26    3
     2    26     1    1
     3     1     2    1
     4     1     3    1
     5     3     4    1
     6     5     4    1
     7     5     6    1
     8     6     7    1
     9     7     8    1
    10     8     9    1
    11     9    10    2
    12    10    11    1
    13    11    12   ar
    14    12    13   ar
    15    13    14   ar
    16    14    15   ar
    17    15    16    1
    18    16    17    1
    19    17    18    1
    20    17    19    1
    21    19    20    1
    22    20    21    1
    23    21    22    1
    24    22    23    1
    25    22     1    1
    26    22     5    1
    27    19     6    1
    28    17     9    1
    29    15    11   ar
    30     2    24    1
@<TRIPOS>MOLECULE
*****
 26 30 0 0 0
SMALL
GASTEIGER

@<TRIPOS>ATOM
      1 C          -1.3761    3.5848   21.7855 C.3     1  UNL1        0.1420
      2 O          -1.8792    3.6172   20.3728 O.3     1  UNL1       -0.3753
      3 C          -1.1952    3.9266   23.2348 C.3     1  UNL1        0.0395
      4 C          -0.1694    2.9934   23.8065 C.3     1  UNL1        0.0035
      5 C           0.2837    2.0749   22.7106 C.3     1  UNL1        0.0032
      6 C           1.2790    0.9529   22.6887 C.3     1  UNL1        0.0007
      7 C           2.0248    0.5875   23.9378 C.3     1  UNL1        0.0044
      8 C           3.0202   -0.5345   23.9159 C.3     1  UNL1        0.0221
      9 C           3.2697   -1.2910   22.6448 C.2     1  UNL1       -0.0414
     10 C           4.2651   -2.4130   22.6229 C.2     1  UNL1        0.0314
     11 C           4.5146   -3.1695   21.3519 C.ar    1  UNL1        0.1723
     12 O           5.4287   -4.3138   21.0280 O.2     1  UNL1       -0.3537
     13 N           5.2477   -4.6556   19.5787 N.ar    1  UNL1       -0.0757
     14 C           4.2219   -3.7225   19.0069 C.ar    1  UNL1        0.1394
     15 C           3.7688   -2.8039   20.1028 C.ar    1  UNL1        0.0376
     16 C           2.7735   -1.6820   20.1248 C.3     1  UNL1        0.0349
     17 C           2.5240   -0.9255   21.3958 C.3     1  UNL1        0.0195
     18 C           1.7781   -0.5600   20.1467 C.3     1  UNL1        0.0044
     19 C           1.5286    0.1965   21.4177 C.3     1  UNL1        0.0038
     20 C           0.7828    0.5619   20.1686 C.3     1  UNL1        0.0004
     21 C          -0.2126    1.6839   20.1905 C.3     1  UNL1        0.0032
     22 C          -0.4621    2.4404   21.4615 C.3     1  UNL1        0.0333
     23 C          -1.1952    2.7869   20.1996 C.3     1  UNL1        0.0033
     24 H          -2.5396    4.3217   20.2808 H       1  UNL1        0.2114
     25 C          -3.3668    5.8287   21.8293 C.1     1  UNL1       -0.0119
     26 C          -2.3715    4.7067   21.8074 C.1     1  UNL1       -0.0526
@<TRIPOS>BOND
     1    25    26    3
     2    26     1    1
     3     1     2    1
     4     1     3    1
     5     3     4    1
     6     5     4    1
     7     5     6    1
     8     6     7    1
     9     7     8    1
    10     8     9    1
    11     9    10    2
    12    10    11    1
    13    11    12   ar
    14    12    13   ar
    15    13    14   ar
    16    14    15   ar
    17    15    16    1
    18    16    17    1
    19    17    18    1
    20    17    19    1
    21    19    20    1
    22    20    21    1
    23    21    22    1
    24    22    23    1
    25    22     1    1
    26    22     5    1
    27    19     6    1
    28    17     9    1
    29    15    11   ar
    30     2    24    1
@<TRIPOS>MOLECULE
*****
 26 30 0 0 0
SMALL
GASTEIGER

@<TRIPOS>ATOM
      1 C           7.5159   -4.7685   23.2911 C.3     1  UNL1        0.1420
      2 O           6.9140   -4.7189   24.6641 O.3     1  UNL1       -0.3753
      3 C           8.4440   -5.1011   22.1605 C.3     1  UNL1        0.0395
      4 C           7.9258   -4.4302   20.9229 C.3     1  UNL1        0.0035
      5 C           6.6776   -3.6831   21.2886 C.3     1  UNL1        0.0032
      6 C           5.7390   -2.8394   20.4780 C.3     1  UNL1        0.0007
      7 C           5.9924   -2.6304   19.0143 C.3     1  UNL1        0.0044
      8 C           5.0537   -1.7867   18.2037 C.3     1  UNL1        0.0221
      9 C           3.8617   -1.1520   18.8567 C.2     1  UNL1       -0.0414
     10 C           2.9230   -0.3083   18.0460 C.2     1  UNL1        0.0314
     11 C           1.7310    0.3263   18.6990 C.ar    1  UNL1        0.1723
     12 O           0.6394    1.2026   18.1601 O.2     1  UNL1       -0.3537
     13 N          -0.2886    1.5352   19.2907 N.ar    1  UNL1       -0.0757
     14 C           0.2295    0.8644   20.5283 C.ar    1  UNL1        0.1394
     15 C           1.4777    0.1172   20.1626 C.ar    1  UNL1        0.0376
     16 C           2.4163   -0.7264   20.9732 C.3     1  UNL1        0.0349
     17 C           3.6083   -1.3611   20.3202 C.3     1  UNL1        0.0195
     18 C           3.3550   -1.5701   21.7838 C.3     1  UNL1        0.0044
     19 C           4.5470   -2.2048   21.1310 C.3     1  UNL1        0.0038
     20 C           4.2936   -2.4138   22.5945 C.3     1  UNL1        0.0004
     21 C           5.2323   -3.2575   23.4052 C.3     1  UNL1        0.0032
     22 C           6.4243   -3.8922   22.7522 C.3     1  UNL1        0.0333
     23 C           6.1495   -4.0863   24.2140 C.3     1  UNL1        0.0033
     24 H           7.4563   -5.2431   25.2740 H       1  UNL1        0.2114
     25 C           9.3932   -6.4559   24.9123 C.1     1  UNL1       -0.0119
     26 C           8.4545   -5.6122   24.1017 C.1     1  UNL1       -0.0526
@<TRIPOS>BOND
     1    25    26    3
     2    26     1    1
     3     1     2    1
     4     1     3    1
     5     3     4    1
     6     5     4    1
     7     5     6    1
     8     6     7    1
     9     7     8    1
    10     8     9    1
    11     9    10    2
    12    10    11    1
    13    11    12   ar
    14    12    13   ar
    15    13    14   ar
    16    14    15   ar
    17    15    16    1
    18    16    17    1
    19    17    18    1
    20    17    19    1
    21    19    20    1
    22    20    21    1
    23    21    22    1
    24    22    23    1
    25    22     1    1
    26    22     5    1
    27    19     6    1
    28    17     9    1
    29    15    11   ar
    30     2    24    1
@<TRIPOS>MOLECULE
*****
 26 30 0 0 0
SMALL
GASTEIGER

@<TRIPOS>ATOM
      1 C         -16.1128   -8.5117   18.8521 C.3     1  UNL1        0.1420
      2 O         -17.5362   -8.3758   19.3051 O.3     1  UNL1       -0.3753
      3 C         -14.8182   -9.1257   18.4080 C.3     1  UNL1        0.0395
      4 C         -13.8355   -8.0168   18.1742 C.3     1  UNL1        0.0035
      5 C         -14.5227   -6.7175   18.4738 C.3     1  UNL1        0.0032
      6 C         -14.0487   -5.2955   18.4193 C.3     1  UNL1        0.0007
      7 C         -12.6412   -4.9896   18.0003 C.3     1  UNL1        0.0044
      8 C         -12.1672   -3.5675   17.9458 C.3     1  UNL1        0.0221
      9 C         -13.1007   -2.4513   18.3102 C.2     1  UNL1       -0.0414
     10 C         -12.6266   -1.0291   18.2557 C.2     1  UNL1        0.0314
     11 C         -13.5601    0.0870   18.6201 C.ar    1  UNL1        0.1723
     12 O         -13.3774    1.5753   18.6608 O.2     1  UNL1       -0.3537
     13 N         -14.6720    2.1892   19.1049 N.ar    1  UNL1       -0.0757
     14 C         -15.6547    1.0803   19.3387 C.ar    1  UNL1        0.1394
     15 C         -14.9675   -0.2189   19.0391 C.ar    1  UNL1        0.0376
     16 C         -15.4415   -1.6410   19.0936 C.3     1  UNL1        0.0349
     17 C         -14.5081   -2.7572   18.7292 C.3     1  UNL1        0.0195
     18 C         -15.9155   -3.0631   19.1482 C.3     1  UNL1        0.0044
     19 C         -14.9821   -4.1793   18.7837 C.3     1  UNL1        0.0038
     20 C         -16.3895   -4.4852   19.2027 C.3     1  UNL1        0.0004
     21 C         -16.8636   -5.9073   19.2573 C.3     1  UNL1        0.0032
     22 C         -15.9301   -7.0235   18.8928 C.3     1  UNL1        0.0333
     23 C         -17.3420   -7.3037   19.3149 C.3     1  UNL1        0.0033
     24 H         -17.9393   -9.2555   19.3731 H       1  UNL1        0.2114
     25 C         -17.0608  -11.3559   18.9612 C.1     1  UNL1       -0.0119
     26 C         -16.5868   -9.9338   18.9067 C.1     1  UNL1       -0.0526
@<TRIPOS>BOND
     1    25    26    3
     2    26     1    1
     3     1     2    1
     4     1     3    1
     5     3     4    1
     6     5     4    1
     7     5     6    1
     8     6     7    1
     9     7     8    1
    10     8     9    1
    11     9    10    2
    12    10    11    1
    13    11    12   ar
    14    12    13   ar
    15    13    14   ar
    16    14    15   ar
    17    15    16    1
    18    16    17    1
    19    17    18    1
    20    17    19    1
    21    19    20    1
    22    20    21    1
    23    21    22    1
    24    22    23    1
    25    22     1    1
    26    22     5    1
    27    19     6    1
    28    17     9    1
    29    15    11   ar
    30     2    24    1
@<TRIPOS>MOLECULE
*****
 26 30 0 0 0
SMALL
GASTEIGER

@<TRIPOS>ATOM
      1 C         -18.1378   -7.4321   19.7906 C.3     1  UNL1        0.1420
      2 O         -19.3207   -6.5126   19.7176 O.3     1  UNL1       -0.3753
      3 C         -17.3153   -8.6733   19.9727 C.3     1  UNL1        0.0395
      4 C         -15.8775   -8.3148   19.7396 C.3     1  UNL1        0.0035
      5 C         -15.8114   -6.8521   19.4136 C.3     1  UNL1        0.0032
      6 C         -14.6597   -5.9465   19.0921 C.3     1  UNL1        0.0007
      7 C         -13.2627   -6.4922   19.0606 C.3     1  UNL1        0.0044
      8 C         -12.1110   -5.5866   18.7391 C.3     1  UNL1        0.0221
      9 C         -12.3562   -4.1353   18.4491 C.2     1  UNL1       -0.0414
     10 C         -11.2044   -3.2298   18.1276 C.2     1  UNL1        0.0314
     11 C         -11.4496   -1.7786   17.8376 C.ar    1  UNL1        0.1723
     12 O         -10.5201   -0.6532   17.4921 O.2     1  UNL1       -0.3537
     13 N         -11.3426    0.5879   17.3101 N.ar    1  UNL1       -0.0757
     14 C         -12.7804    0.2295   17.5431 C.ar    1  UNL1        0.1394
     15 C         -12.8465   -1.2331   17.8691 C.ar    1  UNL1        0.0376
     16 C         -13.9982   -2.1387   18.1906 C.3     1  UNL1        0.0349
     17 C         -13.7530   -3.5898   18.4806 C.3     1  UNL1        0.0195
     18 C         -15.1500   -3.0443   18.5121 C.3     1  UNL1        0.0044
     19 C         -14.9049   -4.4954   18.8021 C.3     1  UNL1        0.0038
     20 C         -16.3017   -3.9499   18.8336 C.3     1  UNL1        0.0004
     21 C         -17.4535   -4.8555   19.1551 C.3     1  UNL1        0.0032
     22 C         -17.2083   -6.3066   19.4451 C.3     1  UNL1        0.0333
     23 C         -18.5959   -5.7374   19.4705 C.3     1  UNL1        0.0033
     24 H         -20.1298   -7.0105   19.9133 H       1  UNL1        0.2114
     25 C         -20.4413   -9.2433   20.4336 C.1     1  UNL1       -0.0119
     26 C         -19.2896   -8.3377   20.1121 C.1     1  UNL1       -0.0526
@<TRIPOS>BOND
     1    25    26    3
     2    26     1    1
     3     1     2    1
     4     1     3    1
     5     3     4    1
     6     5     4    1
     7     5     6    1
     8     6     7    1
     9     7     8    1
    10     8     9    1
    11     9    10    2
    12    10    11    1
    13    11    12   ar
    14    12    13   ar
    15    13    14   ar
    16    14    15   ar
    17    15    16    1
    18    16    17    1
    19    17    18    1
    20    17    19    1
    21    19    20    1
    22    20    21    1
    23    21    22    1
    24    22    23    1
    25    22     1    1
    26    22     5    1
    27    19     6    1
    28    17     9    1
    29    15    11   ar
    30     2    24    1
@<TRIPOS>MOLECULE
*****
 26 30 0 0 0
SMALL
GASTEIGER

@<TRIPOS>ATOM
      1 C          -0.2358    2.4602   20.3214 C.3     1  UNL1        0.1420
      2 O          -0.6079    2.5452   21.7720 O.3     1  UNL1       -0.3753
      3 C          -0.2206    2.7174   18.8436 C.3     1  UNL1        0.0395
      4 C           0.8291    1.8383   18.2310 C.3     1  UNL1        0.0035
      5 C           1.4627    1.0379   19.3301 C.3     1  UNL1        0.0032
      6 C           2.5539    0.0087   19.3214 C.3     1  UNL1        0.0007
      7 C           3.2120   -0.3756   18.0293 C.3     1  UNL1        0.0044
      8 C           4.3032   -1.4048   18.0206 C.3     1  UNL1        0.0221
      9 C           4.7362   -2.0497   19.3039 C.2     1  UNL1       -0.0414
     10 C           5.8275   -3.0789   19.2952 C.2     1  UNL1        0.0314
     11 C           6.2605   -3.7237   20.5784 C.ar    1  UNL1        0.1723
     12 O           7.3008   -4.7617   20.8789 O.2     1  UNL1       -0.3537
     13 N           7.2855   -5.0188   22.3567 N.ar    1  UNL1       -0.0757
     14 C           6.2358   -4.1398   22.9694 C.ar    1  UNL1        0.1394
     15 C           5.6023   -3.3394   21.8703 C.ar    1  UNL1        0.0376
     16 C           4.5111   -2.3102   21.8790 C.3     1  UNL1        0.0349
     17 C           4.0781   -1.6654   20.5958 C.3     1  UNL1        0.0195
     18 C           3.4199   -1.2810   21.8877 C.3     1  UNL1        0.0044
     19 C           2.9869   -0.6361   20.6046 C.3     1  UNL1        0.0038
     20 C           2.3288   -0.2518   21.8964 C.3     1  UNL1        0.0004
     21 C           1.2375    0.7774   21.9052 C.3     1  UNL1        0.0032
     22 C           0.8045    1.4222   20.6220 C.3     1  UNL1        0.0333
     23 C           0.1618    1.7896   21.9266 C.3     1  UNL1        0.0033
     24 H          -1.3185    3.1956   21.8859 H       1  UNL1        0.2114
     25 C          -2.4182    4.5186   20.3388 C.1     1  UNL1       -0.0119
     26 C          -1.3270    3.4894   20.3301 C.1     1  UNL1       -0.0526
@<TRIPOS>BOND
     1    25    26    3
     2    26     1    1
     3     1     2    1
     4     1     3    1
     5     3     4    1
     6     5     4    1
     7     5     6    1
     8     6     7    1
     9     7     8    1
    10     8     9    1
    11     9    10    2
    12    10    11    1
    13    11    12   ar
    14    12    13   ar
    15    13    14   ar
    16    14    15   ar
    17    15    16    1
    18    16    17    1
    19    17    18    1
    20    17    19    1
    21    19    20    1
    22    20    21    1
    23    21    22    1
    24    22    23    1
    25    22     1    1
    26    22     5    1
    27    19     6    1
    28    17     9    1
    29    15    11   ar
    30     2    24    1
@<TRIPOS>MOLECULE
*****
 26 30 0 0 0
SMALL
GASTEIGER

@<TRIPOS>ATOM
      1 C          -2.6754  -18.4502   20.9256 C.3     1  UNL1        0.1420
      2 O          -2.8155  -19.3374   19.7243 O.3     1  UNL1       -0.3753
      3 C          -2.0575  -17.6166   22.0088 C.3     1  UNL1        0.0395
      4 C          -3.1641  -17.0697   22.8611 C.3     1  UNL1        0.0035
      5 C          -4.4659  -17.5653   22.3047 C.3     1  UNL1        0.0032
      6 C          -5.8873  -17.3499   22.7326 C.3     1  UNL1        0.0007
      7 C          -6.1893  -16.4967   23.9289 C.3     1  UNL1        0.0044
      8 C          -7.6107  -16.2813   24.3568 C.3     1  UNL1        0.0221
      9 C          -8.7302  -16.9191   23.5886 C.2     1  UNL1       -0.0414
     10 C         -10.1516  -16.7037   24.0166 C.2     1  UNL1        0.0314
     11 C         -11.2710  -17.3415   23.2484 C.ar    1  UNL1        0.1723
     12 O         -12.7595  -17.3097   23.4313 O.2     1  UNL1       -0.3537
     13 N         -13.3774  -18.1433   22.3481 N.ar    1  UNL1       -0.0757
     14 C         -12.2708  -18.6902   21.4958 C.ar    1  UNL1        0.1394
     15 C         -10.9690  -18.1947   22.0522 C.ar    1  UNL1        0.0376
     16 C          -9.5476  -18.4101   21.6243 C.3     1  UNL1        0.0349
     17 C          -8.4282  -17.7723   22.3925 C.3     1  UNL1        0.0195
     18 C          -8.1262  -18.6255   21.1963 C.3     1  UNL1        0.0044
     19 C          -7.0067  -17.9877   21.9644 C.3     1  UNL1        0.0038
     20 C          -6.7048  -18.8409   20.7683 C.3     1  UNL1        0.0004
     21 C          -5.2833  -19.0563   20.3403 C.3     1  UNL1        0.0032
     22 C          -4.1639  -18.4185   21.1085 C.3     1  UNL1        0.0333
     23 C          -3.8876  -19.2758   19.9090 C.3     1  UNL1        0.0033
     24 H          -1.9366  -19.5386   19.3667 H       1  UNL1        0.2114
     25 C           0.1674  -18.8810   20.0696 C.1     1  UNL1       -0.0119
     26 C          -1.2540  -18.6656   20.4976 C.1     1  UNL1       -0.0526
@<TRIPOS>BOND
     1    25    26    3
     2    26     1    1
     3     1     2    1
     4     1     3    1
     5     3     4    1
     6     5     4    1
     7     5     6    1
     8     6     7    1
     9     7     8    1
    10     8     9    1
    11     9    10    2
    12    10    11    1
    13    11    12   ar
    14    12    13   ar
    15    13    14   ar
    16    14    15   ar
    17    15    16    1
    18    16    17    1
    19    17    18    1
    20    17    19    1
    21    19    20    1
    22    20    21    1
    23    21    22    1
    24    22    23    1
    25    22     1    1
    26    22     5    1
    27    19     6    1
    28    17     9    1
    29    15    11   ar
    30     2    24    1
@<TRIPOS>MOLECULE
*****
 26 30 0 0 0
SMALL
GASTEIGER

@<TRIPOS>ATOM
      1 C           6.7759   -3.6702   24.6421 C.3     1  UNL1        0.1420
      2 O           6.7853   -3.0824   26.0220 O.3     1  UNL1       -0.3753
      3 C           7.1303   -4.5274   23.4631 C.3     1  UNL1        0.0395
      4 C           6.2337   -4.1422   22.3239 C.3     1  UNL1        0.0035
      5 C           5.3253   -3.0470   22.7987 C.3     1  UNL1        0.0032
      6 C           4.2362   -2.2777   22.1116 C.3     1  UNL1        0.0007
      7 C           3.9012   -2.5694   20.6789 C.3     1  UNL1        0.0044
      8 C           2.8122   -1.8001   19.9918 C.3     1  UNL1        0.0221
      9 C           2.0582   -0.7390   20.7374 C.2     1  UNL1       -0.0414
     10 C           0.9691    0.0303   20.0502 C.2     1  UNL1        0.0314
     11 C           0.2152    1.0913   20.7958 C.ar    1  UNL1        0.1723
     12 O          -0.9003    2.0061   20.3851 O.2     1  UNL1       -0.3537
     13 N          -1.2546    2.8632   21.5641 N.ar    1  UNL1       -0.0757
     14 C          -0.3581    2.4780   22.7033 C.ar    1  UNL1        0.1394
     15 C           0.5503    1.3829   22.2285 C.ar    1  UNL1        0.0376
     16 C           1.6394    0.6136   22.9156 C.3     1  UNL1        0.0349
     17 C           2.3933   -0.4474   22.1700 C.3     1  UNL1        0.0195
     18 C           2.7284   -0.1558   23.6027 C.3     1  UNL1        0.0044
     19 C           3.4823   -1.2167   22.8572 C.3     1  UNL1        0.0038
     20 C           3.8174   -0.9251   24.2898 C.3     1  UNL1        0.0004
     21 C           4.9065   -1.6944   24.9770 C.3     1  UNL1        0.0032
     22 C           5.6604   -2.7554   24.2314 C.3     1  UNL1        0.0333
     23 C           5.9769   -2.4453   25.6645 C.3     1  UNL1        0.0033
     24 H           7.4674   -3.5198   26.5552 H       1  UNL1        0.2114
     25 C           8.9540   -5.2089   26.0163 C.1     1  UNL1       -0.0119
     26 C           7.8649   -4.4396   25.3292 C.1     1  UNL1       -0.0526
@<TRIPOS>BOND
     1    25    26    3
     2    26     1    1
     3     1     2    1
     4     1     3    1
     5     3     4    1
     6     5     4    1
     7     5     6    1
     8     6     7    1
     9     7     8    1
    10     8     9    1
    11     9    10    2
    12    10    11    1
    13    11    12   ar
    14    12    13   ar
    15    13    14   ar
    16    14    15   ar
    17    15    16    1
    18    16    17    1
    19    17    18    1
    20    17    19    1
    21    19    20    1
    22    20    21    1
    23    21    22    1
    24    22    23    1
    25    22     1    1
    26    22     5    1
    27    19     6    1
    28    17     9    1
    29    15    11   ar
    30     2    24    1
