@<TRIPOS>MOLECULE
*****
 37 39 0 0 0
SMALL
GASTEIGER

@<TRIPOS>ATOM
      1 C           6.5580   -2.9059   25.8164 C.2     1  UNL1        0.2485
      2 O           7.0142   -1.5629   25.3286 O.2     1  UNL1       -0.2726
      3 N           5.7685   -3.8042   24.9108 N.am    1  UNL1       -0.2823
      4 H           5.4690   -4.6857   25.2310 H       1  UNL1        0.1549
      5 C           9.4985   -6.4032   27.1425 C.3     1  UNL1        0.0949
      6 C           8.5953   -5.3245   26.6223 C.2     1  UNL1        0.2269
      7 O           8.4598   -5.1079   25.1442 O.2     1  UNL1       -0.2748
      8 N           7.8275   -4.4625   27.5801 N.am    1  UNL1       -0.2655
      9 C           7.8613   -4.5607   29.0765 C.3     1  UNL1        0.1206
     10 C           6.9458   -3.5098   29.6309 C.ar    1  UNL1       -0.0030
     11 C           6.5808   -3.1372   31.0372 C.ar    1  UNL1        0.0155
     12 C           5.6160   -2.0167   31.2898 C.ar    1  UNL1        0.1054
     13 C           5.0164   -1.2689   30.1360 C.ar    1  UNL1        0.0181
     14 C           5.3814   -1.6415   28.7297 C.ar    1  UNL1       -0.0011
     15 C           6.3462   -2.7620   28.4771 C.ar    1  UNL1        0.0022
     16 C           6.8911   -3.3508   27.2097 C.3     1  UNL1        0.1750
     17 S           5.2509   -1.6440   32.6962 S.O2    1  UNL1        0.0104
     18 C           4.8858   -1.2714   34.1025 C.3     1  UNL1        0.1816
     19 O           6.6735   -1.2489   32.9609 O.2     1  UNL1       -0.1686
     20 O           3.8283   -2.0391   32.4315 O.2     1  UNL1       -0.1686
     21 C           5.4354   -3.3594   23.5176 C.ar    1  UNL1        0.0503
     22 C           4.3093   -2.3958   23.2870 C.ar    1  UNL1        0.0144
     23 C           3.9762   -1.9509   21.8937 C.ar    1  UNL1       -0.0002
     24 C           4.7693   -2.4697   20.7311 C.ar    1  UNL1        0.0182
     25 C           5.8955   -3.4334   20.9617 C.ar    1  UNL1       -0.0002
     26 C           6.2286   -3.8782   22.3550 C.ar    1  UNL1        0.0144
     27 C           4.4363   -2.0249   19.3378 C.3     1  UNL1        0.2827
     28 O           5.2198   -0.7640   19.5530 O.3     1  UNL1       -0.3692
     29 H           5.1856   -0.2211   18.7499 H       1  UNL1        0.2112
     30 C           4.1032   -1.5802   17.9445 C.3     1  UNL1        0.4311
     31 F           3.7702   -1.1355   16.5512 F       1  UNL1       -0.1669
     32 F           3.0525   -0.6589   18.4897 F       1  UNL1       -0.1669
     33 F           4.6950   -2.0881   17.5246 F       1  UNL1       -0.1669
     34 C           3.6528   -3.2858   19.1226 C.3     1  UNL1        0.4311
     35 F           2.8692   -4.5467   18.9075 F       1  UNL1       -0.1669
     36 F           2.8964   -3.0069   19.4896 F       1  UNL1       -0.1669
     37 F           4.6220   -4.2030   18.4375 F       1  UNL1       -0.1669
@<TRIPOS>BOND
     1     5     6    1
     2     6     7    2
     3     6     8   am
     4     8     9    1
     5     9    10    1
     6    10    11   ar
     7    11    12   ar
     8    12    17    1
     9    17    18    1
    10    17    19    2
    11    17    20    2
    12    12    13   ar
    13    13    14   ar
    14    14    15   ar
    15    15    16    1
    16    16     1    1
    17     1     2    2
    18     1     3   am
    19     3    21    1
    20    21    22   ar
    21    22    23   ar
    22    23    24   ar
    23    24    27    1
    24    27    28    1
    25    27    30    1
    26    30    31    1
    27    30    32    1
    28    30    33    1
    29    27    34    1
    30    34    35    1
    31    34    36    1
    32    34    37    1
    33    24    25   ar
    34    25    26   ar
    35    16     8    1
    36    26    21   ar
    37    15    10   ar
    38     3     4    1
    39    28    29    1
@<TRIPOS>MOLECULE
*****
 37 39 0 0 0
SMALL
GASTEIGER

@<TRIPOS>ATOM
      1 C          -0.5783    2.7994   20.7867 C.2     1  UNL1        0.2485
      2 O           0.7249    3.3716   21.2602 O.2     1  UNL1       -0.2726
      3 N          -0.6091    1.4569   20.1182 N.am    1  UNL1       -0.2823
      4 H          -1.4644    1.0812   19.8074 H       1  UNL1        0.1549
      5 C          -3.3164    4.8100   17.4557 C.3     1  UNL1        0.0949
      6 C          -2.3879    4.1432   18.4269 C.2     1  UNL1        0.2269
      7 O          -1.1650    3.4323   17.9279 O.2     1  UNL1       -0.2748
      8 N          -2.6824    4.1872   19.8970 N.am    1  UNL1       -0.2655
      9 C          -3.8604    4.8566   20.5406 C.3     1  UNL1        0.1206
     10 C          -3.7567    4.6526   22.0231 C.ar    1  UNL1       -0.0030
     11 C          -4.6328    5.0884   23.1599 C.ar    1  UNL1        0.0155
     12 C          -4.2667    4.7288   24.5694 C.ar    1  UNL1        0.1054
     13 C          -3.0246    3.9333   24.8420 C.ar    1  UNL1        0.0181
     14 C          -2.1485    3.4975   23.7052 C.ar    1  UNL1       -0.0011
     15 C          -2.5145    3.8571   22.2957 C.ar    1  UNL1        0.0022
     16 C          -1.8506    3.5695   20.9817 C.3     1  UNL1        0.1750
     17 S          -5.1428    5.1646   25.7063 S.O2    1  UNL1        0.0104
     18 C          -6.0189    5.6004   26.8432 C.3     1  UNL1        0.1816
     19 O          -5.5714    6.3653   24.9159 O.2     1  UNL1       -0.1686
     20 O          -4.7143    3.9640   26.4967 O.2     1  UNL1       -0.1686
     21 C           0.6633    0.6867   19.9232 C.ar    1  UNL1        0.0503
     22 C           1.3876    0.7547   18.6114 C.ar    1  UNL1        0.0144
     23 C           2.6599   -0.0154   18.4164 C.ar    1  UNL1       -0.0002
     24 C           3.2079   -0.8535   19.5332 C.ar    1  UNL1        0.0182
     25 C           2.4836   -0.9214   20.8450 C.ar    1  UNL1       -0.0002
     26 C           1.2113   -0.1513   21.0400 C.ar    1  UNL1        0.0144
     27 C           4.4803   -1.6236   19.3383 C.3     1  UNL1        0.2827
     28 O           5.2561   -0.3399   19.3292 O.3     1  UNL1       -0.3692
     29 H           6.1990   -0.5328   19.2085 H       1  UNL1        0.2112
     30 C           5.7526   -2.3939   19.1434 C.3     1  UNL1        0.4311
     31 F           7.0249   -3.1641   18.9485 F       1  UNL1       -0.1669
     32 F           6.2298   -1.9473   20.4936 F       1  UNL1       -0.1669
     33 F           5.5646   -2.7111   18.3381 F       1  UNL1       -0.1669
     34 C           3.7045   -2.9074   19.3474 C.3     1  UNL1        0.4311
     35 F           2.9287   -4.1912   19.3564 F       1  UNL1       -0.1669
     36 F           3.3104   -2.8010   18.5613 F       1  UNL1       -0.1669
     37 F           4.0767   -3.5473   20.6520 F       1  UNL1       -0.1669
@<TRIPOS>BOND
     1     5     6    1
     2     6     7    2
     3     6     8   am
     4     8     9    1
     5     9    10    1
     6    10    11   ar
     7    11    12   ar
     8    12    17    1
     9    17    18    1
    10    17    19    2
    11    17    20    2
    12    12    13   ar
    13    13    14   ar
    14    14    15   ar
    15    15    16    1
    16    16     1    1
    17     1     2    2
    18     1     3   am
    19     3    21    1
    20    21    22   ar
    21    22    23   ar
    22    23    24   ar
    23    24    27    1
    24    27    28    1
    25    27    30    1
    26    30    31    1
    27    30    32    1
    28    30    33    1
    29    27    34    1
    30    34    35    1
    31    34    36    1
    32    34    37    1
    33    24    25   ar
    34    25    26   ar
    35    16     8    1
    36    26    21   ar
    37    15    10   ar
    38     3     4    1
    39    28    29    1
@<TRIPOS>MOLECULE
*****
 37 39 0 0 0
SMALL
GASTEIGER

@<TRIPOS>ATOM
      1 C         -15.9878   -1.0844   19.5161 C.2     1  UNL1        0.2485
      2 O         -15.7179   -1.3492   18.0647 O.2     1  UNL1       -0.2726
      3 N         -15.2053   -1.8115   20.5694 N.am    1  UNL1       -0.2823
      4 H         -15.3825   -1.6378   21.5221 H       1  UNL1        0.1549
      5 C         -20.4409   -1.9635   20.9421 C.3     1  UNL1        0.0949
      6 C         -19.0233   -1.7926   20.4826 C.2     1  UNL1        0.2269
      7 O         -18.1935   -2.9962   20.1469 O.2     1  UNL1       -0.2748
      8 N         -18.4355   -0.4181   20.3588 N.am    1  UNL1       -0.2655
      9 C         -19.1397    0.8722   20.6575 C.3     1  UNL1        0.1206
     10 C         -18.1797    1.9951   20.3979 C.ar    1  UNL1       -0.0030
     11 C         -18.3194    3.4835   20.5202 C.ar    1  UNL1        0.0155
     12 C         -17.1616    4.3757   20.1834 C.ar    1  UNL1        0.1054
     13 C         -15.8641    3.7794   19.7243 C.ar    1  UNL1        0.0181
     14 C         -15.7243    2.2910   19.6019 C.ar    1  UNL1       -0.0011
     15 C         -16.8822    1.3988   19.9387 C.ar    1  UNL1        0.0022
     16 C         -17.0403   -0.0926   19.9146 C.3     1  UNL1        0.1750
     17 S         -17.3013    5.8642   20.3058 S.O2    1  UNL1        0.0104
     18 C         -17.4410    7.3526   20.4282 C.3     1  UNL1        0.1816
     19 O         -16.1921    6.0499   19.3133 O.2     1  UNL1       -0.1686
     20 O         -18.4105    5.6785   21.2983 O.2     1  UNL1       -0.1686
     21 C         -14.1529   -2.8033   20.1709 C.ar    1  UNL1        0.0503
     22 C         -14.3219   -4.2541   20.5124 C.ar    1  UNL1        0.0144
     23 C         -13.2694   -5.2459   20.1140 C.ar    1  UNL1       -0.0002
     24 C         -12.0481   -4.7869   19.3741 C.ar    1  UNL1        0.0182
     25 C         -11.8791   -3.3361   19.0326 C.ar    1  UNL1       -0.0002
     26 C         -12.9316   -2.3443   19.4310 C.ar    1  UNL1        0.0144
     27 C         -10.9956   -5.7786   18.9756 C.3     1  UNL1        0.2827
     28 O          -9.9297   -4.8462   19.4700 O.3     1  UNL1       -0.3692
     29 H          -9.0583   -5.2499   19.3336 H       1  UNL1        0.2112
     30 C          -9.9432   -6.7704   18.5771 C.3     1  UNL1        0.4311
     31 F          -8.8908   -7.7622   18.1786 F       1  UNL1       -0.1669
     32 F         -10.1069   -6.3673   17.1416 F       1  UNL1       -0.1669
     33 F          -9.7714   -7.0781   19.3897 F       1  UNL1       -0.1669
     34 C         -12.0615   -6.7110   18.4812 C.3     1  UNL1        0.4311
     35 F         -13.1274   -7.6435   17.9869 F       1  UNL1       -0.1669
     36 F         -11.9437   -7.3427   19.0909 F       1  UNL1       -0.1669
     37 F         -12.6416   -6.0021   17.2934 F       1  UNL1       -0.1669
@<TRIPOS>BOND
     1     5     6    1
     2     6     7    2
     3     6     8   am
     4     8     9    1
     5     9    10    1
     6    10    11   ar
     7    11    12   ar
     8    12    17    1
     9    17    18    1
    10    17    19    2
    11    17    20    2
    12    12    13   ar
    13    13    14   ar
    14    14    15   ar
    15    15    16    1
    16    16     1    1
    17     1     2    2
    18     1     3   am
    19     3    21    1
    20    21    22   ar
    21    22    23   ar
    22    23    24   ar
    23    24    27    1
    24    27    28    1
    25    27    30    1
    26    30    31    1
    27    30    32    1
    28    30    33    1
    29    27    34    1
    30    34    35    1
    31    34    36    1
    32    34    37    1
    33    24    25   ar
    34    25    26   ar
    35    16     8    1
    36    26    21   ar
    37    15    10   ar
    38     3     4    1
    39    28    29    1
@<TRIPOS>MOLECULE
*****
 37 39 0 0 0
SMALL
GASTEIGER

@<TRIPOS>ATOM
      1 C           5.6772   -1.6832   26.0555 C.2     1  UNL1        0.2485
      2 O           6.6428   -0.7685   25.3622 O.2     1  UNL1       -0.2726
      3 N           4.6051   -2.3774   25.2688 N.am    1  UNL1       -0.2823
      4 H           3.9712   -2.9778   25.7237 H       1  UNL1        0.1549
      5 C           3.9754    1.0625   29.5484 C.3     1  UNL1        0.0949
      6 C           4.4709    0.2674   28.3770 C.2     1  UNL1        0.2269
      7 O           4.2084    0.7469   26.9802 O.2     1  UNL1       -0.2748
      8 N           5.2290   -1.0071   28.6024 N.am    1  UNL1       -0.2655
      9 C           5.5657   -1.6089   29.9345 C.3     1  UNL1        0.1206
     10 C           6.3283   -2.8774   29.6907 C.ar    1  UNL1       -0.0030
     11 C           6.9175   -3.8901   30.6273 C.ar    1  UNL1        0.0155
     12 C           7.6413   -5.0850   30.0811 C.ar    1  UNL1        0.1054
     13 C           7.7758   -5.2672   28.5983 C.ar    1  UNL1        0.0181
     14 C           7.1866   -4.2545   27.6617 C.ar    1  UNL1       -0.0011
     15 C           6.4628   -3.0596   28.2079 C.ar    1  UNL1        0.0022
     16 C           5.7834   -1.9037   27.5353 C.3     1  UNL1        0.1750
     17 S           8.2305   -6.0977   31.0177 S.O2    1  UNL1        0.0104
     18 C           8.8197   -7.1104   31.9543 C.3     1  UNL1        0.1816
     19 O           9.5356   -6.0183   30.2827 O.2     1  UNL1       -0.1686
     20 O           6.9254   -6.1772   31.7528 O.2     1  UNL1       -0.1686
     21 C           4.4988   -2.1569   23.7889 C.ar    1  UNL1        0.0503
     22 C           3.5960   -1.0854   23.2532 C.ar    1  UNL1        0.0144
     23 C           3.4898   -0.8649   21.7733 C.ar    1  UNL1       -0.0002
     24 C           4.2863   -1.7158   20.8292 C.ar    1  UNL1        0.0182
     25 C           5.1891   -2.7873   21.3649 C.ar    1  UNL1       -0.0002
     26 C           5.2953   -3.0078   22.8448 C.ar    1  UNL1        0.0144
     27 C           4.1801   -1.4954   19.3492 C.3     1  UNL1        0.2827
     28 O           4.8106   -0.1433   19.5053 O.3     1  UNL1       -0.3692
     29 H           4.8818    0.2825   18.6367 H       1  UNL1        0.2112
     30 C           4.0738   -1.2750   17.8693 C.3     1  UNL1        0.4311
     31 F           3.9676   -1.0546   16.3894 F       1  UNL1       -0.1669
     32 F           5.5680   -1.3368   17.7528 F       1  UNL1       -0.1669
     33 F           3.1905   -1.2229   17.8310 F       1  UNL1       -0.1669
     34 C           3.5495   -2.8474   19.1932 C.3     1  UNL1        0.4311
     35 F           2.9189   -4.1995   19.0371 F       1  UNL1       -0.1669
     36 F           2.7907   -2.6614   19.6105 F       1  UNL1       -0.1669
     37 F           4.5780   -3.6436   18.4459 F       1  UNL1       -0.1669
@<TRIPOS>BOND
     1     5     6    1
     2     6     7    2
     3     6     8   am
     4     8     9    1
     5     9    10    1
     6    10    11   ar
     7    11    12   ar
     8    12    17    1
     9    17    18    1
    10    17    19    2
    11    17    20    2
    12    12    13   ar
    13    13    14   ar
    14    14    15   ar
    15    15    16    1
    16    16     1    1
    17     1     2    2
    18     1     3   am
    19     3    21    1
    20    21    22   ar
    21    22    23   ar
    22    23    24   ar
    23    24    27    1
    24    27    28    1
    25    27    30    1
    26    30    31    1
    27    30    32    1
    28    30    33    1
    29    27    34    1
    30    34    35    1
    31    34    36    1
    32    34    37    1
    33    24    25   ar
    34    25    26   ar
    35    16     8    1
    36    26    21   ar
    37    15    10   ar
    38     3     4    1
    39    28    29    1
@<TRIPOS>MOLECULE
*****
 37 39 0 0 0
SMALL
GASTEIGER

@<TRIPOS>ATOM
      1 C          -0.7514    2.7504   20.9522 C.2     1  UNL1        0.2485
      2 O           0.3589    3.6384   20.4742 O.2     1  UNL1       -0.2726
      3 N          -0.6022    1.2594   20.8822 N.am    1  UNL1       -0.2823
      4 H          -1.3309    0.6765   21.1959 H       1  UNL1        0.1549
      5 C          -1.7512    3.8162   25.4799 C.3     1  UNL1        0.0949
      6 C          -1.3400    3.4451   24.0860 C.2     1  UNL1        0.2269
      7 O           0.0127    2.8464   23.8374 O.2     1  UNL1       -0.2748
      8 N          -2.2814    3.6725   22.9406 N.am    1  UNL1       -0.2655
      9 C          -3.6587    4.2592   23.0345 C.3     1  UNL1        0.1206
     10 C          -4.2394    4.3025   21.6521 C.ar    1  UNL1       -0.0030
     11 C          -5.5639    4.7795   21.1343 C.ar    1  UNL1        0.0155
     12 C          -5.8700    4.6965   19.6683 C.ar    1  UNL1        0.1054
     13 C          -4.8516    4.1366   18.7200 C.ar    1  UNL1        0.0181
     14 C          -3.5271    3.6596   19.2378 C.ar    1  UNL1       -0.0011
     15 C          -3.2210    3.7426   20.7038 C.ar    1  UNL1        0.0022
     16 C          -2.0109    3.3532   21.5001 C.3     1  UNL1        0.1750
     17 S          -7.1946    5.1735   19.1505 S.O2    1  UNL1        0.0104
     18 C          -8.5191    5.6505   18.6327 C.3     1  UNL1        0.1816
     19 O          -6.7869    4.7939   17.7578 O.2     1  UNL1       -0.1686
     20 O          -7.6023    5.5531   20.5431 O.2     1  UNL1       -0.1686
     21 C           0.6573    0.6566   20.3342 C.ar    1  UNL1        0.0503
     22 C           0.9477    0.7331   18.8646 C.ar    1  UNL1        0.0144
     23 C           2.2073    0.1302   18.3167 C.ar    1  UNL1       -0.0002
     24 C           3.1762   -0.5491   19.2384 C.ar    1  UNL1        0.0182
     25 C           2.8858   -0.6255   20.7080 C.ar    1  UNL1       -0.0002
     26 C           1.6263   -0.0227   21.2559 C.ar    1  UNL1        0.0144
     27 C           4.4358   -1.1519   18.6905 C.3     1  UNL1        0.2827
     28 O           4.8491    0.1903   18.1635 O.3     1  UNL1       -0.3692
     29 H           5.7061    0.1120   17.7159 H       1  UNL1        0.2112
     30 C           5.6953   -1.7549   18.1426 C.3     1  UNL1        0.4311
     31 F           6.9548   -2.3578   17.5948 F       1  UNL1       -0.1669
     32 F           6.5093   -0.8622   19.0317 F       1  UNL1       -0.1669
     33 F           5.3089   -2.3215   17.5821 F       1  UNL1       -0.1669
     34 C           4.0225   -2.4941   19.2174 C.3     1  UNL1        0.4311
     35 F           3.6091   -3.8364   19.7444 F       1  UNL1       -0.1669
     36 F           3.3414   -2.6217   18.6656 F       1  UNL1       -0.1669
     37 F           5.0006   -2.7677   20.3212 F       1  UNL1       -0.1669
@<TRIPOS>BOND
     1     5     6    1
     2     6     7    2
     3     6     8   am
     4     8     9    1
     5     9    10    1
     6    10    11   ar
     7    11    12   ar
     8    12    17    1
     9    17    18    1
    10    17    19    2
    11    17    20    2
    12    12    13   ar
    13    13    14   ar
    14    14    15   ar
    15    15    16    1
    16    16     1    1
    17     1     2    2
    18     1     3   am
    19     3    21    1
    20    21    22   ar
    21    22    23   ar
    22    23    24   ar
    23    24    27    1
    24    27    28    1
    25    27    30    1
    26    30    31    1
    27    30    32    1
    28    30    33    1
    29    27    34    1
    30    34    35    1
    31    34    36    1
    32    34    37    1
    33    24    25   ar
    34    25    26   ar
    35    16     8    1
    36    26    21   ar
    37    15    10   ar
    38     3     4    1
    39    28    29    1
@<TRIPOS>MOLECULE
*****
 37 39 0 0 0
SMALL
GASTEIGER

@<TRIPOS>ATOM
      1 C           4.8959   -0.7086   32.7182 C.2     1  UNL1        0.2485
      2 O           3.5673   -1.3618   32.9588 O.2     1  UNL1       -0.2726
      3 N           5.4017    0.3351   33.6695 N.am    1  UNL1       -0.2823
      4 H           6.2738    0.7639   33.5116 H       1  UNL1        0.1549
      5 C           6.0366    1.9660   28.9524 C.3     1  UNL1        0.0949
      6 C           5.6232    1.2074   30.1786 C.2     1  UNL1        0.2269
      7 O           4.7800    1.8746   31.2244 O.2     1  UNL1       -0.2748
      8 N           6.0531   -0.2183   30.3590 N.am    1  UNL1       -0.2655
      9 C           6.8927   -1.0137   29.4039 C.3     1  UNL1        0.1206
     10 C           7.0773   -2.3859   29.9808 C.ar    1  UNL1       -0.0030
     11 C           7.8124   -3.5942   29.4812 C.ar    1  UNL1        0.0155
     12 C           7.8218   -4.8552   30.2934 C.ar    1  UNL1        0.1054
     13 C           7.0963   -4.9080   31.6051 C.ar    1  UNL1        0.0181
     14 C           6.3613   -3.6997   32.1048 C.ar    1  UNL1       -0.0011
     15 C           6.3518   -2.4386   31.2926 C.ar    1  UNL1        0.0022
     16 C           5.7188   -1.0990   31.5263 C.3     1  UNL1        0.1750
     17 S           8.5569   -6.0636   29.7937 S.O2    1  UNL1        0.0104
     18 C           9.2919   -7.2720   29.2942 C.3     1  UNL1        0.1816
     19 O           8.3961   -5.5784   28.3835 O.2     1  UNL1       -0.1686
     20 O           8.7177   -6.5488   31.2039 O.2     1  UNL1       -0.1686
     21 C           4.5789    0.7255   34.8613 C.ar    1  UNL1        0.0503
     22 C           4.8708    0.1238   36.2040 C.ar    1  UNL1        0.0144
     23 C           4.0479    0.5142   37.3958 C.ar    1  UNL1       -0.0002
     24 C           2.9331    1.5063   37.2449 C.ar    1  UNL1        0.0182
     25 C           2.6412    2.1081   35.9023 C.ar    1  UNL1       -0.0002
     26 C           3.4641    1.7177   34.7105 C.ar    1  UNL1        0.0144
     27 C           2.1102    1.8968   38.4367 C.3     1  UNL1        0.2827
     28 O           1.9216    0.4490   38.7809 O.3     1  UNL1       -0.3692
     29 H           1.3792    0.3751   39.5817 H       1  UNL1        0.2112
     30 C           1.2873    2.2873   39.6285 C.3     1  UNL1        0.4311
     31 F           0.4644    2.6779   40.8203 F       1  UNL1       -0.1669
     32 F           0.1458    1.4638   39.1102 F       1  UNL1       -0.1669
     33 F           1.8970    2.7981   40.0181 F       1  UNL1       -0.1669
     34 C           2.2988    3.3445   38.0925 C.3     1  UNL1        0.4311
     35 F           2.4875    4.7923   37.7484 F       1  UNL1       -0.1669
     36 F           3.1663    3.3848   38.2670 F       1  UNL1       -0.1669
     37 F           0.9308    3.8007   37.6795 F       1  UNL1       -0.1669
@<TRIPOS>BOND
     1     5     6    1
     2     6     7    2
     3     6     8   am
     4     8     9    1
     5     9    10    1
     6    10    11   ar
     7    11    12   ar
     8    12    17    1
     9    17    18    1
    10    17    19    2
    11    17    20    2
    12    12    13   ar
    13    13    14   ar
    14    14    15   ar
    15    15    16    1
    16    16     1    1
    17     1     2    2
    18     1     3   am
    19     3    21    1
    20    21    22   ar
    21    22    23   ar
    22    23    24   ar
    23    24    27    1
    24    27    28    1
    25    27    30    1
    26    30    31    1
    27    30    32    1
    28    30    33    1
    29    27    34    1
    30    34    35    1
    31    34    36    1
    32    34    37    1
    33    24    25   ar
    34    25    26   ar
    35    16     8    1
    36    26    21   ar
    37    15    10   ar
    38     3     4    1
    39    28    29    1
@<TRIPOS>MOLECULE
*****
 37 39 0 0 0
SMALL
GASTEIGER

@<TRIPOS>ATOM
      1 C           5.1021   -1.0888   26.1739 C.2     1  UNL1        0.2485
      2 O           5.7885    0.0631   25.5016 O.2     1  UNL1       -0.2726
      3 N           4.3285   -2.0811   25.3571 N.am    1  UNL1       -0.2823
      4 H           3.8779   -2.8371   25.7983 H       1  UNL1        0.1549
      5 C           7.7271   -4.2058   28.6293 C.3     1  UNL1        0.0949
      6 C           6.9399   -3.2660   27.7651 C.2     1  UNL1        0.2269
      7 O           7.0586   -3.3428   26.2718 O.2     1  UNL1       -0.2748
      8 N           6.0341   -2.2493   28.3942 N.am    1  UNL1       -0.2655
      9 C           5.8139   -2.0547   29.8652 C.3     1  UNL1        0.1206
     10 C           4.8331   -0.9338   30.0429 C.ar    1  UNL1       -0.0030
     11 C           4.2416   -0.3025   31.2682 C.ar    1  UNL1        0.0155
     12 C           3.2642    0.8271   31.1324 C.ar    1  UNL1        0.1054
     13 C           2.8782    1.3254   29.7713 C.ar    1  UNL1        0.0181
     14 C           3.4696    0.6941   28.5459 C.ar    1  UNL1       -0.0011
     15 C           4.4471   -0.4355   28.6817 C.ar    1  UNL1        0.0022
     16 C           5.1893   -1.2485   27.6628 C.3     1  UNL1        0.1750
     17 S           2.6726    1.4585   32.3578 S.O2    1  UNL1        0.0104
     18 C           2.0811    2.0899   33.5831 C.3     1  UNL1        0.1816
     19 O           4.0378    1.5423   32.9737 O.2     1  UNL1       -0.1686
     20 O           1.3075    1.3747   31.7419 O.2     1  UNL1       -0.1686
     21 C           4.2412   -1.9213   23.8682 C.ar    1  UNL1        0.0503
     22 C           3.2413   -0.9750   23.2727 C.ar    1  UNL1        0.0144
     23 C           3.1541   -0.8153   21.7838 C.ar    1  UNL1       -0.0002
     24 C           4.0669   -1.6019   20.8905 C.ar    1  UNL1        0.0182
     25 C           5.0668   -2.5481   21.4860 C.ar    1  UNL1       -0.0002
     26 C           5.1540   -2.7079   22.9749 C.ar    1  UNL1        0.0144
     27 C           3.9797   -1.4422   19.4015 C.3     1  UNL1        0.2827
     28 O           4.5339   -0.0532   19.5179 O.3     1  UNL1       -0.3692
     29 H           4.6001    0.3435   18.6352 H       1  UNL1        0.2112
     30 C           3.8926   -1.2826   17.9125 C.3     1  UNL1        0.4311
     31 F           3.8054   -1.1230   16.4236 F       1  UNL1       -0.1669
     32 F           2.6998   -0.3883   18.0782 F       1  UNL1       -0.1669
     33 F           4.5853   -1.7953   17.7082 F       1  UNL1       -0.1669
     34 C           3.4256   -2.8312   19.2851 C.3     1  UNL1        0.4311
     35 F           2.8714   -4.2203   19.1686 F       1  UNL1       -0.1669
     36 F           2.5992   -2.6394   19.5396 F       1  UNL1       -0.1669
     37 F           4.5936   -3.6504   18.8216 F       1  UNL1       -0.1669
@<TRIPOS>BOND
     1     5     6    1
     2     6     7    2
     3     6     8   am
     4     8     9    1
     5     9    10    1
     6    10    11   ar
     7    11    12   ar
     8    12    17    1
     9    17    18    1
    10    17    19    2
    11    17    20    2
    12    12    13   ar
    13    13    14   ar
    14    14    15   ar
    15    15    16    1
    16    16     1    1
    17     1     2    2
    18     1     3   am
    19     3    21    1
    20    21    22   ar
    21    22    23   ar
    22    23    24   ar
    23    24    27    1
    24    27    28    1
    25    27    30    1
    26    30    31    1
    27    30    32    1
    28    30    33    1
    29    27    34    1
    30    34    35    1
    31    34    36    1
    32    34    37    1
    33    24    25   ar
    34    25    26   ar
    35    16     8    1
    36    26    21   ar
    37    15    10   ar
    38     3     4    1
    39    28    29    1
@<TRIPOS>MOLECULE
*****
 37 39 0 0 0
SMALL
GASTEIGER

@<TRIPOS>ATOM
      1 C           3.7617   -0.2237   26.1894 C.2     1  UNL1        0.2485
      2 O           5.0161    0.4980   26.5835 O.2     1  UNL1       -0.2726
      3 N           2.9397   -0.9227   27.2315 N.am    1  UNL1       -0.2823
      4 H           2.1163   -1.3964   26.9729 H       1  UNL1        0.1549
      5 C           0.8128    2.7843   23.9777 C.3     1  UNL1        0.0949
      6 C           1.7275    1.8934   24.7647 C.2     1  UNL1        0.2269
      7 O           1.9756    2.1693   26.2181 O.2     1  UNL1       -0.2748
      8 N           2.3942    0.7265   24.0985 N.am    1  UNL1       -0.2655
      9 C           2.2430    0.3278   22.6603 C.3     1  UNL1        0.1206
     10 C           3.0845   -0.8917   22.4264 C.ar    1  UNL1       -0.0030
     11 C           3.3261   -1.7247   21.2026 C.ar    1  UNL1        0.0155
     12 C           4.2391   -2.9127   21.2723 C.ar    1  UNL1        0.1054
     13 C           4.9105   -3.2677   22.5659 C.ar    1  UNL1        0.0181
     14 C           4.6688   -2.4347   23.7897 C.ar    1  UNL1       -0.0011
     15 C           3.7558   -1.2467   23.7199 C.ar    1  UNL1        0.0022
     16 C           3.3292   -0.2466   24.7533 C.3     1  UNL1        0.1750
     17 S           4.4808   -3.7458   20.0485 S.O2    1  UNL1        0.0104
     18 C           4.7226   -4.5788   18.8248 C.3     1  UNL1        0.1816
     19 O           3.2363   -3.1887   19.4235 O.2     1  UNL1       -0.1686
     20 O           5.7254   -4.3028   20.6736 O.2     1  UNL1       -0.1686
     21 C           3.3722   -0.8998   28.6676 C.ar    1  UNL1        0.0503
     22 C           2.3947   -0.5174   29.7393 C.ar    1  UNL1        0.0144
     23 C           2.8272   -0.4945   31.1754 C.ar    1  UNL1       -0.0002
     24 C           4.2372   -0.8540   31.5398 C.ar    1  UNL1        0.0182
     25 C           5.2146   -1.2364   30.4681 C.ar    1  UNL1       -0.0002
     26 C           4.7821   -1.2593   29.0320 C.ar    1  UNL1        0.0144
     27 C           4.6698   -0.8311   32.9759 C.3     1  UNL1        0.2827
     28 O           4.1993    0.5882   33.0951 O.3     1  UNL1       -0.3692
     29 H           4.3617    0.9080   33.9963 H       1  UNL1        0.2112
     30 C           5.1024   -0.8083   34.4120 C.3     1  UNL1        0.4311
     31 F           5.5350   -0.7856   35.8481 F       1  UNL1       -0.1669
     32 F           6.1788    0.1795   34.0721 F       1  UNL1       -0.1669
     33 F           4.5027   -1.3857   34.7146 F       1  UNL1       -0.1669
     34 C           5.1402   -2.2505   32.8567 C.3     1  UNL1        0.4311
     35 F           5.6105   -3.6698   32.7375 F       1  UNL1       -0.1669
     36 F           4.3405   -2.6228   32.7759 F       1  UNL1       -0.1669
     37 F           6.6338   -2.1467   32.9473 F       1  UNL1       -0.1669
@<TRIPOS>BOND
     1     5     6    1
     2     6     7    2
     3     6     8   am
     4     8     9    1
     5     9    10    1
     6    10    11   ar
     7    11    12   ar
     8    12    17    1
     9    17    18    1
    10    17    19    2
    11    17    20    2
    12    12    13   ar
    13    13    14   ar
    14    14    15   ar
    15    15    16    1
    16    16     1    1
    17     1     2    2
    18     1     3   am
    19     3    21    1
    20    21    22   ar
    21    22    23   ar
    22    23    24   ar
    23    24    27    1
    24    27    28    1
    25    27    30    1
    26    30    31    1
    27    30    32    1
    28    30    33    1
    29    27    34    1
    30    34    35    1
    31    34    36    1
    32    34    37    1
    33    24    25   ar
    34    25    26   ar
    35    16     8    1
    36    26    21   ar
    37    15    10   ar
    38     3     4    1
    39    28    29    1
@<TRIPOS>MOLECULE
*****
 37 39 0 0 0
SMALL
GASTEIGER

@<TRIPOS>ATOM
      1 C         -16.4016   -1.3422   19.2409 C.2     1  UNL1        0.2485
      2 O         -15.0835   -0.7279   18.8735 O.2     1  UNL1       -0.2726
      3 N         -16.5042   -2.8228   19.4589 N.am    1  UNL1       -0.2823
      4 H         -17.3694   -3.2260   19.7001 H       1  UNL1        0.1549
      5 C         -20.3983   -1.4465   16.6618 C.3     1  UNL1        0.0949
      6 C         -19.1014   -1.4942   17.4139 C.2     1  UNL1        0.2269
      7 O         -18.0477   -2.4901   17.0295 O.2     1  UNL1       -0.2748
      8 N         -18.8581   -0.5460   18.5504 N.am    1  UNL1       -0.2655
      9 C         -19.8131    0.4989   19.0468 C.3     1  UNL1        0.1206
     10 C         -19.1623    1.2145   20.1933 C.ar    1  UNL1       -0.0030
     11 C         -19.6303    2.3369   21.0714 C.ar    1  UNL1        0.0155
     12 C         -18.7410    2.8568   22.1617 C.ar    1  UNL1        0.1054
     13 C         -17.3839    2.2543   22.3740 C.ar    1  UNL1        0.0181
     14 C         -16.9160    1.1318   21.4959 C.ar    1  UNL1       -0.0011
     15 C         -17.8052    0.6119   20.4055 C.ar    1  UNL1        0.0022
     16 C         -17.6172   -0.4761   19.3902 C.3     1  UNL1        0.1750
     17 S         -19.2089    3.9793   23.0399 S.O2    1  UNL1        0.0104
     18 C         -19.6768    5.1018   23.9181 C.3     1  UNL1        0.1816
     19 O         -19.2138    4.9023   21.8576 O.2     1  UNL1       -0.1686
     20 O         -19.2040    3.0563   24.2223 O.2     1  UNL1       -0.1686
     21 C         -15.2886   -3.6889   19.3096 C.ar    1  UNL1        0.0503
     22 C         -14.7790   -4.0368   17.9425 C.ar    1  UNL1        0.0144
     23 C         -13.5634   -4.9029   17.7931 C.ar    1  UNL1       -0.0002
     24 C         -12.8576   -5.4210   19.0110 C.ar    1  UNL1        0.0182
     25 C         -13.3673   -5.0731   20.3782 C.ar    1  UNL1       -0.0002
     26 C         -14.5828   -4.2070   20.5275 C.ar    1  UNL1        0.0144
     27 C         -11.6420   -6.2871   18.8618 C.3     1  UNL1        0.2827
     28 O         -12.4757   -7.5042   19.1334 O.3     1  UNL1       -0.3692
     29 H         -11.9142   -8.2945   19.1010 H       1  UNL1        0.2112
     30 C         -10.4263   -7.1531   18.7126 C.3     1  UNL1        0.4311
     31 F          -9.2107   -8.0191   18.5633 F       1  UNL1       -0.1669
     32 F         -11.0649   -7.8487   17.5471 F       1  UNL1       -0.1669
     33 F          -9.9645   -6.8079   19.3849 F       1  UNL1       -0.1669
     34 C         -10.8083   -5.0700   18.5902 C.3     1  UNL1        0.4311
     35 F          -9.9746   -3.8529   18.3187 F       1  UNL1       -0.1669
     36 F         -10.8415   -4.7317   19.4081 F       1  UNL1       -0.1669
     37 F         -10.4522   -5.1906   17.1381 F       1  UNL1       -0.1669
@<TRIPOS>BOND
     1     5     6    1
     2     6     7    2
     3     6     8   am
     4     8     9    1
     5     9    10    1
     6    10    11   ar
     7    11    12   ar
     8    12    17    1
     9    17    18    1
    10    17    19    2
    11    17    20    2
    12    12    13   ar
    13    13    14   ar
    14    14    15   ar
    15    15    16    1
    16    16     1    1
    17     1     2    2
    18     1     3   am
    19     3    21    1
    20    21    22   ar
    21    22    23   ar
    22    23    24   ar
    23    24    27    1
    24    27    28    1
    25    27    30    1
    26    30    31    1
    27    30    32    1
    28    30    33    1
    29    27    34    1
    30    34    35    1
    31    34    36    1
    32    34    37    1
    33    24    25   ar
    34    25    26   ar
    35    16     8    1
    36    26    21   ar
    37    15    10   ar
    38     3     4    1
    39    28    29    1
