@<TRIPOS>MOLECULE
*****
 21 23 0 0 0
SMALL
GASTEIGER

@<TRIPOS>ATOM
      1 C          -5.6280  -16.2050   23.9614 C.3     1  UNL1        0.0591
      2 C          -4.6625  -17.1582   23.3217 C.3     1  UNL1        0.0418
      3 C          -5.1686  -18.2505   22.4268 C.ar    1  UNL1       -0.0245
      4 C          -4.2031  -19.2037   21.7871 C.ar    1  UNL1       -0.0045
      5 C          -4.7092  -20.2960   20.8923 C.ar    1  UNL1       -0.0003
      6 C          -6.1808  -20.4351   20.6373 C.ar    1  UNL1       -0.0003
      7 C          -7.1463  -19.4820   21.2770 C.ar    1  UNL1       -0.0043
      8 C          -6.6402  -18.3897   22.1718 C.ar    1  UNL1       -0.0223
      9 C          -7.6057  -17.4365   22.8115 C.3     1  UNL1        0.0456
     10 C          -7.0996  -16.3441   23.7063 C.3     1  UNL1        0.0248
     11 C          -9.0773  -17.5756   22.5564 C.ar    1  UNL1       -0.0175
     12 C          -9.8974  -18.5153   23.3899 C.ar    1  UNL1       -0.0030
     13 C         -11.3689  -18.6544   23.1348 C.ar    1  UNL1        0.0119
     14 C         -12.0204  -17.8539   22.0463 C.ar    1  UNL1        0.0682
     15 CL        -13.4920  -17.9931   21.7912 Cl      1  UNL1       -0.0814
     16 C         -11.2004  -16.9143   21.2129 C.ar    1  UNL1        0.0679
     17 CL        -11.8519  -16.1138   20.1244 Cl      1  UNL1       -0.0814
     18 C          -9.7288  -16.7751   21.4680 C.ar    1  UNL1        0.0083
     19 C          -5.5766  -15.0415   26.2838 C.3     1  UNL1        0.0859
     20 N          -5.1219  -15.1126   24.8562 N.3     1  UNL1       -0.2971
     21 H          -4.1054  -15.1944   24.8747 H       1  UNL1        0.1233
@<TRIPOS>BOND
     1    19    20    1
     2     1    20    1
     3     1     2    1
     4     2     3    1
     5     3     4   ar
     6     4     5   ar
     7     5     6   ar
     8     6     7   ar
     9     7     8   ar
    10     8     9    1
    11     9    11    1
    12    11    12   ar
    13    12    13   ar
    14    13    14   ar
    15    14    15    1
    16    14    16   ar
    17    16    17    1
    18    16    18   ar
    19     9    10    1
    20    10     1    1
    21     8     3   ar
    22    18    11   ar
    23    20    21    1
@<TRIPOS>MOLECULE
*****
 21 23 0 0 0
SMALL
GASTEIGER

@<TRIPOS>ATOM
      1 C          -8.0902  -19.2195   20.6802 C.3     1  UNL1        0.0591
      2 C          -9.4517  -18.9367   20.1177 C.3     1  UNL1        0.0418
      3 C         -10.3757  -17.9930   20.8290 C.ar    1  UNL1       -0.0245
      4 C         -11.7372  -17.7102   20.2666 C.ar    1  UNL1       -0.0045
      5 C         -12.6612  -16.7666   20.9778 C.ar    1  UNL1       -0.0003
      6 C         -12.2238  -16.1059   22.2514 C.ar    1  UNL1       -0.0003
      7 C         -10.8623  -16.3888   22.8138 C.ar    1  UNL1       -0.0043
      8 C          -9.9383  -17.3323   22.1026 C.ar    1  UNL1       -0.0223
      9 C          -8.5767  -17.6152   22.6650 C.3     1  UNL1        0.0456
     10 C          -7.6527  -18.5588   21.9538 C.3     1  UNL1        0.0248
     11 C          -8.1393  -16.9545   23.9386 C.ar    1  UNL1       -0.0175
     12 C          -9.0016  -17.0409   25.1629 C.ar    1  UNL1       -0.0030
     13 C          -8.5641  -16.3802   26.4365 C.ar    1  UNL1        0.0119
     14 C          -7.2643  -15.6331   26.4858 C.ar    1  UNL1        0.0682
     15 CL         -6.8269  -14.9723   27.7594 Cl      1  UNL1       -0.0814
     16 C          -6.4020  -15.5467   25.2615 C.ar    1  UNL1        0.0679
     17 CL         -5.1022  -14.7996   25.3107 Cl      1  UNL1       -0.0814
     18 C          -6.8395  -16.2074   23.9879 C.ar    1  UNL1        0.0083
     19 C          -5.8388  -20.5118   20.5743 C.3     1  UNL1        0.0859
     20 N          -7.1661  -20.1631   19.9689 N.3     1  UNL1       -0.2971
     21 H          -7.6746  -21.0392   19.8496 H       1  UNL1        0.1233
@<TRIPOS>BOND
     1    19    20    1
     2     1    20    1
     3     1     2    1
     4     2     3    1
     5     3     4   ar
     6     4     5   ar
     7     5     6   ar
     8     6     7   ar
     9     7     8   ar
    10     8     9    1
    11     9    11    1
    12    11    12   ar
    13    12    13   ar
    14    13    14   ar
    15    14    15    1
    16    14    16   ar
    17    16    17    1
    18    16    18   ar
    19     9    10    1
    20    10     1    1
    21     8     3   ar
    22    18    11   ar
    23    20    21    1
@<TRIPOS>MOLECULE
*****
 21 23 0 0 0
SMALL
GASTEIGER

@<TRIPOS>ATOM
      1 C         -13.6186   -3.1073   19.0407 C.3     1  UNL1        0.0591
      2 C         -12.1217   -3.1940   19.0793 C.3     1  UNL1        0.0418
      3 C         -11.4458   -4.5313   19.0087 C.ar    1  UNL1       -0.0245
      4 C          -9.9488   -4.6180   19.0474 C.ar    1  UNL1       -0.0045
      5 C          -9.2730   -5.9552   18.9768 C.ar    1  UNL1       -0.0003
      6 C         -10.0941   -7.2057   18.8676 C.ar    1  UNL1       -0.0003
      7 C         -11.5911   -7.1190   18.8289 C.ar    1  UNL1       -0.0043
      8 C         -12.2669   -5.7818   18.8995 C.ar    1  UNL1       -0.0223
      9 C         -13.7639   -5.6950   18.8609 C.3     1  UNL1        0.0456
     10 C         -14.4398   -4.3578   18.9314 C.3     1  UNL1        0.0248
     11 C         -14.5851   -6.9455   18.7516 C.ar    1  UNL1       -0.0175
     12 C         -14.1739   -8.0323   17.8030 C.ar    1  UNL1       -0.0030
     13 C         -14.9950   -9.2828   17.6937 C.ar    1  UNL1        0.0119
     14 C         -16.2274   -9.4466   18.5331 C.ar    1  UNL1        0.0682
     15 CL        -17.0485  -10.6971   18.4239 Cl      1  UNL1       -0.0814
     16 C         -16.6386   -8.3598   19.4817 C.ar    1  UNL1        0.0679
     17 CL        -17.8709   -8.5235   20.3211 Cl      1  UNL1       -0.0814
     18 C         -15.8174   -7.1093   19.5910 C.ar    1  UNL1        0.0083
     19 C         -13.7592   -0.6162   18.3163 C.3     1  UNL1        0.0859
     20 N         -14.2945   -1.7700   19.1113 N.3     1  UNL1       -0.2971
     21 H         -15.2592   -1.9115   18.8118 H       1  UNL1        0.1233
@<TRIPOS>BOND
     1    19    20    1
     2     1    20    1
     3     1     2    1
     4     2     3    1
     5     3     4   ar
     6     4     5   ar
     7     5     6   ar
     8     6     7   ar
     9     7     8   ar
    10     8     9    1
    11     9    11    1
    12    11    12   ar
    13    12    13   ar
    14    13    14   ar
    15    14    15    1
    16    14    16   ar
    17    16    17    1
    18    16    18   ar
    19     9    10    1
    20    10     1    1
    21     8     3   ar
    22    18    11   ar
    23    20    21    1
@<TRIPOS>MOLECULE
*****
 21 23 0 0 0
SMALL
GASTEIGER

@<TRIPOS>ATOM
      1 C          -4.9795  -16.1528   23.9928 C.3     1  UNL1        0.0591
      2 C          -3.6855  -16.7409   23.5136 C.3     1  UNL1        0.0418
      3 C          -3.6952  -17.9211   22.5878 C.ar    1  UNL1       -0.0245
      4 C          -2.4012  -18.5092   22.1086 C.ar    1  UNL1       -0.0045
      5 C          -2.4110  -19.6893   21.1828 C.ar    1  UNL1       -0.0003
      6 C          -3.7148  -20.2813   20.7362 C.ar    1  UNL1       -0.0003
      7 C          -5.0089  -19.6933   21.2153 C.ar    1  UNL1       -0.0043
      8 C          -4.9991  -18.5131   22.1411 C.ar    1  UNL1       -0.0223
      9 C          -6.2931  -17.9250   22.6203 C.3     1  UNL1        0.0456
     10 C          -6.2833  -16.7449   23.5461 C.3     1  UNL1        0.0248
     11 C          -7.5970  -18.5171   22.1737 C.ar    1  UNL1       -0.0175
     12 C          -7.9444  -18.5515   20.7148 C.ar    1  UNL1       -0.0030
     13 C          -9.2482  -19.1436   20.2682 C.ar    1  UNL1        0.0119
     14 C         -10.2046  -19.7012   21.2804 C.ar    1  UNL1        0.0682
     15 CL        -11.5085  -20.2932   20.8337 Cl      1  UNL1       -0.0814
     16 C          -9.8572  -19.6667   22.7391 C.ar    1  UNL1        0.0679
     17 CL        -10.8136  -20.2243   23.7514 Cl      1  UNL1       -0.0814
     18 C          -8.5533  -19.0746   23.1858 C.ar    1  UNL1        0.0083
     19 C          -5.7670  -15.0091   26.1886 C.3     1  UNL1        0.0859
     20 N          -4.9697  -14.9726   24.9186 N.3     1  UNL1       -0.2971
     21 H          -3.9978  -14.8157   25.1855 H       1  UNL1        0.1233
@<TRIPOS>BOND
     1    19    20    1
     2     1    20    1
     3     1     2    1
     4     2     3    1
     5     3     4   ar
     6     4     5   ar
     7     5     6   ar
     8     6     7   ar
     9     7     8   ar
    10     8     9    1
    11     9    11    1
    12    11    12   ar
    13    12    13   ar
    14    13    14   ar
    15    14    15    1
    16    14    16   ar
    17    16    17    1
    18    16    18   ar
    19     9    10    1
    20    10     1    1
    21     8     3   ar
    22    18    11   ar
    23    20    21    1
@<TRIPOS>MOLECULE
*****
 21 23 0 0 0
SMALL
GASTEIGER

@<TRIPOS>ATOM
      1 C          -5.3542  -19.4241   20.8124 C.3     1  UNL1        0.0591
      2 C          -6.4345  -19.7887   19.8377 C.3     1  UNL1        0.0418
      3 C          -7.8471  -19.3485   20.0845 C.ar    1  UNL1       -0.0245
      4 C          -8.9274  -19.7130   19.1098 C.ar    1  UNL1       -0.0045
      5 C         -10.3399  -19.2729   19.3566 C.ar    1  UNL1       -0.0003
      6 C         -10.6722  -18.4682   20.5782 C.ar    1  UNL1       -0.0003
      7 C          -9.5919  -18.1037   21.5529 C.ar    1  UNL1       -0.0043
      8 C          -8.1794  -18.5439   21.3060 C.ar    1  UNL1       -0.0223
      9 C          -7.0990  -18.1794   22.2807 C.3     1  UNL1        0.0456
     10 C          -5.6865  -18.6195   22.0339 C.3     1  UNL1        0.0248
     11 C          -7.4312  -17.3747   23.5023 C.ar    1  UNL1       -0.0175
     12 C          -8.8014  -17.4602   24.1069 C.ar    1  UNL1       -0.0030
     13 C          -9.1336  -16.6556   25.3284 C.ar    1  UNL1        0.0119
     14 C          -8.0958  -15.7654   25.9453 C.ar    1  UNL1        0.0682
     15 CL         -8.4280  -14.9607   27.1669 Cl      1  UNL1       -0.0814
     16 C          -6.7257  -15.6799   25.3407 C.ar    1  UNL1        0.0679
     17 CL         -5.6878  -14.7898   25.9576 Cl      1  UNL1       -0.0814
     18 C          -6.3935  -16.4846   24.1192 C.ar    1  UNL1        0.0083
     19 C          -2.8872  -19.6187   21.6038 C.3     1  UNL1        0.0859
     20 N          -3.9416  -19.8643   20.5656 N.3     1  UNL1       -0.2971
     21 H          -3.9703  -20.8716   20.4076 H       1  UNL1        0.1233
@<TRIPOS>BOND
     1    19    20    1
     2     1    20    1
     3     1     2    1
     4     2     3    1
     5     3     4   ar
     6     4     5   ar
     7     5     6   ar
     8     6     7   ar
     9     7     8   ar
    10     8     9    1
    11     9    11    1
    12    11    12   ar
    13    12    13   ar
    14    13    14   ar
    15    14    15    1
    16    14    16   ar
    17    16    17    1
    18    16    18   ar
    19     9    10    1
    20    10     1    1
    21     8     3   ar
    22    18    11   ar
    23    20    21    1
@<TRIPOS>MOLECULE
*****
 21 23 0 0 0
SMALL
GASTEIGER

@<TRIPOS>ATOM
      1 C          -9.5438  -19.0547   22.6253 C.3     1  UNL1        0.0591
      2 C          -9.7832  -17.9215   23.5784 C.3     1  UNL1        0.0418
      3 C          -8.6609  -16.9927   23.9363 C.ar    1  UNL1       -0.0245
      4 C          -8.9003  -15.8594   24.8894 C.ar    1  UNL1       -0.0045
      5 C          -7.7780  -14.9308   25.2473 C.ar    1  UNL1       -0.0003
      6 C          -6.4164  -15.1354   24.6522 C.ar    1  UNL1       -0.0003
      7 C          -6.1771  -16.2687   23.6991 C.ar    1  UNL1       -0.0043
      8 C          -7.2993  -17.1974   23.3412 C.ar    1  UNL1       -0.0223
      9 C          -7.0600  -18.3307   22.3881 C.3     1  UNL1        0.0456
     10 C          -8.1822  -19.2594   22.0302 C.3     1  UNL1        0.0248
     11 C          -5.6984  -18.5354   21.7930 C.ar    1  UNL1       -0.0175
     12 C          -5.5626  -19.0181   20.3793 C.ar    1  UNL1       -0.0030
     13 C          -4.2010  -19.2227   19.7841 C.ar    1  UNL1        0.0119
     14 C          -2.9752  -18.9446   20.6028 C.ar    1  UNL1        0.0682
     15 CL         -1.6136  -19.1493   20.0076 Cl      1  UNL1       -0.0814
     16 C          -3.1110  -18.4619   22.0164 C.ar    1  UNL1        0.0679
     17 CL         -1.8851  -18.1838   22.8351 Cl      1  UNL1       -0.0814
     18 C          -4.4726  -18.2573   22.6116 C.ar    1  UNL1        0.0083
     19 C         -11.1678  -20.0442   20.8551 C.3     1  UNL1        0.0859
     20 N         -10.6661  -19.9835   22.2674 N.3     1  UNL1       -0.2971
     21 H         -10.3584  -20.9249   22.5112 H       1  UNL1        0.1233
@<TRIPOS>BOND
     1    19    20    1
     2     1    20    1
     3     1     2    1
     4     2     3    1
     5     3     4   ar
     6     4     5   ar
     7     5     6   ar
     8     6     7   ar
     9     7     8   ar
    10     8     9    1
    11     9    11    1
    12    11    12   ar
    13    12    13   ar
    14    13    14   ar
    15    14    15    1
    16    14    16   ar
    17    16    17    1
    18    16    18   ar
    19     9    10    1
    20    10     1    1
    21     8     3   ar
    22    18    11   ar
    23    20    21    1
@<TRIPOS>MOLECULE
*****
 21 23 0 0 0
SMALL
GASTEIGER

@<TRIPOS>ATOM
      1 C          -9.5328  -16.6890   22.8270 C.3     1  UNL1        0.0591
      2 C          -9.6699  -16.0411   24.1728 C.3     1  UNL1        0.0418
      3 C          -8.4684  -15.8889   25.0579 C.ar    1  UNL1       -0.0245
      4 C          -8.6056  -15.2411   26.4038 C.ar    1  UNL1       -0.0045
      5 C          -7.4041  -15.0889   27.2888 C.ar    1  UNL1       -0.0003
      6 C          -6.0655  -15.5847   26.8280 C.ar    1  UNL1       -0.0003
      7 C          -5.9284  -16.2325   25.4821 C.ar    1  UNL1       -0.0043
      8 C          -7.1298  -16.3847   24.5971 C.ar    1  UNL1       -0.0223
      9 C          -6.9927  -17.0325   23.2511 C.3     1  UNL1        0.0456
     10 C          -8.1942  -17.1847   22.3661 C.3     1  UNL1        0.0248
     11 C          -5.6541  -17.5283   22.7903 C.ar    1  UNL1       -0.0175
     12 C          -4.4003  -16.8634   23.2760 C.ar    1  UNL1       -0.0030
     13 C          -3.0616  -17.3591   22.8151 C.ar    1  UNL1        0.0119
     14 C          -2.9769  -18.5197   21.8686 C.ar    1  UNL1        0.0682
     15 CL         -1.6383  -19.0154   21.4077 Cl      1  UNL1       -0.0814
     16 C          -4.2307  -19.1845   21.3829 C.ar    1  UNL1        0.0679
     17 CL         -4.1460  -20.3451   20.4363 Cl      1  UNL1       -0.0814
     18 C          -5.5693  -18.6888   21.8438 C.ar    1  UNL1        0.0083
     19 C         -12.0905  -16.4421   22.4432 C.3     1  UNL1        0.0859
     20 N         -10.7343  -16.8411   21.9419 N.3     1  UNL1       -0.2971
     21 H         -10.5552  -16.2870   21.1044 H       1  UNL1        0.1233
@<TRIPOS>BOND
     1    19    20    1
     2     1    20    1
     3     1     2    1
     4     2     3    1
     5     3     4   ar
     6     4     5   ar
     7     5     6   ar
     8     6     7   ar
     9     7     8   ar
    10     8     9    1
    11     9    11    1
    12    11    12   ar
    13    12    13   ar
    14    13    14   ar
    15    14    15    1
    16    14    16   ar
    17    16    17    1
    18    16    18   ar
    19     9    10    1
    20    10     1    1
    21     8     3   ar
    22    18    11   ar
    23    20    21    1
@<TRIPOS>MOLECULE
*****
 21 23 0 0 0
SMALL
GASTEIGER

@<TRIPOS>ATOM
      1 C         -16.6554   -4.3568   19.8077 C.3     1  UNL1        0.0591
      2 C         -17.2533   -5.7324   19.8138 C.3     1  UNL1        0.0418
      3 C         -16.4634   -6.8958   19.2916 C.ar    1  UNL1       -0.0245
      4 C         -17.0613   -8.2715   19.2977 C.ar    1  UNL1       -0.0045
      5 C         -16.2715   -9.4348   18.7755 C.ar    1  UNL1       -0.0003
      6 C         -14.8838   -9.2225   18.2472 C.ar    1  UNL1       -0.0003
      7 C         -14.2859   -7.8469   18.2410 C.ar    1  UNL1       -0.0043
      8 C         -15.0757   -6.6836   18.7632 C.ar    1  UNL1       -0.0223
      9 C         -14.4778   -5.3078   18.7571 C.3     1  UNL1        0.0456
     10 C         -15.2677   -4.1445   19.2793 C.3     1  UNL1        0.0248
     11 C         -13.0901   -5.0955   18.2287 C.ar    1  UNL1       -0.0175
     12 C         -12.8890   -4.5879   16.8316 C.ar    1  UNL1       -0.0030
     13 C         -11.5013   -4.3756   16.3032 C.ar    1  UNL1        0.0119
     14 C         -10.3147   -4.6710   17.1720 C.ar    1  UNL1        0.0682
     15 CL         -8.9269   -4.4587   16.6437 Cl      1  UNL1       -0.0814
     16 C         -10.5158   -5.1786   18.5691 C.ar    1  UNL1        0.0679
     17 CL         -9.3291   -5.4739   19.4379 Cl      1  UNL1       -0.0814
     18 C         -11.9035   -5.3909   19.0974 C.ar    1  UNL1        0.0083
     19 C         -18.9408   -3.1904   20.2157 C.3     1  UNL1        0.0859
     20 N         -17.4452   -3.1933   20.3299 N.3     1  UNL1       -0.2971
     21 H         -17.2255   -3.1101   21.3225 H       1  UNL1        0.1233
@<TRIPOS>BOND
     1    19    20    1
     2     1    20    1
     3     1     2    1
     4     2     3    1
     5     3     4   ar
     6     4     5   ar
     7     5     6   ar
     8     6     7   ar
     9     7     8   ar
    10     8     9    1
    11     9    11    1
    12    11    12   ar
    13    12    13   ar
    14    13    14   ar
    15    14    15    1
    16    14    16   ar
    17    16    17    1
    18    16    18   ar
    19     9    10    1
    20    10     1    1
    21     8     3   ar
    22    18    11   ar
    23    20    21    1
@<TRIPOS>MOLECULE
*****
 21 23 0 0 0
SMALL
GASTEIGER

@<TRIPOS>ATOM
      1 C         -11.9117   -4.3636   19.2864 C.3     1  UNL1        0.0591
      2 C         -12.6938   -3.0980   19.4772 C.3     1  UNL1        0.0418
      3 C         -14.1932   -3.1390   19.4997 C.ar    1  UNL1       -0.0245
      4 C         -14.9752   -1.8733   19.6906 C.ar    1  UNL1       -0.0045
      5 C         -16.4745   -1.9144   19.7131 C.ar    1  UNL1       -0.0003
      6 C         -17.1916   -3.2210   19.5447 C.ar    1  UNL1       -0.0003
      7 C         -16.4095   -4.4866   19.3539 C.ar    1  UNL1       -0.0043
      8 C         -14.9103   -4.4456   19.3314 C.ar    1  UNL1       -0.0223
      9 C         -14.1281   -5.7113   19.1406 C.3     1  UNL1        0.0456
     10 C         -12.6289   -5.6703   19.1181 C.3     1  UNL1        0.0248
     11 C         -14.8453   -7.0180   18.9723 C.ar    1  UNL1       -0.0175
     12 C         -14.2389   -8.1037   18.1334 C.ar    1  UNL1       -0.0030
     13 C         -14.9561   -9.4103   17.9651 C.ar    1  UNL1        0.0119
     14 C         -16.2796   -9.6313   18.6356 C.ar    1  UNL1        0.0682
     15 CL        -16.9967  -10.9379   18.4673 Cl      1  UNL1       -0.0814
     16 C         -16.8859   -8.5456   19.4745 C.ar    1  UNL1        0.0679
     17 CL        -18.2094   -8.7666   20.1450 Cl      1  UNL1       -0.0814
     18 C         -16.1687   -7.2390   19.6428 C.ar    1  UNL1        0.0083
     19 C          -9.6309   -5.5835   19.0418 C.3     1  UNL1        0.0859
     20 N         -10.4124   -4.3226   19.2639 N.3     1  UNL1       -0.2971
     21 H         -10.1466   -3.6767   18.5206 H       1  UNL1        0.1233
@<TRIPOS>BOND
     1    19    20    1
     2     1    20    1
     3     1     2    1
     4     2     3    1
     5     3     4   ar
     6     4     5   ar
     7     5     6   ar
     8     6     7   ar
     9     7     8   ar
    10     8     9    1
    11     9    11    1
    12    11    12   ar
    13    12    13   ar
    14    13    14   ar
    15    14    15    1
    16    14    16   ar
    17    16    17    1
    18    16    18   ar
    19     9    10    1
    20    10     1    1
    21     8     3   ar
    22    18    11   ar
    23    20    21    1
