@<TRIPOS>MOLECULE
*****
 22 26 0 0 0
SMALL
GASTEIGER

@<TRIPOS>ATOM
      1 O          -8.5122  -19.2727   19.0583 O.2     1  UNL1       -0.2258
      2 C          -7.3786  -19.2137   20.0388 C.2     1  UNL1        0.4086
      3 O          -5.9176  -19.2246   19.6991 O.3     1  UNL1       -0.4384
      4 C          -5.1429  -19.1511   20.9815 C.3     1  UNL1        0.1706
      5 C          -4.2846  -19.2133   19.7529 C.3     1  UNL1        0.1145
      6 N          -2.7901  -19.1986   19.8806 N.3     1  UNL1       -0.2697
      7 C          -2.1540  -19.1218   21.2368 C.3     1  UNL1        0.0723
      8 C          -3.0123  -19.0597   22.4654 C.3     1  UNL1        0.0209
      9 C          -4.5068  -19.0743   22.3377 C.3     1  UNL1        0.0427
     10 C          -4.4455  -19.1443   21.0411 C.3     1  UNL1        0.0209
     11 C          -3.9877  -19.1774   20.3858 C.3     1  UNL1        0.0723
     12 C          -6.1252  -19.0948   22.1137 C.3     1  UNL1        0.1428
     13 N          -7.5069  -19.1335   21.5311 N.am    1  UNL1       -0.2213
     14 C          -8.7914  -19.0982   22.3050 C.ar    1  UNL1        0.0603
     15 C          -9.0017  -20.0410   23.4526 C.ar    1  UNL1        0.0183
     16 C         -10.2861  -20.0056   24.2265 C.ar    1  UNL1        0.0415
     17 C         -11.3602  -19.0275   23.8528 C.ar    1  UNL1        0.1765
     18 C         -11.1499  -18.0848   22.7052 C.ar    1  UNL1        0.1777
     19 C          -9.8654  -18.1201   21.9313 C.ar    1  UNL1        0.0552
     20 O         -12.3800  -17.2370   22.5703 O.3     1  UNL1       -0.4346
     21 C         -13.3506  -17.6557   23.6345 C.3     1  UNL1        0.4294
     22 O         -12.7204  -18.7623   24.4271 O.3     1  UNL1       -0.4346
@<TRIPOS>BOND
     1     1     2    2
     2     2     3    1
     3     3     4    1
     4     4     5    1
     5     5     6    1
     6     6     7    1
     7     7     8    1
     8     8     9    1
     9     9    10    1
    10    10    11    1
    11     4    12    1
    12    12    13    1
    13    13    14    1
    14    14    15   ar
    15    15    16   ar
    16    16    17   ar
    17    17    18   ar
    18    18    19   ar
    19    18    20    1
    20    20    21    1
    21    21    22    1
    22    13     2   am
    23    19    14   ar
    24     9     4    1
    25    22    17    1
    26    11     6    1
@<TRIPOS>MOLECULE
*****
 22 26 0 0 0
SMALL
GASTEIGER

@<TRIPOS>ATOM
      1 O          -6.8230  -15.0604   24.5169 O.2     1  UNL1       -0.2258
      2 C          -6.3624  -16.2542   23.7342 C.2     1  UNL1        0.4086
      3 O          -4.9384  -16.6795   23.5312 O.3     1  UNL1       -0.4384
      4 C          -4.9408  -17.9205   22.6886 C.3     1  UNL1        0.1706
      5 C          -3.5712  -17.4559   23.0865 C.3     1  UNL1        0.1145
      6 N          -2.3606  -18.2209   22.6401 N.3     1  UNL1       -0.2697
      7 C          -2.5197  -19.4505   21.7957 C.3     1  UNL1        0.0723
      8 C          -3.8893  -19.9150   21.3978 C.3     1  UNL1        0.0209
      9 C          -5.0998  -19.1500   21.8443 C.3     1  UNL1        0.0427
     10 C          -4.3759  -18.2775   22.4803 C.3     1  UNL1        0.0209
     11 C          -3.6454  -18.0297   22.6925 C.3     1  UNL1        0.0723
     12 C          -6.3664  -18.2621   22.3708 C.3     1  UNL1        0.1428
     13 N          -7.2450  -17.2323   23.0170 N.am    1  UNL1       -0.2213
     14 C          -8.7431  -17.1883   22.9565 C.ar    1  UNL1        0.0603
     15 C          -9.4277  -16.3245   21.9391 C.ar    1  UNL1        0.0183
     16 C         -10.9258  -16.2806   21.8787 C.ar    1  UNL1        0.0415
     17 C         -11.7393  -17.1004   22.8358 C.ar    1  UNL1        0.1765
     18 C         -11.0548  -17.9642   23.8532 C.ar    1  UNL1        0.1777
     19 C          -9.5567  -18.0081   23.9136 C.ar    1  UNL1        0.0552
     20 O         -12.1127  -18.6572   24.6600 O.3     1  UNL1       -0.4346
     21 C         -13.4510  -18.2217   24.1411 C.3     1  UNL1        0.4294
     22 O         -13.2203  -17.2596   23.0137 O.3     1  UNL1       -0.4346
@<TRIPOS>BOND
     1     1     2    2
     2     2     3    1
     3     3     4    1
     4     4     5    1
     5     5     6    1
     6     6     7    1
     7     7     8    1
     8     8     9    1
     9     9    10    1
    10    10    11    1
    11     4    12    1
    12    12    13    1
    13    13    14    1
    14    14    15   ar
    15    15    16   ar
    16    16    17   ar
    17    17    18   ar
    18    18    19   ar
    19    18    20    1
    20    20    21    1
    21    21    22    1
    22    13     2   am
    23    19    14   ar
    24     9     4    1
    25    22    17    1
    26    11     6    1
@<TRIPOS>MOLECULE
*****
 22 26 0 0 0
SMALL
GASTEIGER

@<TRIPOS>ATOM
      1 O          -8.0766  -14.8620   21.2189 O.2     1  UNL1       -0.2258
      2 C          -8.7937  -15.9269   21.9945 C.2     1  UNL1        0.4086
      3 O         -10.2761  -16.0172   22.2049 O.3     1  UNL1       -0.4384
      4 C         -10.5530  -17.2346   23.0364 C.3     1  UNL1        0.1706
      5 C         -11.7822  -16.4649   22.6535 C.3     1  UNL1        0.1145
      6 N         -13.1331  -16.9373   23.1026 N.3     1  UNL1       -0.2697
      7 C         -13.2550  -18.1793   23.9346 C.3     1  UNL1        0.0723
      8 C         -12.0258  -18.9490   24.3176 C.3     1  UNL1        0.0209
      9 C         -10.6748  -18.4766   23.8685 C.3     1  UNL1        0.0427
     10 C         -11.1835  -17.4550   23.2460 C.3     1  UNL1        0.0209
     11 C         -11.8390  -17.0445   23.0418 C.3     1  UNL1        0.0723
     12 C          -9.2417  -17.8966   23.3399 C.3     1  UNL1        0.1428
     13 N          -8.1543  -17.0884   22.6960 N.am    1  UNL1       -0.2213
     14 C          -6.6856  -17.3890   22.7451 C.ar    1  UNL1        0.0603
     15 C          -5.7757  -16.5480   23.5906 C.ar    1  UNL1        0.0183
     16 C          -4.3070  -16.8487   23.6396 C.ar    1  UNL1        0.0415
     17 C          -3.7482  -17.9902   22.8430 C.ar    1  UNL1        0.1765
     18 C          -4.6580  -18.8311   21.9975 C.ar    1  UNL1        0.1777
     19 C          -6.1267  -18.5305   21.9485 C.ar    1  UNL1        0.0552
     20 O          -3.8257  -19.8829   21.3257 O.3     1  UNL1       -0.4346
     21 C          -2.4016  -19.6920   21.7560 C.3     1  UNL1        0.4294
     22 O          -2.3536  -18.5223   22.6938 O.3     1  UNL1       -0.4346
@<TRIPOS>BOND
     1     1     2    2
     2     2     3    1
     3     3     4    1
     4     4     5    1
     5     5     6    1
     6     6     7    1
     7     7     8    1
     8     8     9    1
     9     9    10    1
    10    10    11    1
    11     4    12    1
    12    12    13    1
    13    13    14    1
    14    14    15   ar
    15    15    16   ar
    16    16    17   ar
    17    17    18   ar
    18    18    19   ar
    19    18    20    1
    20    20    21    1
    21    21    22    1
    22    13     2   am
    23    19    14   ar
    24     9     4    1
    25    22    17    1
    26    11     6    1
@<TRIPOS>MOLECULE
*****
 22 26 0 0 0
SMALL
GASTEIGER

@<TRIPOS>ATOM
      1 O          -8.5103  -19.2896   18.7517 O.2     1  UNL1       -0.2258
      2 C          -8.8424  -19.1856   20.2108 C.2     1  UNL1        0.4086
      3 O         -10.2071  -18.9577   20.7903 O.3     1  UNL1       -0.4384
      4 C         -10.0763  -18.9224   22.2842 C.3     1  UNL1        0.1706
      5 C         -11.4791  -18.7283   21.7898 C.3     1  UNL1        0.1145
      6 N         -12.5975  -18.5229   22.7681 N.3     1  UNL1       -0.2697
      7 C         -12.3130  -18.5118   24.2408 C.3     1  UNL1        0.0723
      8 C         -10.9103  -18.7059   24.7352 C.3     1  UNL1        0.0209
      9 C          -9.7919  -18.9112   23.7569 C.3     1  UNL1        0.0427
     10 C         -10.5982  -18.8266   22.7407 C.3     1  UNL1        0.0209
     11 C         -11.3464  -18.7231   22.4771 C.3     1  UNL1        0.0723
     12 C          -8.6309  -19.1286   22.6279 C.3     1  UNL1        0.1428
     13 N          -7.8683  -19.2912   21.3465 N.am    1  UNL1       -0.2213
     14 C          -6.3909  -19.5194   21.2226 C.ar    1  UNL1        0.0603
     15 C          -5.8717  -20.5965   20.3169 C.ar    1  UNL1        0.0183
     16 C          -4.3944  -20.8247   20.1931 C.ar    1  UNL1        0.0415
     17 C          -3.4363  -19.9758   20.9749 C.ar    1  UNL1        0.1765
     18 C          -3.9554  -18.8987   21.8806 C.ar    1  UNL1        0.1777
     19 C          -5.4328  -18.6705   22.0045 C.ar    1  UNL1        0.0552
     20 O          -2.7785  -18.2250   22.5218 O.3     1  UNL1       -0.4346
     21 C          -1.5320  -18.8857   22.0124 C.3     1  UNL1        0.4294
     22 O          -1.9384  -19.9677   21.0563 O.3     1  UNL1       -0.4346
@<TRIPOS>BOND
     1     1     2    2
     2     2     3    1
     3     3     4    1
     4     4     5    1
     5     5     6    1
     6     6     7    1
     7     7     8    1
     8     8     9    1
     9     9    10    1
    10    10    11    1
    11     4    12    1
    12    12    13    1
    13    13    14    1
    14    14    15   ar
    15    15    16   ar
    16    16    17   ar
    17    17    18   ar
    18    18    19   ar
    19    18    20    1
    20    20    21    1
    21    21    22    1
    22    13     2   am
    23    19    14   ar
    24     9     4    1
    25    22    17    1
    26    11     6    1
@<TRIPOS>MOLECULE
*****
 22 26 0 0 0
SMALL
GASTEIGER

@<TRIPOS>ATOM
      1 O          -6.7937  -15.7703   23.2824 O.2     1  UNL1       -0.2258
      2 C          -7.9330  -16.6046   22.7765 C.2     1  UNL1        0.4086
      3 O          -9.3915  -16.2841   22.9182 O.3     1  UNL1       -0.4384
      4 C         -10.1738  -17.3873   22.2695 C.3     1  UNL1        0.1706
      5 C         -11.0243  -16.3032   22.8620 C.3     1  UNL1        0.1145
      6 N         -12.5192  -16.3889   22.7718 N.3     1  UNL1       -0.2697
      7 C         -13.1634  -17.5588   22.0889 C.3     1  UNL1        0.0723
      8 C         -12.3129  -18.6429   21.4964 C.3     1  UNL1        0.0209
      9 C         -10.8180  -18.5571   21.5866 C.3     1  UNL1        0.0427
     10 C         -10.8714  -17.4273   22.2273 C.3     1  UNL1        0.0209
     11 C         -11.3250  -16.8491   22.5434 C.3     1  UNL1        0.0723
     12 C          -9.1988  -18.3897   21.7268 C.3     1  UNL1        0.1428
     13 N          -7.8139  -17.9060   22.0402 N.am    1  UNL1       -0.2213
     14 C          -6.5346  -18.6016   21.6803 C.ar    1  UNL1        0.0603
     15 C          -6.5537  -19.7635   20.7319 C.ar    1  UNL1        0.0183
     16 C          -5.2744  -20.4590   20.3721 C.ar    1  UNL1        0.0415
     17 C          -3.9759  -19.9927   20.9607 C.ar    1  UNL1        0.1765
     18 C          -3.9568  -18.8308   21.9091 C.ar    1  UNL1        0.1777
     19 C          -5.2361  -18.1352   22.2690 C.ar    1  UNL1        0.0552
     20 O          -2.5354  -18.5976   22.3279 O.3     1  UNL1       -0.4346
     21 C          -1.6760  -19.6153   21.6383 C.3     1  UNL1        0.4294
     22 O          -2.5663  -20.4776   20.7933 O.3     1  UNL1       -0.4346
@<TRIPOS>BOND
     1     1     2    2
     2     2     3    1
     3     3     4    1
     4     4     5    1
     5     5     6    1
     6     6     7    1
     7     7     8    1
     8     8     9    1
     9     9    10    1
    10    10    11    1
    11     4    12    1
    12    12    13    1
    13    13    14    1
    14    14    15   ar
    15    15    16   ar
    16    16    17   ar
    17    17    18   ar
    18    18    19   ar
    19    18    20    1
    20    20    21    1
    21    21    22    1
    22    13     2   am
    23    19    14   ar
    24     9     4    1
    25    22    17    1
    26    11     6    1
@<TRIPOS>MOLECULE
*****
 22 26 0 0 0
SMALL
GASTEIGER

@<TRIPOS>ATOM
      1 O          -7.5496  -15.8765   22.9248 O.2     1  UNL1       -0.2258
      2 C          -7.2920  -17.2121   22.2925 C.2     1  UNL1        0.4086
      3 O          -5.9584  -17.7335   21.8457 O.3     1  UNL1       -0.4384
      4 C          -6.1649  -19.1045   21.2731 C.3     1  UNL1        0.1706
      5 C          -4.7387  -18.6408   21.2467 C.3     1  UNL1        0.1145
      6 N          -3.6713  -19.5298   20.6805 N.3     1  UNL1       -0.2697
      7 C          -4.0303  -20.8824   20.1408 C.3     1  UNL1        0.0723
      8 C          -5.4565  -21.3461   20.1672 C.3     1  UNL1        0.0209
      9 C          -6.5238  -20.4571   20.7333 C.3     1  UNL1        0.0427
     10 C          -5.6668  -19.5193   21.0089 C.3     1  UNL1        0.0209
     11 C          -4.9062  -19.2720   20.9948 C.3     1  UNL1        0.0723
     12 C          -7.6261  -19.4303   21.3661 C.3     1  UNL1        0.1428
     13 N          -8.3227  -18.2608   21.9961 N.am    1  UNL1       -0.2213
     14 C          -9.7920  -18.1580   22.2799 C.ar    1  UNL1        0.0603
     15 C         -10.7328  -17.6965   21.2065 C.ar    1  UNL1        0.0183
     16 C         -12.2020  -17.5938   21.4904 C.ar    1  UNL1        0.0415
     17 C         -12.7306  -17.9525   22.8475 C.ar    1  UNL1        0.1765
     18 C         -11.7899  -18.4140   23.9208 C.ar    1  UNL1        0.1777
     19 C         -10.3206  -18.5167   23.6370 C.ar    1  UNL1        0.0552
     20 O         -12.5963  -18.6972   25.1536 O.3     1  UNL1       -0.4346
     21 C         -14.0353  -18.4107   24.8422 C.3     1  UNL1        0.4294
     22 O         -14.1184  -17.9505   23.4170 O.3     1  UNL1       -0.4346
@<TRIPOS>BOND
     1     1     2    2
     2     2     3    1
     3     3     4    1
     4     4     5    1
     5     5     6    1
     6     6     7    1
     7     7     8    1
     8     8     9    1
     9     9    10    1
    10    10    11    1
    11     4    12    1
    12    12    13    1
    13    13    14    1
    14    14    15   ar
    15    15    16   ar
    16    16    17   ar
    17    17    18   ar
    18    18    19   ar
    19    18    20    1
    20    20    21    1
    21    21    22    1
    22    13     2   am
    23    19    14   ar
    24     9     4    1
    25    22    17    1
    26    11     6    1
@<TRIPOS>MOLECULE
*****
 22 26 0 0 0
SMALL
GASTEIGER

@<TRIPOS>ATOM
      1 O          -5.5135  -15.8139   23.5251 O.2     1  UNL1       -0.2258
      2 C          -6.4725  -16.9240   23.2121 C.2     1  UNL1        0.4086
      3 O          -7.9035  -17.0039   23.6544 O.3     1  UNL1       -0.4384
      4 C          -8.4843  -18.2784   23.1174 C.3     1  UNL1        0.1706
      5 C          -9.4503  -17.4584   23.9201 C.3     1  UNL1        0.1145
      6 N         -10.8564  -17.9404   24.1219 N.3     1  UNL1       -0.2697
      7 C         -11.2964  -19.2424   23.5210 C.3     1  UNL1        0.0723
      8 C         -10.3303  -20.0624   22.7184 C.3     1  UNL1        0.0209
      9 C          -8.9243  -19.5804   22.5166 C.3     1  UNL1        0.0427
     10 C          -9.1405  -18.5033   23.2116 C.3     1  UNL1        0.0209
     11 C          -9.6557  -18.0660   23.6397 C.3     1  UNL1        0.0723
     12 C          -7.4121  -18.9862   22.3433 C.3     1  UNL1        0.1428
     13 N          -6.1687  -18.1492   22.4017 N.am    1  UNL1       -0.2213
     14 C          -4.8527  -18.4794   21.7622 C.ar    1  UNL1        0.0603
     15 C          -4.6409  -19.8249   21.1337 C.ar    1  UNL1        0.0183
     16 C          -3.3249  -20.1550   20.4941 C.ar    1  UNL1        0.0415
     17 C          -2.2208  -19.1398   20.4831 C.ar    1  UNL1        0.1765
     18 C          -2.4326  -17.7945   21.1115 C.ar    1  UNL1        0.1777
     19 C          -3.7486  -17.4642   21.7511 C.ar    1  UNL1        0.0552
     20 O          -1.1691  -17.0025   20.9484 O.3     1  UNL1       -0.4346
     21 C          -0.1764  -17.8585   20.2192 C.3     1  UNL1        0.4294
     22 O          -0.8263  -19.1794   19.9316 O.3     1  UNL1       -0.4346
@<TRIPOS>BOND
     1     1     2    2
     2     2     3    1
     3     3     4    1
     4     4     5    1
     5     5     6    1
     6     6     7    1
     7     7     8    1
     8     8     9    1
     9     9    10    1
    10    10    11    1
    11     4    12    1
    12    12    13    1
    13    13    14    1
    14    14    15   ar
    15    15    16   ar
    16    16    17   ar
    17    17    18   ar
    18    18    19   ar
    19    18    20    1
    20    20    21    1
    21    21    22    1
    22    13     2   am
    23    19    14   ar
    24     9     4    1
    25    22    17    1
    26    11     6    1
@<TRIPOS>MOLECULE
*****
 22 26 0 0 0
SMALL
GASTEIGER

@<TRIPOS>ATOM
      1 O         -16.1845   -4.7755   19.7293 O.2     1  UNL1       -0.2258
      2 C         -14.9160   -5.5028   19.3951 C.2     1  UNL1        0.4086
      3 O         -13.5320   -4.9258   19.4355 O.3     1  UNL1       -0.4384
      4 C         -12.5692   -6.0012   19.0272 C.3     1  UNL1        0.1706
      5 C         -11.9172   -4.6903   19.3534 C.3     1  UNL1        0.1145
      6 N         -10.4271   -4.5489   19.2551 N.3     1  UNL1       -0.2697
      7 C          -9.5891   -5.7183   18.8307 C.3     1  UNL1        0.0723
      8 C         -10.2412   -7.0292   18.5046 C.3     1  UNL1        0.0209
      9 C         -11.7312   -7.1706   18.6029 C.3     1  UNL1        0.0427
     10 C         -11.8739   -5.9352   18.9814 C.3     1  UNL1        0.0209
     11 C         -11.5261   -5.2361   19.1553 C.3     1  UNL1        0.0723
     12 C         -13.3583   -7.2428   18.7344 C.3     1  UNL1        0.1428
     13 N         -14.8086   -6.9349   18.9618 N.am    1  UNL1       -0.2213
     14 C         -15.9510   -7.8910   18.7866 C.ar    1  UNL1        0.0603
     15 C         -16.3389   -8.8095   19.9072 C.ar    1  UNL1        0.0183
     16 C         -17.4813   -9.7656   19.7320 C.ar    1  UNL1        0.0415
     17 C         -18.2357   -9.8033   18.4361 C.ar    1  UNL1        0.1765
     18 C         -17.8478   -8.8849   17.3155 C.ar    1  UNL1        0.1777
     19 C         -16.7054   -7.9287   17.4907 C.ar    1  UNL1        0.0552
     20 O         -18.7695   -9.1467   16.1613 O.3     1  UNL1       -0.4346
     21 C         -19.7270  -10.2270   16.5686 C.3     1  UNL1        0.4294
     22 O         -19.3972  -10.6328   17.9745 O.3     1  UNL1       -0.4346
@<TRIPOS>BOND
     1     1     2    2
     2     2     3    1
     3     3     4    1
     4     4     5    1
     5     5     6    1
     6     6     7    1
     7     7     8    1
     8     8     9    1
     9     9    10    1
    10    10    11    1
    11     4    12    1
    12    12    13    1
    13    13    14    1
    14    14    15   ar
    15    15    16   ar
    16    16    17   ar
    17    17    18   ar
    18    18    19   ar
    19    18    20    1
    20    20    21    1
    21    21    22    1
    22    13     2   am
    23    19    14   ar
    24     9     4    1
    25    22    17    1
    26    11     6    1
@<TRIPOS>MOLECULE
*****
 22 26 0 0 0
SMALL
GASTEIGER

@<TRIPOS>ATOM
      1 O         -14.5822   -4.7266   20.0605 O.2     1  UNL1       -0.2258
      2 C         -14.6742   -6.1158   19.5021 C.2     1  UNL1        0.4086
      3 O         -15.8224   -7.0641   19.6821 O.3     1  UNL1       -0.4384
      4 C         -15.4921   -8.3350   18.9570 C.3     1  UNL1        0.1706
      5 C         -16.8274   -8.3518   19.6400 C.3     1  UNL1        0.1145
      6 N         -17.6968   -9.5713   19.5575 N.3     1  UNL1       -0.2697
      7 C         -17.2308  -10.7742   18.7920 C.3     1  UNL1        0.0723
      8 C         -15.8955  -10.7574   18.1090 C.3     1  UNL1        0.0209
      9 C         -15.0261   -9.5378   18.1915 C.3     1  UNL1        0.0427
     10 C         -15.8978   -8.9041   18.9185 C.3     1  UNL1        0.0209
     11 C         -16.6099   -8.9131   19.2828 C.3     1  UNL1        0.0723
     12 C         -14.1397   -8.1721   18.3289 C.3     1  UNL1        0.1428
     13 N         -13.6342   -6.8006   18.6658 N.am    1  UNL1       -0.2213
     14 C         -12.3196   -6.2164   18.2409 C.ar    1  UNL1        0.0603
     15 C         -11.0368   -6.8355   18.7111 C.ar    1  UNL1        0.0183
     16 C          -9.7222   -6.2514   18.2862 C.ar    1  UNL1        0.0415
     17 C          -9.6904   -5.0481   17.3912 C.ar    1  UNL1        0.1765
     18 C         -10.9732   -4.4290   16.9210 C.ar    1  UNL1        0.1777
     19 C         -12.2878   -5.0132   17.3459 C.ar    1  UNL1        0.0552
     20 O         -10.6303   -3.2562   16.0509 O.3     1  UNL1       -0.4346
     21 C          -9.1356   -3.1505   15.9833 C.3     1  UNL1        0.4294
     22 O          -8.5547   -4.2579   16.8116 O.3     1  UNL1       -0.4346
@<TRIPOS>BOND
     1     1     2    2
     2     2     3    1
     3     3     4    1
     4     4     5    1
     5     5     6    1
     6     6     7    1
     7     7     8    1
     8     8     9    1
     9     9    10    1
    10    10    11    1
    11     4    12    1
    12    12    13    1
    13    13    14    1
    14    14    15   ar
    15    15    16   ar
    16    16    17   ar
    17    17    18   ar
    18    18    19   ar
    19    18    20    1
    20    20    21    1
    21    21    22    1
    22    13     2   am
    23    19    14   ar
    24     9     4    1
    25    22    17    1
    26    11     6    1
