@<TRIPOS>MOLECULE
*****
 38 41 0 0 0
SMALL
GASTEIGER

@<TRIPOS>ATOM
      1 C         -11.1841  -15.2491   18.9865 C.3     1  UNL1        0.0214
      2 C         -11.2759  -16.4337   19.9020 C.3     1  UNL1        0.0770
      3 N         -10.4999  -17.6803   19.5957 N.am    1  UNL1       -0.2902
      4 C          -9.1874  -17.9330   20.2766 C.2     1  UNL1        0.3044
      5 O          -8.6510  -16.9392   21.2637 O.2     1  UNL1       -0.2525
      6 N          -8.4114  -19.1796   19.9703 N.am    1  UNL1       -0.2683
      7 H         -10.8519  -18.3326   18.9478 H       1  UNL1        0.1509
      8 H          -8.7635  -19.8319   19.3224 H       1  UNL1        0.1564
      9 C          -7.0990  -19.4323   20.6511 C.ar    1  UNL1        0.0517
     10 C          -7.0447  -20.2901   21.8805 C.ar    1  UNL1        0.0147
     11 C          -5.7323  -20.5428   22.5614 C.ar    1  UNL1        0.0014
     12 C          -4.4741  -19.9378   22.0129 C.ar    1  UNL1        0.0031
     13 C          -4.5283  -19.0801   20.7836 C.ar    1  UNL1        0.0354
     14 C          -5.8407  -18.8273   20.1027 C.ar    1  UNL1        0.0177
     15 C          -3.2700  -18.4751   20.2351 C.ar    1  UNL1        0.1440
     16 N          -2.6527  -18.7809   18.9026 N.ar    1  UNL1       -0.2252
     17 C          -1.4093  -17.9529   18.7668 C.ar    1  UNL1        0.1192
     18 C          -1.2582  -17.1353   20.0153 C.ar    1  UNL1        0.0980
     19 N          -2.4082  -17.4581   20.9228 N.ar    1  UNL1       -0.3082
     20 C          -2.6532  -16.8675   22.2796 C.3     1  UNL1        0.1320
     21 C         -12.1438  -16.3718   21.1239 C.3     1  UNL1        0.0661
     22 C         -12.5854  -17.6384   21.7952 C.3     1  UNL1        0.1738
     23 O         -13.9608  -18.1809   21.5425 O.3     1  UNL1       -0.3697
     24 H         -14.0840  -18.9986   22.0496 H       1  UNL1        0.2119
     25 N         -11.6516  -18.3625   22.7192 N.3     1  UNL1       -0.2511
     26 C         -11.2238  -19.7655   22.4049 C.3     1  UNL1        0.0742
     27 C         -10.2901  -20.4895   23.3289 C.3     1  UNL1        0.0175
     28 C          -9.7840  -19.8106   24.5671 C.3     1  UNL1        0.0031
     29 C         -10.2117  -18.4077   24.8813 C.3     1  UNL1        0.0205
     30 C         -11.1455  -17.6836   23.9573 C.3     1  UNL1        0.0745
     31 C          -9.7057  -17.7288   26.1194 C.3     1  UNL1        0.0277
     32 C          -8.4795  -16.8673   26.0545 C.ar    1  UNL1       -0.0220
     33 C          -7.8629  -16.5391   24.7270 C.ar    1  UNL1       -0.0020
     34 C          -6.6367  -15.6775   24.6621 C.ar    1  UNL1        0.0293
     35 C          -6.0272  -15.1442   25.9246 C.ar    1  UNL1        0.1401
     36 F          -4.8009  -14.2826   25.8597 F       1  UNL1       -0.2042
     37 C          -6.6437  -15.4724   27.2521 C.ar    1  UNL1        0.0293
     38 C          -7.8699  -16.3339   27.3170 C.ar    1  UNL1       -0.0020
@<TRIPOS>BOND
     1     2     1    1
     2     2    21    1
     3    21    22    1
     4    22    23    1
     5    22    25    1
     6    25    26    1
     7    26    27    1
     8    27    28    1
     9    28    29    1
    10    29    31    1
    11    31    32    1
    12    32    33   ar
    13    33    34   ar
    14    34    35   ar
    15    35    36    1
    16    35    37   ar
    17    37    38   ar
    18    29    30    1
    19     2     3    1
    20     3     4   am
    21     4     5    2
    22     4     6   am
    23     6     9    1
    24     9    10   ar
    25    10    11   ar
    26    11    12   ar
    27    12    13   ar
    28    13    15    1
    29    15    16   ar
    30    16    17   ar
    31    17    18   ar
    32    18    19   ar
    33    19    20    1
    34    13    14   ar
    35    30    25    1
    36    14     9   ar
    37    38    32   ar
    38    19    15   ar
    39    23    24    1
    40     3     7    1
    41     6     8    1
@<TRIPOS>MOLECULE
*****
 38 41 0 0 0
SMALL
GASTEIGER

@<TRIPOS>ATOM
      1 C          -5.3009  -15.5292   25.6886 C.3     1  UNL1        0.0214
      2 C          -5.1276  -15.8422   24.2319 C.3     1  UNL1        0.0770
      3 N          -5.9905  -15.1620   23.2108 N.am    1  UNL1       -0.2902
      4 C          -7.3510  -15.7087   22.8946 C.2     1  UNL1        0.3044
      5 O          -7.8487  -16.9356   23.5995 O.2     1  UNL1       -0.2525
      6 N          -8.2139  -15.0285   21.8734 N.am    1  UNL1       -0.2683
      7 H          -5.6638  -14.3568   22.7481 H       1  UNL1        0.1509
      8 H          -7.8872  -14.2233   21.4107 H       1  UNL1        0.1564
      9 C          -9.5744  -15.5752   21.5572 C.ar    1  UNL1        0.0517
     10 C         -10.1508  -15.4040   20.1829 C.ar    1  UNL1        0.0147
     11 C         -11.5113  -15.9506   19.8667 C.ar    1  UNL1        0.0014
     12 C         -12.2956  -16.6686   20.9247 C.ar    1  UNL1        0.0031
     13 C         -11.7193  -16.8399   22.2989 C.ar    1  UNL1        0.0354
     14 C         -10.3587  -16.2932   22.6152 C.ar    1  UNL1        0.0177
     15 C         -12.5036  -17.5579   23.3570 C.ar    1  UNL1        0.1440
     16 N         -13.9820  -17.4480   23.5857 N.ar    1  UNL1       -0.2252
     17 C         -14.3392  -18.3341   24.7421 C.ar    1  UNL1        0.1192
     18 C         -13.0817  -18.9916   25.2281 C.ar    1  UNL1        0.0980
     19 N         -11.9472  -18.5119   24.3720 N.ar    1  UNL1       -0.3082
     20 C         -10.5088  -18.9154   24.5073 C.3     1  UNL1        0.1320
     21 C          -4.0914  -16.8356   23.7963 C.3     1  UNL1        0.0661
     22 C          -3.4221  -16.6851   22.4624 C.3     1  UNL1        0.1738
     23 O          -2.7064  -15.4116   22.1218 O.3     1  UNL1       -0.3697
     24 H          -2.3329  -15.4795   21.2291 H       1  UNL1        0.2119
     25 N          -3.4686  -17.8081   21.4690 N.3     1  UNL1       -0.2511
     26 C          -2.3754  -17.9561   20.4527 C.3     1  UNL1        0.0742
     27 C          -2.4218  -19.0791   19.4594 C.3     1  UNL1        0.0175
     28 C          -3.5615  -20.0541   19.4824 C.3     1  UNL1        0.0031
     29 C          -4.6547  -19.9061   20.4988 C.3     1  UNL1        0.0205
     30 C          -4.6083  -18.7831   21.4921 C.3     1  UNL1        0.0745
     31 C          -5.7944  -20.8811   20.5218 C.3     1  UNL1        0.0277
     32 C          -7.1768  -20.4276   20.1568 C.ar    1  UNL1       -0.0220
     33 C          -7.9601  -19.5703   21.1063 C.ar    1  UNL1       -0.0020
     34 C          -9.3425  -19.1169   20.7413 C.ar    1  UNL1        0.0293
     35 C          -9.9417  -19.5207   19.4268 C.ar    1  UNL1        0.1401
     36 F         -11.3242  -19.0672   19.0618 F       1  UNL1       -0.2042
     37 C          -9.1585  -20.3780   18.4773 C.ar    1  UNL1        0.0293
     38 C          -7.7760  -20.8315   18.8423 C.ar    1  UNL1       -0.0020
@<TRIPOS>BOND
     1     2     1    1
     2     2    21    1
     3    21    22    1
     4    22    23    1
     5    22    25    1
     6    25    26    1
     7    26    27    1
     8    27    28    1
     9    28    29    1
    10    29    31    1
    11    31    32    1
    12    32    33   ar
    13    33    34   ar
    14    34    35   ar
    15    35    36    1
    16    35    37   ar
    17    37    38   ar
    18    29    30    1
    19     2     3    1
    20     3     4   am
    21     4     5    2
    22     4     6   am
    23     6     9    1
    24     9    10   ar
    25    10    11   ar
    26    11    12   ar
    27    12    13   ar
    28    13    15    1
    29    15    16   ar
    30    16    17   ar
    31    17    18   ar
    32    18    19   ar
    33    19    20    1
    34    13    14   ar
    35    30    25    1
    36    14     9   ar
    37    38    32   ar
    38    19    15   ar
    39    23    24    1
    40     3     7    1
    41     6     8    1
@<TRIPOS>MOLECULE
*****
 38 41 0 0 0
SMALL
GASTEIGER

@<TRIPOS>ATOM
      1 C          -6.8340  -14.5227   27.8454 C.3     1  UNL1        0.0214
      2 C          -6.5614  -15.6219   26.8619 C.3     1  UNL1        0.0770
      3 N          -7.4813  -16.8042   26.7844 N.am    1  UNL1       -0.2902
      4 C          -8.6475  -16.7865   25.8413 C.2     1  UNL1        0.3044
      5 O          -8.8938  -15.5865   24.9757 O.2     1  UNL1       -0.2525
      6 N          -9.5674  -17.9687   25.7638 N.am    1  UNL1       -0.2683
      7 H          -7.3196  -17.5917   27.3526 H       1  UNL1        0.1509
      8 H          -9.4058  -18.7563   26.3320 H       1  UNL1        0.1564
      9 C         -10.7337  -17.9510   24.8207 C.ar    1  UNL1        0.0517
     10 C         -12.0094  -18.6472   25.1923 C.ar    1  UNL1        0.0147
     11 C         -13.1756  -18.6295   24.2491 C.ar    1  UNL1        0.0014
     12 C         -13.0662  -17.9157   22.9345 C.ar    1  UNL1        0.0031
     13 C         -11.7906  -17.2195   22.5629 C.ar    1  UNL1        0.0354
     14 C         -10.6243  -17.2372   23.5060 C.ar    1  UNL1        0.0177
     15 C         -11.6813  -16.5056   21.2482 C.ar    1  UNL1        0.1440
     16 N         -12.7587  -16.4002   20.2098 N.ar    1  UNL1       -0.2252
     17 C         -12.2185  -15.6012   19.0609 C.ar    1  UNL1        0.1192
     18 C         -10.8074  -15.2129   19.3892 C.ar    1  UNL1        0.0980
     19 N         -10.4753  -15.7719   20.7410 N.ar    1  UNL1       -0.3082
     20 C          -9.1670  -15.6231   21.4594 C.3     1  UNL1        0.1320
     21 C          -5.3688  -15.5389   25.9558 C.3     1  UNL1        0.0661
     22 C          -5.5564  -15.5341   24.4677 C.3     1  UNL1        0.1738
     23 O          -6.3886  -14.4673   23.8201 O.3     1  UNL1       -0.3697
     24 H          -6.4071  -14.6094   22.8607 H       1  UNL1        0.2119
     25 N          -4.9119  -16.5962   23.6270 N.3     1  UNL1       -0.2511
     26 C          -3.4716  -16.4662   23.2287 C.3     1  UNL1        0.0742
     27 C          -2.8272  -17.5282   22.3881 C.3     1  UNL1        0.0175
     28 C          -3.6230  -18.7203   21.9457 C.3     1  UNL1        0.0031
     29 C          -5.0633  -18.8503   22.3440 C.3     1  UNL1        0.0205
     30 C          -5.7077  -17.7882   23.1846 C.3     1  UNL1        0.0745
     31 C          -5.8591  -20.0423   21.9016 C.3     1  UNL1        0.0277
     32 C          -7.1753  -19.8500   21.2084 C.ar    1  UNL1       -0.0220
     33 C          -7.2189  -19.6586   19.7212 C.ar    1  UNL1       -0.0020
     34 C          -8.5351  -19.4664   19.0280 C.ar    1  UNL1        0.0293
     35 C          -9.8078  -19.4655   19.8218 C.ar    1  UNL1        0.1401
     36 F         -11.1240  -19.2733   19.1285 F       1  UNL1       -0.2042
     37 C          -9.7643  -19.6569   21.3089 C.ar    1  UNL1        0.0293
     38 C          -8.4480  -19.8492   22.0022 C.ar    1  UNL1       -0.0020
@<TRIPOS>BOND
     1     2     1    1
     2     2    21    1
     3    21    22    1
     4    22    23    1
     5    22    25    1
     6    25    26    1
     7    26    27    1
     8    27    28    1
     9    28    29    1
    10    29    31    1
    11    31    32    1
    12    32    33   ar
    13    33    34   ar
    14    34    35   ar
    15    35    36    1
    16    35    37   ar
    17    37    38   ar
    18    29    30    1
    19     2     3    1
    20     3     4   am
    21     4     5    2
    22     4     6   am
    23     6     9    1
    24     9    10   ar
    25    10    11   ar
    26    11    12   ar
    27    12    13   ar
    28    13    15    1
    29    15    16   ar
    30    16    17   ar
    31    17    18   ar
    32    18    19   ar
    33    19    20    1
    34    13    14   ar
    35    30    25    1
    36    14     9   ar
    37    38    32   ar
    38    19    15   ar
    39    23    24    1
    40     3     7    1
    41     6     8    1
@<TRIPOS>MOLECULE
*****
 38 41 0 0 0
SMALL
GASTEIGER

@<TRIPOS>ATOM
      1 C         -10.1194  -20.9463   24.8093 C.3     1  UNL1        0.0214
      2 C         -10.6766  -19.8553   23.9438 C.3     1  UNL1        0.0770
      3 N         -10.1465  -19.6552   22.5549 N.am    1  UNL1       -0.2902
      4 C          -8.6928  -19.8863   22.2665 C.2     1  UNL1        0.3044
      5 O          -7.7692  -20.3175   23.3669 O.2     1  UNL1       -0.2525
      6 N          -8.1628  -19.6862   20.8776 N.am    1  UNL1       -0.2683
      7 H         -10.7528  -19.3723   21.8327 H       1  UNL1        0.1509
      8 H          -8.7690  -19.4033   20.1553 H       1  UNL1        0.1564
      9 C          -6.7090  -19.9173   20.5891 C.ar    1  UNL1        0.0517
     10 C          -6.2593  -21.2218   20.0007 C.ar    1  UNL1        0.0147
     11 C          -4.8056  -21.4529   19.7122 C.ar    1  UNL1        0.0014
     12 C          -3.8016  -20.3795   20.0121 C.ar    1  UNL1        0.0031
     13 C          -4.2513  -19.0751   20.6004 C.ar    1  UNL1        0.0354
     14 C          -5.7050  -18.8440   20.8889 C.ar    1  UNL1        0.0177
     15 C          -3.2473  -18.0018   20.9003 C.ar    1  UNL1        0.1440
     16 N          -3.1832  -17.1796   22.1533 N.ar    1  UNL1       -0.2252
     17 C          -2.0274  -16.2318   22.0272 C.ar    1  UNL1        0.1192
     18 C          -1.3771  -16.4683   20.6963 C.ar    1  UNL1        0.0980
     19 N          -2.1311  -17.5621   19.9998 N.ar    1  UNL1       -0.3082
     20 C          -1.8229  -18.1187   18.6414 C.3     1  UNL1        0.1320
     21 C         -11.7639  -18.9642   24.4672 C.3     1  UNL1        0.0661
     22 C         -12.5089  -18.0604   23.5303 C.3     1  UNL1        0.1738
     23 O         -14.0055  -17.9822   23.5950 O.3     1  UNL1       -0.3697
     24 H         -14.3258  -17.3565   22.9265 H       1  UNL1        0.2119
     25 N         -11.7574  -17.2347   22.5285 N.3     1  UNL1       -0.2511
     26 C         -12.3761  -16.9232   21.1980 C.3     1  UNL1        0.0742
     27 C         -11.6245  -16.0976   20.1963 C.3     1  UNL1        0.0175
     28 C         -10.2543  -15.5835   20.5250 C.3     1  UNL1        0.0031
     29 C          -9.6355  -15.8950   21.8555 C.3     1  UNL1        0.0205
     30 C         -10.3871  -16.7206   22.8572 C.3     1  UNL1        0.0745
     31 C          -8.2653  -15.3809   22.1842 C.3     1  UNL1        0.0277
     32 C          -7.7721  -15.4126   23.6004 C.ar    1  UNL1       -0.0220
     33 C          -6.2988  -15.3977   23.8821 C.ar    1  UNL1       -0.0020
     34 C          -5.8056  -15.4295   25.2983 C.ar    1  UNL1        0.0293
     35 C          -6.7857  -15.4762   26.4329 C.ar    1  UNL1        0.1401
     36 F          -6.2924  -15.5079   27.8492 F       1  UNL1       -0.2042
     37 C          -8.2589  -15.4911   26.1513 C.ar    1  UNL1        0.0293
     38 C          -8.7521  -15.4593   24.7350 C.ar    1  UNL1       -0.0020
@<TRIPOS>BOND
     1     2     1    1
     2     2    21    1
     3    21    22    1
     4    22    23    1
     5    22    25    1
     6    25    26    1
     7    26    27    1
     8    27    28    1
     9    28    29    1
    10    29    31    1
    11    31    32    1
    12    32    33   ar
    13    33    34   ar
    14    34    35   ar
    15    35    36    1
    16    35    37   ar
    17    37    38   ar
    18    29    30    1
    19     2     3    1
    20     3     4   am
    21     4     5    2
    22     4     6   am
    23     6     9    1
    24     9    10   ar
    25    10    11   ar
    26    11    12   ar
    27    12    13   ar
    28    13    15    1
    29    15    16   ar
    30    16    17   ar
    31    17    18   ar
    32    18    19   ar
    33    19    20    1
    34    13    14   ar
    35    30    25    1
    36    14     9   ar
    37    38    32   ar
    38    19    15   ar
    39    23    24    1
    40     3     7    1
    41     6     8    1
@<TRIPOS>MOLECULE
*****
 38 41 0 0 0
SMALL
GASTEIGER

@<TRIPOS>ATOM
      1 C         -11.2254  -20.0913   20.4477 C.3     1  UNL1        0.0214
      2 C         -10.5010  -19.0266   19.6786 C.3     1  UNL1        0.0770
      3 N          -9.1264  -19.2937   19.1408 N.am    1  UNL1       -0.2902
      4 C          -7.9439  -19.2774   20.0635 C.2     1  UNL1        0.3044
      5 O          -8.1359  -18.9940   21.5239 O.2     1  UNL1       -0.2525
      6 N          -6.5693  -19.5444   19.5257 N.am    1  UNL1       -0.2683
      7 H          -9.0004  -19.4796   18.1823 H       1  UNL1        0.1509
      8 H          -6.4432  -19.7304   18.5672 H       1  UNL1        0.1564
      9 C          -5.3867  -19.5282   20.4483 C.ar    1  UNL1        0.0517
     10 C          -5.4842  -20.1633   21.8038 C.ar    1  UNL1        0.0147
     11 C          -4.3016  -20.1470   22.7264 C.ar    1  UNL1        0.0014
     12 C          -3.0216  -19.4956   22.2937 C.ar    1  UNL1        0.0031
     13 C          -2.9241  -18.8605   20.9383 C.ar    1  UNL1        0.0354
     14 C          -4.1067  -18.8768   20.0156 C.ar    1  UNL1        0.0177
     15 C          -1.6441  -18.2092   20.5055 C.ar    1  UNL1        0.1440
     16 N          -0.5832  -18.8333   19.6481 N.ar    1  UNL1       -0.2252
     17 C           0.5163  -17.8291   19.4669 C.ar    1  UNL1        0.1192
     18 C           0.1350  -16.5845   20.2123 C.ar    1  UNL1        0.0980
     19 N          -1.2002  -16.8194   20.8542 N.ar    1  UNL1       -0.3082
     20 C          -1.9584  -15.8370   21.6968 C.3     1  UNL1        0.1320
     21 C         -11.1512  -17.6947   19.4472 C.3     1  UNL1        0.0661
     22 C         -11.3498  -16.7479   20.5935 C.3     1  UNL1        0.1738
     23 O         -11.1590  -15.2740   20.3906 O.3     1  UNL1       -0.3697
     24 H         -11.3249  -14.8085   21.2253 H       1  UNL1        0.2119
     25 N         -11.7393  -17.2749   21.9428 N.3     1  UNL1       -0.2511
     26 C         -13.1853  -17.5035   22.2699 C.3     1  UNL1        0.0742
     27 C         -13.5747  -18.0305   23.6192 C.3     1  UNL1        0.0175
     28 C         -12.5183  -18.3290   24.6413 C.3     1  UNL1        0.0031
     29 C         -11.0723  -18.1004   24.3142 C.3     1  UNL1        0.0205
     30 C         -10.6829  -17.5734   22.9650 C.3     1  UNL1        0.0745
     31 C         -10.0159  -18.3989   25.3364 C.3     1  UNL1        0.0277
     32 C          -8.9358  -17.3957   25.6136 C.ar    1  UNL1       -0.0220
     33 C          -8.1888  -16.7642   24.4764 C.ar    1  UNL1       -0.0020
     34 C          -7.1088  -15.7610   24.7536 C.ar    1  UNL1        0.0293
     35 C          -6.7756  -15.3892   26.1681 C.ar    1  UNL1        0.1401
     36 F          -5.6954  -14.3859   26.4453 F       1  UNL1       -0.2042
     37 C          -7.5225  -16.0206   27.3053 C.ar    1  UNL1        0.0293
     38 C          -8.6026  -17.0239   27.0281 C.ar    1  UNL1       -0.0020
@<TRIPOS>BOND
     1     2     1    1
     2     2    21    1
     3    21    22    1
     4    22    23    1
     5    22    25    1
     6    25    26    1
     7    26    27    1
     8    27    28    1
     9    28    29    1
    10    29    31    1
    11    31    32    1
    12    32    33   ar
    13    33    34   ar
    14    34    35   ar
    15    35    36    1
    16    35    37   ar
    17    37    38   ar
    18    29    30    1
    19     2     3    1
    20     3     4   am
    21     4     5    2
    22     4     6   am
    23     6     9    1
    24     9    10   ar
    25    10    11   ar
    26    11    12   ar
    27    12    13   ar
    28    13    15    1
    29    15    16   ar
    30    16    17   ar
    31    17    18   ar
    32    18    19   ar
    33    19    20    1
    34    13    14   ar
    35    30    25    1
    36    14     9   ar
    37    38    32   ar
    38    19    15   ar
    39    23    24    1
    40     3     7    1
    41     6     8    1
@<TRIPOS>MOLECULE
*****
 38 41 0 0 0
SMALL
GASTEIGER

@<TRIPOS>ATOM
      1 C           9.1956   -4.9475   31.3651 C.3     1  UNL1        0.0214
      2 C           7.7980   -5.3417   30.9893 C.3     1  UNL1        0.0770
      3 N           6.6575   -5.0332   31.9133 N.am    1  UNL1       -0.2902
      4 C           6.1838   -3.6190   32.0739 C.2     1  UNL1        0.3044
      5 O           6.8507   -2.5135   31.3104 O.2     1  UNL1       -0.2525
      6 N           5.0432   -3.3105   32.9980 N.am    1  UNL1       -0.2683
      7 H           6.2198   -5.7588   32.4145 H       1  UNL1        0.1509
      8 H           4.6055   -4.0361   33.4991 H       1  UNL1        0.1564
      9 C           4.5696   -1.8963   33.1585 C.ar    1  UNL1        0.0517
     10 C           4.8980   -1.1325   34.4070 C.ar    1  UNL1        0.0147
     11 C           4.4243    0.2816   34.5676 C.ar    1  UNL1        0.0014
     12 C           3.6222    0.9320   33.4797 C.ar    1  UNL1        0.0031
     13 C           3.2937    0.1682   32.2312 C.ar    1  UNL1        0.0354
     14 C           3.7674   -1.2460   32.0706 C.ar    1  UNL1        0.0177
     15 C           2.4915    0.8186   31.1433 C.ar    1  UNL1        0.1440
     16 N           1.0706    1.2862   31.2549 N.ar    1  UNL1       -0.2252
     17 C           0.6704    1.8722   29.9333 C.ar    1  UNL1        0.1192
     18 C           1.8439    1.7667   29.0050 C.ar    1  UNL1        0.0980
     19 N           2.9694    1.1156   29.7528 N.ar    1  UNL1       -0.3082
     20 C           4.3333    0.8143   29.2061 C.3     1  UNL1        0.1320
     21 C           7.5410   -6.0446   29.6892 C.3     1  UNL1        0.0661
     22 C           7.0723   -5.2663   28.4957 C.3     1  UNL1        0.1738
     23 O           6.2843   -4.0042   28.6856 O.3     1  UNL1       -0.3697
     24 H           6.0619   -3.6285   27.8194 H       1  UNL1        0.2119
     25 N           7.3916   -5.7502   27.1122 N.3     1  UNL1       -0.2511
     26 C           7.5548   -7.2180   26.8500 C.3     1  UNL1        0.0742
     27 C           7.8742   -7.7018   25.4666 C.3     1  UNL1        0.0175
     28 C           8.0303   -6.7177   24.3453 C.3     1  UNL1        0.0031
     29 C           7.8671   -5.2499   24.6075 C.3     1  UNL1        0.0205
     30 C           7.5478   -4.7661   25.9909 C.3     1  UNL1        0.0745
     31 C           8.0232   -4.2658   23.4862 C.3     1  UNL1        0.0277
     32 C           6.8819   -4.0121   22.5466 C.ar    1  UNL1       -0.0220
     33 C           7.1122   -4.0306   21.0645 C.ar    1  UNL1       -0.0020
     34 C           5.9709   -3.7769   20.1249 C.ar    1  UNL1        0.0293
     35 C           4.5991   -3.5048   20.6673 C.ar    1  UNL1        0.1401
     36 F           3.4577   -3.2511   19.7276 F       1  UNL1       -0.2042
     37 C           4.3687   -3.4863   22.1494 C.ar    1  UNL1        0.0293
     38 C           5.5101   -3.7400   23.0891 C.ar    1  UNL1       -0.0020
@<TRIPOS>BOND
     1     2     1    1
     2     2    21    1
     3    21    22    1
     4    22    23    1
     5    22    25    1
     6    25    26    1
     7    26    27    1
     8    27    28    1
     9    28    29    1
    10    29    31    1
    11    31    32    1
    12    32    33   ar
    13    33    34   ar
    14    34    35   ar
    15    35    36    1
    16    35    37   ar
    17    37    38   ar
    18    29    30    1
    19     2     3    1
    20     3     4   am
    21     4     5    2
    22     4     6   am
    23     6     9    1
    24     9    10   ar
    25    10    11   ar
    26    11    12   ar
    27    12    13   ar
    28    13    15    1
    29    15    16   ar
    30    16    17   ar
    31    17    18   ar
    32    18    19   ar
    33    19    20    1
    34    13    14   ar
    35    30    25    1
    36    14     9   ar
    37    38    32   ar
    38    19    15   ar
    39    23    24    1
    40     3     7    1
    41     6     8    1
@<TRIPOS>MOLECULE
*****
 38 41 0 0 0
SMALL
GASTEIGER

@<TRIPOS>ATOM
      1 C           9.2151   -5.0705   31.3924 C.3     1  UNL1        0.0214
      2 C           7.8270   -5.4473   30.9670 C.3     1  UNL1        0.0770
      3 N           6.6606   -5.1442   31.8600 N.am    1  UNL1       -0.2902
      4 C           6.2119   -3.7259   32.0523 C.2     1  UNL1        0.3044
      5 O           6.9296   -2.6107   31.3515 O.2     1  UNL1       -0.2525
      6 N           5.0454   -3.4227   32.9453 N.am    1  UNL1       -0.2683
      7 H           6.1895   -5.8761   32.3199 H       1  UNL1        0.1509
      8 H           4.5743   -4.1547   33.4053 H       1  UNL1        0.1564
      9 C           4.5967   -2.0044   33.1376 C.ar    1  UNL1        0.0517
     10 C           3.8460   -1.3007   32.0461 C.ar    1  UNL1        0.0147
     11 C           3.3974    0.1176   32.2383 C.ar    1  UNL1        0.0014
     12 C           3.6993    0.8323   33.5221 C.ar    1  UNL1        0.0031
     13 C           4.4500    0.1287   34.6136 C.ar    1  UNL1        0.0354
     14 C           4.8987   -1.2897   34.4213 C.ar    1  UNL1        0.0177
     15 C           4.7520    0.8434   35.8973 C.ar    1  UNL1        0.1440
     16 N           3.8864    0.8590   37.1224 N.ar    1  UNL1       -0.2252
     17 C           4.5721    1.6933   38.1636 C.ar    1  UNL1        0.1192
     18 C           5.8612    2.1931   37.5821 C.ar    1  UNL1        0.0980
     19 N           5.9724    1.6679   36.1815 N.ar    1  UNL1       -0.3082
     20 C           7.1052    1.9224   35.2317 C.3     1  UNL1        0.1320
     21 C           7.6052   -6.1272   29.6484 C.3     1  UNL1        0.0661
     22 C           7.1087   -5.3395   28.4724 C.3     1  UNL1        0.1738
     23 O           6.3054   -4.0917   28.6908 O.3     1  UNL1       -0.3697
     24 H           6.0654   -3.7074   27.8332 H       1  UNL1        0.2119
     25 N           7.4156   -5.7994   27.0780 N.3     1  UNL1       -0.2511
     26 C           7.5760   -7.2625   26.7891 C.3     1  UNL1        0.0742
     27 C           7.8828   -7.7224   25.3948 C.3     1  UNL1        0.0175
     28 C           8.0293   -6.7192   24.2893 C.3     1  UNL1        0.0031
     29 C           7.8690   -5.2561   24.5782 C.3     1  UNL1        0.0205
     30 C           7.5621   -4.7962   25.9725 C.3     1  UNL1        0.0745
     31 C           8.0155   -4.2528   23.4727 C.3     1  UNL1        0.0277
     32 C           6.8714   -3.9947   22.5377 C.ar    1  UNL1       -0.0220
     33 C           7.0928   -4.0279   21.0544 C.ar    1  UNL1       -0.0020
     34 C           5.9487   -3.7698   20.1194 C.ar    1  UNL1        0.0293
     35 C           4.5832   -3.4785   20.6675 C.ar    1  UNL1        0.1401
     36 F           3.4390   -3.2203   19.7324 F       1  UNL1       -0.2042
     37 C           4.3617   -3.4452   22.1507 C.ar    1  UNL1        0.0293
     38 C           5.5059   -3.7034   23.0858 C.ar    1  UNL1       -0.0020
@<TRIPOS>BOND
     1     2     1    1
     2     2    21    1
     3    21    22    1
     4    22    23    1
     5    22    25    1
     6    25    26    1
     7    26    27    1
     8    27    28    1
     9    28    29    1
    10    29    31    1
    11    31    32    1
    12    32    33   ar
    13    33    34   ar
    14    34    35   ar
    15    35    36    1
    16    35    37   ar
    17    37    38   ar
    18    29    30    1
    19     2     3    1
    20     3     4   am
    21     4     5    2
    22     4     6   am
    23     6     9    1
    24     9    10   ar
    25    10    11   ar
    26    11    12   ar
    27    12    13   ar
    28    13    15    1
    29    15    16   ar
    30    16    17   ar
    31    17    18   ar
    32    18    19   ar
    33    19    20    1
    34    13    14   ar
    35    30    25    1
    36    14     9   ar
    37    38    32   ar
    38    19    15   ar
    39    23    24    1
    40     3     7    1
    41     6     8    1
@<TRIPOS>MOLECULE
*****
 38 41 0 0 0
SMALL
GASTEIGER

@<TRIPOS>ATOM
      1 C           3.1210    2.6900   18.4190 C.3     1  UNL1        0.0214
      2 C           3.3894    1.2208   18.5579 C.3     1  UNL1        0.0770
      3 N           2.6912    0.4282   19.6231 N.am    1  UNL1       -0.2902
      4 C           3.4262    0.0389   20.8713 C.2     1  UNL1        0.3044
      5 O           4.8594    0.4420   21.0544 O.2     1  UNL1       -0.2525
      6 N           2.7281   -0.7536   21.9365 N.am    1  UNL1       -0.2683
      7 H           1.7506    0.1636   19.5029 H       1  UNL1        0.1509
      8 H           1.7875   -1.0182   21.8163 H       1  UNL1        0.1564
      9 C           3.4631   -1.1430   23.1847 C.ar    1  UNL1        0.0517
     10 C           4.5990   -2.1200   23.1123 C.ar    1  UNL1        0.0147
     11 C           5.3340   -2.5094   24.3606 C.ar    1  UNL1        0.0014
     12 C           4.9332   -1.9218   25.6812 C.ar    1  UNL1        0.0031
     13 C           3.7974   -0.9448   25.7536 C.ar    1  UNL1        0.0354
     14 C           3.0623   -0.5554   24.5053 C.ar    1  UNL1        0.0177
     15 C           3.3965   -0.3572   27.0742 C.ar    1  UNL1        0.1440
     16 N           2.7548   -1.0973   28.2102 N.ar    1  UNL1       -0.2252
     17 C           2.5287   -0.1237   29.3288 C.ar    1  UNL1        0.1192
     18 C           3.0306    1.2180   28.8841 C.ar    1  UNL1        0.0980
     19 N           3.5670    1.0737   27.4907 N.ar    1  UNL1       -0.3082
     20 C           4.1682    2.1683   26.6597 C.3     1  UNL1        0.1320
     21 C           4.3559    0.5440   17.6317 C.3     1  UNL1        0.0661
     22 C           4.2085   -0.9183   17.3318 C.3     1  UNL1        0.1738
     23 O           3.5841   -1.3601   16.0415 O.3     1  UNL1       -0.3697
     24 H           3.5656   -2.3293   16.0064 H       1  UNL1        0.2119
     25 N           4.6856   -1.9389   18.3222 N.3     1  UNL1       -0.2511
     26 C           3.7366   -2.9747   18.8480 C.3     1  UNL1        0.0742
     27 C           4.2138   -3.9951   19.8384 C.3     1  UNL1        0.0175
     28 C           5.6399   -3.9798   20.3030 C.3     1  UNL1        0.0031
     29 C           6.5889   -2.9440   19.7772 C.3     1  UNL1        0.0205
     30 C           6.1118   -1.9235   18.7869 C.3     1  UNL1        0.0745
     31 C           8.0151   -2.9287   20.2419 C.3     1  UNL1        0.0277
     32 C           8.3259   -2.8240   21.7056 C.ar    1  UNL1       -0.0220
     33 C           8.4680   -1.4758   22.3476 C.ar    1  UNL1       -0.0020
     34 C           8.7789   -1.3711   23.8112 C.ar    1  UNL1        0.0293
     35 C           8.9476   -2.6146   24.6330 C.ar    1  UNL1        0.1401
     36 F           9.2585   -2.5098   26.0967 F       1  UNL1       -0.2042
     37 C           8.8055   -3.9627   23.9910 C.ar    1  UNL1        0.0293
     38 C           8.4947   -4.0675   22.5273 C.ar    1  UNL1       -0.0020
@<TRIPOS>BOND
     1     2     1    1
     2     2    21    1
     3    21    22    1
     4    22    23    1
     5    22    25    1
     6    25    26    1
     7    26    27    1
     8    27    28    1
     9    28    29    1
    10    29    31    1
    11    31    32    1
    12    32    33   ar
    13    33    34   ar
    14    34    35   ar
    15    35    36    1
    16    35    37   ar
    17    37    38   ar
    18    29    30    1
    19     2     3    1
    20     3     4   am
    21     4     5    2
    22     4     6   am
    23     6     9    1
    24     9    10   ar
    25    10    11   ar
    26    11    12   ar
    27    12    13   ar
    28    13    15    1
    29    15    16   ar
    30    16    17   ar
    31    17    18   ar
    32    18    19   ar
    33    19    20    1
    34    13    14   ar
    35    30    25    1
    36    14     9   ar
    37    38    32   ar
    38    19    15   ar
    39    23    24    1
    40     3     7    1
    41     6     8    1
@<TRIPOS>MOLECULE
*****
 38 41 0 0 0
SMALL
GASTEIGER

@<TRIPOS>ATOM
      1 C           8.6082   -4.6657   25.3079 C.3     1  UNL1        0.0214
      2 C           7.1554   -4.8559   25.6291 C.3     1  UNL1        0.0770
      3 N           6.1229   -3.9846   24.9774 N.am    1  UNL1       -0.2902
      4 C           5.9719   -3.9885   23.4850 C.2     1  UNL1        0.3044
      5 O           6.8535   -4.8638   22.6444 O.2     1  UNL1       -0.2525
      6 N           4.9394   -3.1173   22.8333 N.am    1  UNL1       -0.2683
      7 H           5.5442   -3.4102   25.5291 H       1  UNL1        0.1509
      8 H           4.3607   -2.5428   23.3851 H       1  UNL1        0.1564
      9 C           4.7884   -3.1212   21.3410 C.ar    1  UNL1        0.0517
     10 C           4.1641   -4.2992   20.6533 C.ar    1  UNL1        0.0147
     11 C           4.0132   -4.3031   19.1610 C.ar    1  UNL1        0.0014
     12 C           4.4865   -3.1291   18.3562 C.ar    1  UNL1        0.0031
     13 C           5.1108   -1.9512   19.0437 C.ar    1  UNL1        0.0354
     14 C           5.2618   -1.9472   20.5362 C.ar    1  UNL1        0.0177
     15 C           5.5841   -0.7772   18.2389 C.ar    1  UNL1        0.1440
     16 N           6.7384   -0.7728   17.2809 N.ar    1  UNL1       -0.2252
     17 C           6.8539    0.6057   16.7007 C.ar    1  UNL1        0.1192
     18 C           5.7711    1.4532   17.3001 C.ar    1  UNL1        0.0980
     19 N           4.9864    0.5985   18.2508 N.ar    1  UNL1       -0.3082
     20 C           3.8103    1.0417   19.0696 C.3     1  UNL1        0.1320
     21 C           6.7351   -5.9174   26.6021 C.3     1  UNL1        0.0661
     22 C           7.5018   -6.1129   27.8763 C.3     1  UNL1        0.1738
     23 O           8.5865   -7.1464   27.9480 O.3     1  UNL1       -0.3697
     24 H           8.9783   -7.1430   28.8353 H       1  UNL1        0.2119
     25 N           7.1839   -5.2747   29.0791 N.3     1  UNL1       -0.2511
     26 C           7.2156   -5.8856   30.4486 C.3     1  UNL1        0.0742
     27 C           6.8977   -5.0475   31.6512 C.3     1  UNL1        0.0175
     28 C           6.5481   -3.5984   31.4843 C.3     1  UNL1        0.0031
     29 C           6.5164   -2.9874   30.1148 C.3     1  UNL1        0.0205
     30 C           6.8343   -3.8256   28.9122 C.3     1  UNL1        0.0745
     31 C           6.1668   -1.5383   29.9479 C.3     1  UNL1        0.0277
     32 C           4.7467   -1.1352   29.6817 C.ar    1  UNL1       -0.0220
     33 C           3.8389   -0.7879   30.8243 C.ar    1  UNL1       -0.0020
     34 C           2.4189   -0.3848   30.5581 C.ar    1  UNL1        0.0293
     35 C           1.9065   -0.3290   29.1495 C.ar    1  UNL1        0.1401
     36 F           0.4864    0.0741   28.8833 F       1  UNL1       -0.2042
     37 C           2.8142   -0.6763   28.0069 C.ar    1  UNL1        0.0293
     38 C           4.2344   -1.0794   28.2731 C.ar    1  UNL1       -0.0020
@<TRIPOS>BOND
     1     2     1    1
     2     2    21    1
     3    21    22    1
     4    22    23    1
     5    22    25    1
     6    25    26    1
     7    26    27    1
     8    27    28    1
     9    28    29    1
    10    29    31    1
    11    31    32    1
    12    32    33   ar
    13    33    34   ar
    14    34    35   ar
    15    35    36    1
    16    35    37   ar
    17    37    38   ar
    18    29    30    1
    19     2     3    1
    20     3     4   am
    21     4     5    2
    22     4     6   am
    23     6     9    1
    24     9    10   ar
    25    10    11   ar
    26    11    12   ar
    27    12    13   ar
    28    13    15    1
    29    15    16   ar
    30    16    17   ar
    31    17    18   ar
    32    18    19   ar
    33    19    20    1
    34    13    14   ar
    35    30    25    1
    36    14     9   ar
    37    38    32   ar
    38    19    15   ar
    39    23    24    1
    40     3     7    1
    41     6     8    1
