@<TRIPOS>MOLECULE
*****
 36 40 0 0 0
SMALL
GASTEIGER

@<TRIPOS>ATOM
      1 N           6.7094   -3.3601   20.5105 N.pl3   1  UNL1       -0.2846
      2 C           7.2810   -1.9809   20.3659 C.3     1  UNL1        0.1141
      3 C           6.7668   -1.0643   19.2957 C.3     1  UNL1        0.1149
      4 N           5.6809   -1.5269   18.3702 N.am    1  UNL1       -0.2760
      5 C           5.1666   -0.6103   17.2999 C.2     1  UNL1        0.2257
      6 O           4.0807   -1.0730   16.3743 O.2     1  UNL1       -0.2749
      7 C           5.1092   -2.9062   18.5148 C.3     1  UNL1        0.1149
      8 C           5.6235   -3.8228   19.5850 C.3     1  UNL1        0.1141
      9 C           8.5180   -6.8915   25.5961 C.ar    1  UNL1        0.1063
     10 C           9.2939   -7.6582   24.5665 C.ar    1  UNL1        0.0199
     11 C           9.2365   -7.2478   23.1249 C.ar    1  UNL1        0.0210
     12 C           8.4032   -6.0706   22.7129 C.ar    1  UNL1        0.0893
     13 N           8.1538   -5.4358   21.3769 N.ar    1  UNL1       -0.2241
     14 C           7.2237   -4.2767   21.5808 C.ar    1  UNL1        0.1631
     15 S           6.8983   -4.1952   23.0428 S.2     1  UNL1       -0.0515
     16 C           7.6272   -5.3039   23.7424 C.ar    1  UNL1        0.0510
     17 C           7.6847   -5.7143   25.1841 C.ar    1  UNL1        0.0264
     18 C           8.6329   -7.7123   28.4793 C.3     1  UNL1        0.1816
     19 S           8.5755   -7.3019   27.0377 S.O2    1  UNL1        0.0105
     20 O           9.1728   -5.9724   27.3924 O.2     1  UNL1       -0.1686
     21 O           7.9781   -8.6313   26.6830 O.2     1  UNL1       -0.1686
     22 C           5.7382    0.7689   17.1553 C.3     1  UNL1        0.0853
     23 C           6.9474    0.9934   16.2964 C.3     1  UNL1        0.0096
     24 C           7.5190    2.3726   16.1518 C.3     1  UNL1        0.0005
     25 C           6.8815    3.5274   16.8661 C.3     1  UNL1        0.0005
     26 C           5.6724    3.3029   17.7249 C.3     1  UNL1        0.0096
     27 C           5.1008    1.9237   17.8695 C.3     1  UNL1        0.0851
     28 C           3.8917    1.6992   18.7284 C.2     1  UNL1        0.2231
     29 O           3.8732    2.1984   20.1427 O.2     1  UNL1       -0.2751
     30 N           2.7010    0.9754   18.1729 N.am    1  UNL1       -0.2959
     31 H           2.7131    0.6478   17.2446 H       1  UNL1        0.1502
     32 C           1.4919    0.7509   19.0317 C.3     1  UNL1        0.1364
     33 C           0.5742    0.1200   20.0365 C.3     1  UNL1        0.0353
     34 C           1.9109   -0.4973   19.7502 C.3     1  UNL1        0.0353
     35 C           0.6529    1.9213   18.6115 C.1     1  UNL1        0.0896
     36 N          -0.1860    3.0916   18.1914 N.1     1  UNL1       -0.1943
@<TRIPOS>BOND
     1    18    19    1
     2    19    20    2
     3    19    21    2
     4    19     9    1
     5     9    10   ar
     6    10    11   ar
     7    11    12   ar
     8    12    13   ar
     9    13    14   ar
    10    14     1    1
    11     1     2    1
    12     2     3    1
    13     3     4    1
    14     4     5   am
    15     5     6    2
    16    22     5    1
    17    22    23    1
    18    23    24    1
    19    24    25    1
    20    25    26    1
    21    26    27    1
    22    27    28    1
    23    28    29    2
    24    28    30   am
    25    30    32    1
    26    32    35    1
    27    35    36    3
    28    32    33    1
    29    33    34    1
    30     4     7    1
    31     7     8    1
    32    14    15   ar
    33    15    16   ar
    34    16    17   ar
    35    17     9   ar
    36    16    12   ar
    37     8     1    1
    38    27    22    1
    39    34    32    1
    40    30    31    1
@<TRIPOS>MOLECULE
*****
 36 40 0 0 0
SMALL
GASTEIGER

@<TRIPOS>ATOM
      1 N           5.6814   -2.9843   21.1990 N.pl3   1  UNL1       -0.2846
      2 C           4.9331   -1.7134   21.4729 C.3     1  UNL1        0.1141
      3 C           4.3293   -0.9393   20.3389 C.3     1  UNL1        0.1149
      4 N           4.4737   -1.4361   18.9309 N.am    1  UNL1       -0.2760
      5 C           3.8699   -0.6619   17.7968 C.2     1  UNL1        0.2257
      6 O           4.0143   -1.1587   16.3889 O.2     1  UNL1       -0.2749
      7 C           5.2220   -2.7069   18.6570 C.3     1  UNL1        0.1149
      8 C           5.8259   -3.4810   19.7911 C.3     1  UNL1        0.1141
      9 C           7.8449   -5.9004   26.5301 C.ar    1  UNL1        0.1063
     10 C           8.6760   -6.6805   25.5550 C.ar    1  UNL1        0.0199
     11 C           8.5686   -6.4001   24.0854 C.ar    1  UNL1        0.0210
     12 C           7.6301   -5.3397   23.5908 C.ar    1  UNL1        0.0893
     13 N           7.3126   -4.8445   22.2109 N.ar    1  UNL1       -0.2241
     14 C           6.2853   -3.7584   22.3331 C.ar    1  UNL1        0.1631
     15 S           5.9678   -3.5823   23.7885 S.2     1  UNL1       -0.0515
     16 C           6.7990   -4.5596   24.5658 C.ar    1  UNL1        0.0510
     17 C           6.9064   -4.8400   26.0354 C.ar    1  UNL1        0.0264
     18 C           8.0597   -6.4611   29.4694 C.3     1  UNL1        0.1816
     19 S           7.9523   -6.1808   27.9997 S.O2    1  UNL1        0.0105
     20 O           6.5965   -5.5759   28.2142 O.2     1  UNL1       -0.1686
     21 O           9.3080   -6.7857   27.7852 O.2     1  UNL1       -0.1686
     22 C           3.1216    0.6089   18.0707 C.3     1  UNL1        0.0853
     23 C           1.6292    0.5832   18.2199 C.3     1  UNL1        0.0096
     24 C           0.8809    1.8540   18.4938 C.3     1  UNL1        0.0005
     25 C           1.6250    3.1506   18.6185 C.3     1  UNL1        0.0005
     26 C           3.1173    3.1762   18.4693 C.3     1  UNL1        0.0096
     27 C           3.8656    1.9054   18.1954 C.3     1  UNL1        0.0851
     28 C           5.3579    1.9310   18.0462 C.2     1  UNL1        0.2231
     29 O           5.9763    1.8693   16.6810 O.2     1  UNL1       -0.2751
     30 N           6.2318    2.0183   19.2623 N.am    1  UNL1       -0.2959
     31 H           5.8259    2.0588   20.1583 H       1  UNL1        0.1502
     32 C           7.7241    2.0439   19.1131 C.3     1  UNL1        0.1364
     33 C           9.1149    2.5802   18.9454 C.3     1  UNL1        0.0353
     34 C           7.9501    3.5230   19.0081 C.3     1  UNL1        0.0353
     35 C           8.0166    0.5736   19.1662 C.1     1  UNL1        0.0896
     36 N           8.3091   -0.8966   19.2194 N.1     1  UNL1       -0.1943
@<TRIPOS>BOND
     1    18    19    1
     2    19    20    2
     3    19    21    2
     4    19     9    1
     5     9    10   ar
     6    10    11   ar
     7    11    12   ar
     8    12    13   ar
     9    13    14   ar
    10    14     1    1
    11     1     2    1
    12     2     3    1
    13     3     4    1
    14     4     5   am
    15     5     6    2
    16    22     5    1
    17    22    23    1
    18    23    24    1
    19    24    25    1
    20    25    26    1
    21    26    27    1
    22    27    28    1
    23    28    29    2
    24    28    30   am
    25    30    32    1
    26    32    35    1
    27    35    36    3
    28    32    33    1
    29    33    34    1
    30     4     7    1
    31     7     8    1
    32    14    15   ar
    33    15    16   ar
    34    16    17   ar
    35    17     9   ar
    36    16    12   ar
    37     8     1    1
    38    27    22    1
    39    34    32    1
    40    30    31    1
@<TRIPOS>MOLECULE
*****
 36 40 0 0 0
SMALL
GASTEIGER

@<TRIPOS>ATOM
      1 N           6.8469   -2.7682   22.7367 N.pl3   1  UNL1       -0.2846
      2 C           6.9846   -1.3002   22.4610 C.3     1  UNL1        0.1141
      3 C           6.9802   -0.7990   21.0472 C.3     1  UNL1        0.1149
      4 N           6.8382   -1.7658   19.9092 N.am    1  UNL1       -0.2760
      5 C           6.8338   -1.2646   18.4954 C.2     1  UNL1        0.2257
      6 O           6.6918   -2.2313   17.3574 O.2     1  UNL1       -0.2749
      7 C           6.7005   -3.2338   20.1849 C.3     1  UNL1        0.1149
      8 C           6.7049   -3.7350   21.5987 C.3     1  UNL1        0.1141
      9 C           6.7628   -4.2088   29.0234 C.ar    1  UNL1        0.1063
     10 C           6.9684   -5.6090   28.5263 C.ar    1  UNL1        0.0199
     11 C           7.0674   -5.8751   27.0534 C.ar    1  UNL1        0.0210
     12 C           6.9608   -4.7409   26.0776 C.ar    1  UNL1        0.0893
     13 N           7.0202   -4.6969   24.5794 N.ar    1  UNL1       -0.2241
     14 C           6.8513   -3.2695   24.1505 C.ar    1  UNL1        0.1631
     15 S           6.6875   -2.4313   25.3836 S.2     1  UNL1       -0.0515
     16 C           6.7552   -3.3407   26.5746 C.ar    1  UNL1        0.0510
     17 C           6.6562   -3.0747   28.0475 C.ar    1  UNL1        0.0264
     18 C           6.5647   -3.6768   31.9691 C.3     1  UNL1        0.1816
     19 S           6.6637   -3.9428   30.4963 S.O2    1  UNL1        0.0105
     20 O           6.5329   -2.4739   30.2221 O.2     1  UNL1       -0.1686
     21 O           6.7946   -5.4117   30.7704 O.2     1  UNL1       -0.1686
     22 C           6.9715    0.2034   18.2197 C.3     1  UNL1        0.0853
     23 C           8.3329    0.8110   18.0537 C.3     1  UNL1        0.0096
     24 C           8.4706    2.2790   17.7780 C.3     1  UNL1        0.0005
     25 C           7.2468    3.1395   17.6682 C.3     1  UNL1        0.0005
     26 C           5.8854    2.5319   17.8342 C.3     1  UNL1        0.0096
     27 C           5.7478    1.0639   18.1099 C.3     1  UNL1        0.0851
     28 C           4.3864    0.4564   18.2758 C.2     1  UNL1        0.2231
     29 O           3.8139   -0.4085   17.1922 O.2     1  UNL1       -0.2751
     30 N           3.5975    0.7137   19.5254 N.am    1  UNL1       -0.2959
     31 H           3.9732    1.2814   20.2366 H       1  UNL1        0.1502
     32 C           2.2361    0.1062   19.6914 C.3     1  UNL1        0.1364
     33 C           1.1632   -0.8562   20.1068 C.3     1  UNL1        0.0353
     34 C           2.5938   -1.1266   20.4673 C.3     1  UNL1        0.0353
     35 C           1.4055    1.1281   18.9731 C.1     1  UNL1        0.0896
     36 N           0.5748    2.1499   18.2549 N.1     1  UNL1       -0.1943
@<TRIPOS>BOND
     1    18    19    1
     2    19    20    2
     3    19    21    2
     4    19     9    1
     5     9    10   ar
     6    10    11   ar
     7    11    12   ar
     8    12    13   ar
     9    13    14   ar
    10    14     1    1
    11     1     2    1
    12     2     3    1
    13     3     4    1
    14     4     5   am
    15     5     6    2
    16    22     5    1
    17    22    23    1
    18    23    24    1
    19    24    25    1
    20    25    26    1
    21    26    27    1
    22    27    28    1
    23    28    29    2
    24    28    30   am
    25    30    32    1
    26    32    35    1
    27    35    36    3
    28    32    33    1
    29    33    34    1
    30     4     7    1
    31     7     8    1
    32    14    15   ar
    33    15    16   ar
    34    16    17   ar
    35    17     9   ar
    36    16    12   ar
    37     8     1    1
    38    27    22    1
    39    34    32    1
    40    30    31    1
@<TRIPOS>MOLECULE
*****
 36 40 0 0 0
SMALL
GASTEIGER

@<TRIPOS>ATOM
      1 N           5.7765   -0.5872   24.1055 N.pl3   1  UNL1       -0.2846
      2 C           4.3848   -0.3444   23.6015 C.3     1  UNL1        0.1141
      3 C           4.1712    0.1886   22.2157 C.3     1  UNL1        0.1149
      4 N           5.3495    0.4787   21.3340 N.am    1  UNL1       -0.2760
      5 C           5.1360    1.0117   19.9482 C.2     1  UNL1        0.2257
      6 O           6.3142    1.3019   19.0664 O.2     1  UNL1       -0.2749
      7 C           6.7412    0.2359   21.8380 C.3     1  UNL1        0.1149
      8 C           6.9548   -0.2970   23.2237 C.3     1  UNL1        0.1141
      9 C           6.7302   -3.5601   29.7497 C.ar    1  UNL1        0.1063
     10 C           6.6465   -2.1666   30.2984 C.ar    1  UNL1        0.0199
     11 C           6.4198   -1.0083   29.3727 C.ar    1  UNL1        0.0210
     12 C           6.2767   -1.2435   27.8982 C.ar    1  UNL1        0.0893
     13 N           6.0478   -0.3061   26.7498 N.ar    1  UNL1       -0.2241
     14 C           5.9900   -1.1202   25.4913 C.ar    1  UNL1        0.1631
     15 S           6.1832   -2.5608   25.8618 S.2     1  UNL1       -0.0515
     16 C           6.3604   -2.6370   27.3494 C.ar    1  UNL1        0.0510
     17 C           6.5872   -3.7953   28.2752 C.ar    1  UNL1        0.0264
     18 C           7.1837   -5.8767   31.6011 C.3     1  UNL1        0.1816
     19 S           6.9569   -4.7184   30.6754 S.O2    1  UNL1        0.0105
     20 O           6.6176   -5.6705   29.5671 O.2     1  UNL1       -0.1686
     21 O           7.2963   -3.7662   31.7836 O.2     1  UNL1       -0.1686
     22 C           3.7442    1.2546   19.4442 C.3     1  UNL1        0.0853
     23 C           3.0767    2.5749   19.6915 C.3     1  UNL1        0.0096
     24 C           1.6849    2.8178   19.1876 C.3     1  UNL1        0.0005
     25 C           0.9606    1.7402   18.4362 C.3     1  UNL1        0.0005
     26 C           1.6282    0.4199   18.1889 C.3     1  UNL1        0.0096
     27 C           3.0199    0.1771   18.6929 C.3     1  UNL1        0.0851
     28 C           3.6875   -1.1432   18.4456 C.2     1  UNL1        0.2231
     29 O           4.2988   -1.4355   17.1074 O.2     1  UNL1       -0.2751
     30 N           3.7437   -2.1712   19.5365 N.am    1  UNL1       -0.2959
     31 H           3.3425   -1.9793   20.4149 H       1  UNL1        0.1502
     32 C           4.4112   -3.4915   19.2892 C.3     1  UNL1        0.1364
     33 C           4.5810   -4.9470   18.9688 C.3     1  UNL1        0.0353
     34 C           3.2099   -4.3393   18.9927 C.3     1  UNL1        0.0353
     35 C           5.8445   -3.1023   19.4999 C.1     1  UNL1        0.0896
     36 N           7.2777   -2.7131   19.7105 N.1     1  UNL1       -0.1943
@<TRIPOS>BOND
     1    18    19    1
     2    19    20    2
     3    19    21    2
     4    19     9    1
     5     9    10   ar
     6    10    11   ar
     7    11    12   ar
     8    12    13   ar
     9    13    14   ar
    10    14     1    1
    11     1     2    1
    12     2     3    1
    13     3     4    1
    14     4     5   am
    15     5     6    2
    16    22     5    1
    17    22    23    1
    18    23    24    1
    19    24    25    1
    20    25    26    1
    21    26    27    1
    22    27    28    1
    23    28    29    2
    24    28    30   am
    25    30    32    1
    26    32    35    1
    27    35    36    3
    28    32    33    1
    29    33    34    1
    30     4     7    1
    31     7     8    1
    32    14    15   ar
    33    15    16   ar
    34    16    17   ar
    35    17     9   ar
    36    16    12   ar
    37     8     1    1
    38    27    22    1
    39    34    32    1
    40    30    31    1
@<TRIPOS>MOLECULE
*****
 36 40 0 0 0
SMALL
GASTEIGER

@<TRIPOS>ATOM
      1 N           6.1909   -2.4086   24.2232 N.pl3   1  UNL1       -0.2846
      2 C           4.7122   -2.2847   24.0043 C.3     1  UNL1        0.1141
      3 C           4.1820   -1.3034   23.0013 C.3     1  UNL1        0.1149
      4 N           5.1307   -0.4461   22.2172 N.am    1  UNL1       -0.2760
      5 C           4.6006    0.5352   21.2141 C.2     1  UNL1        0.2257
      6 O           5.5492    1.3926   20.4299 O.2     1  UNL1       -0.2749
      7 C           6.6094   -0.5700   22.4360 C.3     1  UNL1        0.1149
      8 C           7.1396   -1.5512   23.4390 C.3     1  UNL1        0.1141
      9 C           8.5091   -6.0508   29.0153 C.ar    1  UNL1        0.1063
     10 C           8.4007   -7.1484   27.9987 C.ar    1  UNL1        0.0199
     11 C           7.8874   -6.8474   26.6218 C.ar    1  UNL1        0.0210
     12 C           7.4826   -5.4488   26.2614 C.ar    1  UNL1        0.0893
     13 N           6.9449   -4.8547   24.9934 N.ar    1  UNL1       -0.2241
     14 C           6.7210   -3.3899   25.2263 C.ar    1  UNL1        0.1631
     15 S           7.1203   -3.0787   26.6382 S.2     1  UNL1       -0.0515
     16 C           7.5910   -4.3512   27.2780 C.ar    1  UNL1        0.0510
     17 C           8.1042   -4.6522   28.6549 C.ar    1  UNL1        0.0264
     18 C           9.5356   -6.6529   31.7692 C.3     1  UNL1        0.1816
     19 S           9.0224   -6.3519   30.3922 S.O2    1  UNL1        0.0105
     20 O           9.5359   -7.6766   29.9112 O.2     1  UNL1       -0.1686
     21 O           8.5088   -5.0271   30.8733 O.2     1  UNL1       -0.1686
     22 C           3.1218    0.6591   20.9952 C.3     1  UNL1        0.0853
     23 C           2.3481    1.7382   21.6933 C.3     1  UNL1        0.0096
     24 C           0.8693    1.8621   21.4745 C.3     1  UNL1        0.0005
     25 C           0.1642    0.9069   20.5576 C.3     1  UNL1        0.0005
     26 C           0.9379   -0.1720   19.8596 C.3     1  UNL1        0.0096
     27 C           2.4167   -0.2959   20.0784 C.3     1  UNL1        0.0851
     28 C           3.1904   -1.3749   19.3804 C.2     1  UNL1        0.2231
     29 O           3.6344   -1.1808   17.9609 O.2     1  UNL1       -0.2751
     30 N           3.5200   -2.6480   20.1020 N.am    1  UNL1       -0.2959
     31 H           3.2286   -2.7754   21.0337 H       1  UNL1        0.1502
     32 C           4.2937   -3.7269   19.4040 C.3     1  UNL1        0.1364
     33 C           4.5858   -5.0011   18.6683 C.3     1  UNL1        0.0353
     34 C           3.1759   -4.6636   19.0530 C.3     1  UNL1        0.0353
     35 C           5.6803   -3.1651   19.5125 C.1     1  UNL1        0.0896
     36 N           7.0668   -2.6033   19.6210 N.1     1  UNL1       -0.1943
@<TRIPOS>BOND
     1    18    19    1
     2    19    20    2
     3    19    21    2
     4    19     9    1
     5     9    10   ar
     6    10    11   ar
     7    11    12   ar
     8    12    13   ar
     9    13    14   ar
    10    14     1    1
    11     1     2    1
    12     2     3    1
    13     3     4    1
    14     4     5   am
    15     5     6    2
    16    22     5    1
    17    22    23    1
    18    23    24    1
    19    24    25    1
    20    25    26    1
    21    26    27    1
    22    27    28    1
    23    28    29    2
    24    28    30   am
    25    30    32    1
    26    32    35    1
    27    35    36    3
    28    32    33    1
    29    33    34    1
    30     4     7    1
    31     7     8    1
    32    14    15   ar
    33    15    16   ar
    34    16    17   ar
    35    17     9   ar
    36    16    12   ar
    37     8     1    1
    38    27    22    1
    39    34    32    1
    40    30    31    1
@<TRIPOS>MOLECULE
*****
 36 40 0 0 0
SMALL
GASTEIGER

@<TRIPOS>ATOM
      1 N           5.3804   -2.8891   23.8898 N.pl3   1  UNL1       -0.2846
      2 C           4.5162   -1.6647   23.8256 C.3     1  UNL1        0.1141
      3 C           3.8133   -1.3090   22.5491 C.3     1  UNL1        0.1149
      4 N           3.9745   -2.1776   21.3370 N.am    1  UNL1       -0.2760
      5 C           3.2716   -1.8219   20.0604 C.2     1  UNL1        0.2257
      6 O           3.4328   -2.6905   18.8483 O.2     1  UNL1       -0.2749
      7 C           4.8387   -3.4019   21.4012 C.3     1  UNL1        0.1149
      8 C           5.5416   -3.7577   22.6776 C.3     1  UNL1        0.1141
      9 C           8.2369   -3.7243   29.6123 C.ar    1  UNL1        0.1063
     10 C           8.5282   -5.0924   29.0706 C.ar    1  UNL1        0.0199
     11 C           8.0650   -5.4684   27.6943 C.ar    1  UNL1        0.0210
     12 C           7.3107   -4.4763   26.8597 C.ar    1  UNL1        0.0893
     13 N           6.7321   -4.5607   25.4784 N.ar    1  UNL1       -0.2241
     14 C           6.0833   -3.2448   25.1663 C.ar    1  UNL1        0.1631
     15 S           6.2609   -2.3470   26.3548 S.2     1  UNL1       -0.0515
     16 C           7.0194   -3.1082   27.4014 C.ar    1  UNL1        0.0510
     17 C           7.4826   -2.7322   28.7777 C.ar    1  UNL1        0.0264
     18 C           9.1632   -2.9723   32.3648 C.3     1  UNL1        0.1816
     19 S           8.7001   -3.3483   30.9886 S.O2    1  UNL1        0.0105
     20 O           8.6236   -1.8969   30.6178 O.2     1  UNL1       -0.1686
     21 O           8.7766   -4.7998   31.3594 O.2     1  UNL1       -0.1686
     22 C           2.4074   -0.5975   19.9962 C.3     1  UNL1        0.0853
     23 C           0.9705   -0.6706   20.4207 C.3     1  UNL1        0.0096
     24 C           0.1063    0.5538   20.3564 C.3     1  UNL1        0.0005
     25 C           0.6790    1.8512   19.8677 C.3     1  UNL1        0.0005
     26 C           2.1158    1.9242   19.4433 C.3     1  UNL1        0.0096
     27 C           2.9800    0.6999   19.5076 C.3     1  UNL1        0.0851
     28 C           4.4168    0.7729   19.0831 C.2     1  UNL1        0.2231
     29 O           5.4924    0.9763   20.1087 O.2     1  UNL1       -0.2751
     30 N           4.7782    0.6425   17.6331 N.am    1  UNL1       -0.2959
     31 H           4.0722    0.5090   16.9600 H       1  UNL1        0.1502
     32 C           6.2150    0.7155   17.2087 C.3     1  UNL1        0.1364
     33 C           7.5125    1.2861   16.7178 C.3     1  UNL1        0.0353
     34 C           6.3127    2.1734   16.8698 C.3     1  UNL1        0.0353
     35 C           6.6163   -0.7171   17.4001 C.1     1  UNL1        0.0896
     36 N           7.0176   -2.1497   17.5915 N.1     1  UNL1       -0.1943
@<TRIPOS>BOND
     1    18    19    1
     2    19    20    2
     3    19    21    2
     4    19     9    1
     5     9    10   ar
     6    10    11   ar
     7    11    12   ar
     8    12    13   ar
     9    13    14   ar
    10    14     1    1
    11     1     2    1
    12     2     3    1
    13     3     4    1
    14     4     5   am
    15     5     6    2
    16    22     5    1
    17    22    23    1
    18    23    24    1
    19    24    25    1
    20    25    26    1
    21    26    27    1
    22    27    28    1
    23    28    29    2
    24    28    30   am
    25    30    32    1
    26    32    35    1
    27    35    36    3
    28    32    33    1
    29    33    34    1
    30     4     7    1
    31     7     8    1
    32    14    15   ar
    33    15    16   ar
    34    16    17   ar
    35    17     9   ar
    36    16    12   ar
    37     8     1    1
    38    27    22    1
    39    34    32    1
    40    30    31    1
@<TRIPOS>MOLECULE
*****
 36 40 0 0 0
SMALL
GASTEIGER

@<TRIPOS>ATOM
      1 N           0.0620    2.4889   21.3398 N.pl3   1  UNL1       -0.2846
      2 C           0.6970    2.4856   19.9808 C.3     1  UNL1        0.1141
      3 C           2.1108    2.0128   19.8147 C.3     1  UNL1        0.1149
      4 N           2.8895    1.5432   21.0076 N.am    1  UNL1       -0.2760
      5 C           4.3034    1.0703   20.8415 C.2     1  UNL1        0.2257
      6 O           5.0822    0.6008   22.0344 O.2     1  UNL1       -0.2749
      7 C           2.2545    1.5465   22.3665 C.3     1  UNL1        0.1149
      8 C           0.8408    2.0193   22.5326 C.3     1  UNL1        0.1141
      9 C          -5.8045    4.7847   22.7246 C.ar    1  UNL1        0.1063
     10 C          -6.1480    4.2320   21.3731 C.ar    1  UNL1        0.0199
     11 C          -5.0954    3.5462   20.5536 C.ar    1  UNL1        0.0210
     12 C          -3.6993    3.4130   21.0855 C.ar    1  UNL1        0.0893
     13 N          -2.4608    2.7926   20.5100 N.ar    1  UNL1       -0.2241
     14 C          -1.3519    2.9618   21.5058 C.ar    1  UNL1        0.1631
     15 S          -1.9049    3.6868   22.6968 S.2     1  UNL1       -0.0515
     16 C          -3.3558    3.9657   22.4370 C.ar    1  UNL1        0.0510
     17 C          -4.4084    4.6515   23.2565 C.ar    1  UNL1        0.0264
     18 C          -7.9098    6.1564   24.3636 C.3     1  UNL1        0.1816
     19 S          -6.8571    5.4705   23.5441 S.O2    1  UNL1        0.0105
     20 O          -7.8891    4.5193   23.0148 O.2     1  UNL1       -0.1686
     21 O          -5.8252    6.4218   24.0734 O.2     1  UNL1       -0.1686
     22 C           4.9384    1.0670   19.4826 C.3     1  UNL1        0.0853
     23 C           5.6049    2.3065   18.9632 C.3     1  UNL1        0.0096
     24 C           6.2399    2.3032   17.6042 C.3     1  UNL1        0.0005
     25 C           6.2084    1.0605   16.7646 C.3     1  UNL1        0.0005
     26 C           5.5419   -0.1788   17.2840 C.3     1  UNL1        0.0096
     27 C           4.9069   -0.1755   18.6430 C.3     1  UNL1        0.0851
     28 C           4.2404   -1.4149   19.1624 C.2     1  UNL1        0.2231
     29 O           2.7489   -1.4559   19.3165 O.2     1  UNL1       -0.2751
     30 N           5.0654   -2.6132   19.5278 N.am    1  UNL1       -0.2959
     31 H           6.0443   -2.5863   19.4267 H       1  UNL1        0.1502
     32 C           4.3989   -3.8525   20.0472 C.3     1  UNL1        0.1364
     33 C           3.7169   -5.1885   20.0549 C.3     1  UNL1        0.0353
     34 C           4.1229   -4.5612   18.7543 C.3     1  UNL1        0.0353
     35 C           4.4434   -3.5743   21.5205 C.1     1  UNL1        0.0896
     36 N           4.4879   -3.2961   22.9938 N.1     1  UNL1       -0.1943
@<TRIPOS>BOND
     1    18    19    1
     2    19    20    2
     3    19    21    2
     4    19     9    1
     5     9    10   ar
     6    10    11   ar
     7    11    12   ar
     8    12    13   ar
     9    13    14   ar
    10    14     1    1
    11     1     2    1
    12     2     3    1
    13     3     4    1
    14     4     5   am
    15     5     6    2
    16    22     5    1
    17    22    23    1
    18    23    24    1
    19    24    25    1
    20    25    26    1
    21    26    27    1
    22    27    28    1
    23    28    29    2
    24    28    30   am
    25    30    32    1
    26    32    35    1
    27    35    36    3
    28    32    33    1
    29    33    34    1
    30     4     7    1
    31     7     8    1
    32    14    15   ar
    33    15    16   ar
    34    16    17   ar
    35    17     9   ar
    36    16    12   ar
    37     8     1    1
    38    27    22    1
    39    34    32    1
    40    30    31    1
@<TRIPOS>MOLECULE
*****
 36 40 0 0 0
SMALL
GASTEIGER

@<TRIPOS>ATOM
      1 N           1.2873    1.8724   23.4116 N.pl3   1  UNL1       -0.2846
      2 C           2.5338    2.4920   22.8527 C.3     1  UNL1        0.1141
      3 C           2.6861    2.6643   21.3705 C.3     1  UNL1        0.1149
      4 N           1.5919    2.2171   20.4471 N.am    1  UNL1       -0.2760
      5 C           1.7441    2.3894   18.9648 C.2     1  UNL1        0.2257
      6 O           0.6499    1.9421   18.0415 O.2     1  UNL1       -0.2749
      7 C           0.3454    1.5975   21.0060 C.3     1  UNL1        0.1149
      8 C           0.1931    1.4251   22.4883 C.3     1  UNL1        0.1141
      9 C           1.3569    1.3235   29.8380 C.ar    1  UNL1        0.1063
     10 C          -0.0830    0.9493   29.6465 C.ar    1  UNL1        0.0199
     11 C          -0.6710    0.9114   28.2671 C.ar    1  UNL1        0.0210
     12 C           0.1808    1.2478   27.0792 C.ar    1  UNL1        0.0893
     13 N          -0.1193    1.2960   25.6103 N.ar    1  UNL1       -0.2241
     14 C           1.1351    1.7001   24.8939 C.ar    1  UNL1        0.1631
     15 S           2.2105    1.9015   25.9200 S.2     1  UNL1       -0.0515
     16 C           1.6206    1.6220   27.2706 C.ar    1  UNL1        0.0510
     17 C           2.2087    1.6599   28.6500 C.ar    1  UNL1        0.0264
     18 C           2.5331    1.3993   32.5968 C.3     1  UNL1        0.1816
     19 S           1.9450    1.3614   31.2174 S.O2    1  UNL1        0.0105
     20 O           3.2972    1.0466   30.6495 O.2     1  UNL1       -0.1686
     21 O           0.5928    1.6762   31.7852 O.2     1  UNL1       -0.1686
     22 C           2.9906    3.0090   18.4059 C.3     1  UNL1        0.0853
     23 C           3.0676    4.4943   18.2113 C.3     1  UNL1        0.0096
     24 C           4.3141    5.1139   17.6524 C.3     1  UNL1        0.0005
     25 C           5.4836    4.2481   17.2881 C.3     1  UNL1        0.0005
     26 C           5.4066    2.7628   17.4827 C.3     1  UNL1        0.0096
     27 C           4.1601    2.1432   18.0416 C.3     1  UNL1        0.0851
     28 C           4.0831    0.6579   18.2362 C.2     1  UNL1        0.2231
     29 O           3.3032   -0.1854   17.2716 O.2     1  UNL1       -0.2751
     30 N           4.7860    0.0160   19.3955 N.am    1  UNL1       -0.2959
     31 H           5.2979    0.5695   20.0286 H       1  UNL1        0.1502
     32 C           4.7090   -1.4693   19.5901 C.3     1  UNL1        0.1364
     33 C           4.2662   -2.8002   20.1219 C.3     1  UNL1        0.0353
     34 C           3.6290   -1.5404   20.6286 C.3     1  UNL1        0.0353
     35 C           5.7624   -1.9143   18.6192 C.1     1  UNL1        0.0896
     36 N           6.8157   -2.3592   17.6484 N.1     1  UNL1       -0.1943
@<TRIPOS>BOND
     1    18    19    1
     2    19    20    2
     3    19    21    2
     4    19     9    1
     5     9    10   ar
     6    10    11   ar
     7    11    12   ar
     8    12    13   ar
     9    13    14   ar
    10    14     1    1
    11     1     2    1
    12     2     3    1
    13     3     4    1
    14     4     5   am
    15     5     6    2
    16    22     5    1
    17    22    23    1
    18    23    24    1
    19    24    25    1
    20    25    26    1
    21    26    27    1
    22    27    28    1
    23    28    29    2
    24    28    30   am
    25    30    32    1
    26    32    35    1
    27    35    36    3
    28    32    33    1
    29    33    34    1
    30     4     7    1
    31     7     8    1
    32    14    15   ar
    33    15    16   ar
    34    16    17   ar
    35    17     9   ar
    36    16    12   ar
    37     8     1    1
    38    27    22    1
    39    34    32    1
    40    30    31    1
@<TRIPOS>MOLECULE
*****
 36 40 0 0 0
SMALL
GASTEIGER

@<TRIPOS>ATOM
      1 N           1.1664    1.7400   21.4180 N.pl3   1  UNL1       -0.2846
      2 C           2.6165    2.1235   21.4039 C.3     1  UNL1        0.1141
      3 C           3.4939    1.6973   20.2644 C.3     1  UNL1        0.1149
      4 N           2.9213    0.8876   19.1391 N.am    1  UNL1       -0.2760
      5 C           3.7987    0.4614   17.9995 C.2     1  UNL1        0.2257
      6 O           3.2260   -0.3483   16.8742 O.2     1  UNL1       -0.2749
      7 C           1.4712    0.5041   19.1532 C.3     1  UNL1        0.1149
      8 C           0.5938    0.9303   20.2927 C.3     1  UNL1        0.1141
      9 C          -3.0125    3.9461   25.8082 C.ar    1  UNL1        0.1063
     10 C          -2.1491    3.1745   26.7616 C.ar    1  UNL1        0.0199
     11 C          -0.9576    2.4195   26.2514 C.ar    1  UNL1        0.0210
     12 C          -0.6294    2.4362   24.7879 C.ar    1  UNL1        0.0893
     13 N           0.4718    1.7924   23.9987 N.ar    1  UNL1       -0.2241
     14 C           0.2890    2.1662   22.5576 C.ar    1  UNL1        0.1631
     15 S          -0.9252    3.0411   22.4561 S.2     1  UNL1       -0.0515
     16 C          -1.4928    3.2079   23.8345 C.ar    1  UNL1        0.0510
     17 C          -2.6844    3.9629   24.3447 C.ar    1  UNL1        0.0264
     18 C          -5.3956    5.4560   26.8286 C.3     1  UNL1        0.1816
     19 S          -4.2041    4.7011   26.3184 S.O2    1  UNL1        0.0105
     20 O          -3.2940    5.7289   26.9230 O.2     1  UNL1       -0.1686
     21 O          -5.1141    3.6733   25.7138 O.2     1  UNL1       -0.1686
     22 C           5.2488    0.8449   17.9854 C.3     1  UNL1        0.0853
     23 C           5.6461    2.2660   17.7159 C.3     1  UNL1        0.0096
     24 C           7.0962    2.6495   17.7017 C.3     1  UNL1        0.0005
     25 C           8.1489    1.6119   17.9571 C.3     1  UNL1        0.0005
     26 C           7.7516    0.1908   18.2266 C.3     1  UNL1        0.0096
     27 C           6.3015   -0.1927   18.2407 C.3     1  UNL1        0.0851
     28 C           5.9041   -1.6137   18.5103 C.2     1  UNL1        0.2231
     29 O           6.2175   -2.6834   17.5065 O.2     1  UNL1       -0.2751
     30 N           5.1934   -1.9651   19.7836 N.am    1  UNL1       -0.2959
     31 H           4.9877   -1.2631   20.4425 H       1  UNL1        0.1502
     32 C           4.7960   -3.3862   20.0531 C.3     1  UNL1        0.1364
     33 C           3.9875   -4.6496   20.0442 C.3     1  UNL1        0.0353
     34 C           3.4743   -3.4259   19.3450 C.3     1  UNL1        0.0353
     35 C           5.9797   -3.8401   20.8550 C.1     1  UNL1        0.0896
     36 N           7.1633   -4.2941   21.6568 N.1     1  UNL1       -0.1943
@<TRIPOS>BOND
     1    18    19    1
     2    19    20    2
     3    19    21    2
     4    19     9    1
     5     9    10   ar
     6    10    11   ar
     7    11    12   ar
     8    12    13   ar
     9    13    14   ar
    10    14     1    1
    11     1     2    1
    12     2     3    1
    13     3     4    1
    14     4     5   am
    15     5     6    2
    16    22     5    1
    17    22    23    1
    18    23    24    1
    19    24    25    1
    20    25    26    1
    21    26    27    1
    22    27    28    1
    23    28    29    2
    24    28    30   am
    25    30    32    1
    26    32    35    1
    27    35    36    3
    28    32    33    1
    29    33    34    1
    30     4     7    1
    31     7     8    1
    32    14    15   ar
    33    15    16   ar
    34    16    17   ar
    35    17     9   ar
    36    16    12   ar
    37     8     1    1
    38    27    22    1
    39    34    32    1
    40    30    31    1
