@<TRIPOS>MOLECULE
*****
 32 35 0 0 0
SMALL
GASTEIGER

@<TRIPOS>ATOM
      1 C          -1.4693    3.7460   19.9034 C.2     1  UNL1        0.2525
      2 O          -1.4671    4.9261   18.9775 O.2     1  UNL1       -0.2698
      3 N          -0.4661    2.6461   19.7190 N.am    1  UNL1       -0.2660
      4 C          -0.3471    1.4109   20.5617 C.3     1  UNL1        0.1236
      5 C           0.7867    0.5898   20.0230 C.ar    1  UNL1        0.0338
      6 C           1.5610   -0.6811   20.2109 C.ar    1  UNL1        0.0991
      7 N           2.6214   -0.7388   19.1515 N.ar    1  UNL1       -0.2265
      8 N           2.5023    0.4964   18.3088 N.ar    1  UNL1       -0.1679
      9 C           1.3685    1.3175   18.8474 C.ar    1  UNL1        0.0981
     10 C           0.5942    2.5884   18.6595 C.3     1  UNL1        0.1414
     11 C           3.6245   -1.8386   18.9671 C.ar    1  UNL1        0.1102
     12 C           3.2778   -3.2438   19.3610 C.ar    1  UNL1        0.0214
     13 C           4.2809   -4.3437   19.1766 C.ar    1  UNL1        0.0017
     14 C           5.6308   -4.0383   18.5982 C.ar    1  UNL1        0.0024
     15 C           5.9776   -2.6331   18.2043 C.ar    1  UNL1        0.0312
     16 C           4.9745   -1.5333   18.3887 C.ar    1  UNL1        0.1577
     17 F           5.3212   -0.1281   17.9948 F       1  UNL1       -0.2026
     18 C          -3.9358    3.5479   20.6954 C.ar    1  UNL1        0.1426
     19 C          -4.9411    3.4676   21.8057 C.ar    1  UNL1        0.0384
     20 C          -4.4854    3.5051   23.2343 C.ar    1  UNL1        0.0215
     21 C          -3.0243    3.6229   23.5527 C.ar    1  UNL1        0.1061
     22 C          -2.0190    3.7032   22.4423 C.ar    1  UNL1        0.0259
     23 C          -2.4747    3.6657   21.0137 C.ar    1  UNL1        0.0887
     24 S          -2.5686    3.6604   24.9813 S.O2    1  UNL1        0.0105
     25 C          -2.1129    3.6980   26.4099 C.3     1  UNL1        0.1816
     26 O          -3.9937    3.7842   25.4326 O.2     1  UNL1       -0.1686
     27 O          -1.1435    3.5367   24.5298 O.2     1  UNL1       -0.1686
     28 O          -4.3915    3.5104   19.2668 O.3     1  UNL1       -0.4824
     29 C          -4.7482    5.5694   18.9019 C.3     1  UNL1        0.0436
     30 C          -5.5777    4.3214   18.8364 C.3     1  UNL1        0.1334
     31 C          -6.4072    3.0733   18.7709 C.3     1  UNL1        0.0436
     32 C          -6.7638    5.1323   18.4060 C.3     1  UNL1        0.0436
@<TRIPOS>BOND
     1    29    30    1
     2    30    31    1
     3    30    32    1
     4    30    28    1
     5    28    18    1
     6    18    19   ar
     7    19    20   ar
     8    20    21   ar
     9    21    24    1
    10    24    25    1
    11    24    26    2
    12    24    27    2
    13    21    22   ar
    14    22    23   ar
    15    23     1    1
    16     1     2    2
    17     1     3   am
    18     3     4    1
    19     4     5    1
    20     5     6   ar
    21     6     7   ar
    22     7    11    1
    23    11    12   ar
    24    12    13   ar
    25    13    14   ar
    26    14    15   ar
    27    15    16   ar
    28    16    17    1
    29     7     8   ar
    30     8     9   ar
    31     9    10    1
    32    23    18   ar
    33    10     3    1
    34     9     5   ar
    35    16    11   ar
@<TRIPOS>MOLECULE
*****
 32 35 0 0 0
SMALL
GASTEIGER

@<TRIPOS>ATOM
      1 C          -0.8636    4.2237   20.3637 C.2     1  UNL1        0.2525
      2 O          -0.3033    5.6054   20.1992 O.2     1  UNL1       -0.2698
      3 N           0.0420    3.0314   20.2725 N.am    1  UNL1       -0.2660
      4 C          -0.3721    1.5967   20.4152 C.3     1  UNL1        0.1236
      5 C           0.8506    0.7431   20.2535 C.ar    1  UNL1        0.0338
      6 C           1.3504   -0.6711   20.2418 C.ar    1  UNL1        0.0991
      7 N           2.8291   -0.6382   19.9920 N.ar    1  UNL1       -0.2265
      8 N           3.2432    0.7965   19.8493 N.ar    1  UNL1       -0.1679
      9 C           2.0205    1.6501   20.0110 C.ar    1  UNL1        0.0981
     10 C           1.5207    3.0644   20.0227 C.3     1  UNL1        0.1414
     11 C           3.7346   -1.8305   19.9008 C.ar    1  UNL1        0.1102
     12 C           4.1298   -2.5691   21.1451 C.ar    1  UNL1        0.0214
     13 C           5.0354   -3.7614   21.0540 C.ar    1  UNL1        0.0017
     14 C           5.5458   -4.2151   19.7185 C.ar    1  UNL1        0.0024
     15 C           5.1506   -3.4765   18.4741 C.ar    1  UNL1        0.0312
     16 C           4.2451   -2.2843   18.5653 C.ar    1  UNL1        0.1577
     17 F           3.8500   -1.5457   17.3210 F       1  UNL1       -0.2026
     18 C          -3.2773    3.8755   19.4676 C.ar    1  UNL1        0.1426
     19 C          -4.7432    3.6862   19.7233 C.ar    1  UNL1        0.0384
     20 C          -5.2612    3.6557   21.1307 C.ar    1  UNL1        0.0215
     21 C          -4.3134    3.8146   22.2824 C.ar    1  UNL1        0.1061
     22 C          -2.8475    4.0039   22.0266 C.ar    1  UNL1        0.0259
     23 C          -2.3294    4.0344   20.6193 C.ar    1  UNL1        0.0887
     24 S          -4.8315    3.7841   23.6897 S.O2    1  UNL1        0.0105
     25 C          -5.3496    3.7536   25.0971 C.3     1  UNL1        0.1816
     26 O          -6.2343    3.9203   23.1763 O.2     1  UNL1       -0.1686
     27 O          -3.4287    3.6478   24.2032 O.2     1  UNL1       -0.1686
     28 O          -2.7592    3.9060   18.0603 O.3     1  UNL1       -0.4824
     29 C          -3.9080    3.4866   16.3269 C.3     1  UNL1        0.0436
     30 C          -3.4552    4.7360   17.0226 C.3     1  UNL1        0.1334
     31 C          -3.0024    5.9854   17.7184 C.3     1  UNL1        0.0436
     32 C          -4.1512    5.5660   15.9851 C.3     1  UNL1        0.0436
@<TRIPOS>BOND
     1    29    30    1
     2    30    31    1
     3    30    32    1
     4    30    28    1
     5    28    18    1
     6    18    19   ar
     7    19    20   ar
     8    20    21   ar
     9    21    24    1
    10    24    25    1
    11    24    26    2
    12    24    27    2
    13    21    22   ar
    14    22    23   ar
    15    23     1    1
    16     1     2    2
    17     1     3   am
    18     3     4    1
    19     4     5    1
    20     5     6   ar
    21     6     7   ar
    22     7    11    1
    23    11    12   ar
    24    12    13   ar
    25    13    14   ar
    26    14    15   ar
    27    15    16   ar
    28    16    17    1
    29     7     8   ar
    30     8     9   ar
    31     9    10    1
    32    23    18   ar
    33    10     3    1
    34     9     5   ar
    35    16    11   ar
@<TRIPOS>MOLECULE
*****
 32 35 0 0 0
SMALL
GASTEIGER

@<TRIPOS>ATOM
      1 C          -2.2127    5.3046   21.1034 C.2     1  UNL1        0.2525
      2 O          -1.9182    6.7377   20.7725 O.2     1  UNL1       -0.2698
      3 N          -1.2514    4.2279   20.6955 N.am    1  UNL1       -0.2660
      4 C          -1.4105    2.7592   20.9553 C.3     1  UNL1        0.1236
      5 C          -0.2196    2.0544   20.3765 C.ar    1  UNL1        0.0338
      6 C           0.4181    0.7111   20.1794 C.ar    1  UNL1        0.0991
      7 N           1.7074    0.9139   19.4399 N.ar    1  UNL1       -0.2265
      8 N           1.8664    2.3827   19.1800 N.ar    1  UNL1       -0.1679
      9 C           0.6755    3.0875   19.7589 C.ar    1  UNL1        0.0981
     10 C           0.0378    4.4308   19.9560 C.3     1  UNL1        0.1414
     11 C           2.6686   -0.1627   19.0320 C.ar    1  UNL1        0.1102
     12 C           3.2776   -0.1446   17.6613 C.ar    1  UNL1        0.0214
     13 C           4.2389   -1.2214   17.2533 C.ar    1  UNL1        0.0017
     14 C           4.5914   -2.3163   18.2160 C.ar    1  UNL1        0.0024
     15 C           3.9824   -2.3344   19.5868 C.ar    1  UNL1        0.0312
     16 C           3.0211   -1.2577   19.9948 C.ar    1  UNL1        0.1577
     17 F           2.4122   -1.2759   21.3655 F       1  UNL1       -0.2026
     18 C          -4.6414    4.3818   21.0983 C.ar    1  UNL1        0.1426
     19 C          -5.8972    4.0255   21.8372 C.ar    1  UNL1        0.0384
     20 C          -5.9802    4.2357   23.3200 C.ar    1  UNL1        0.0215
     21 C          -4.8074    4.8023   24.0641 C.ar    1  UNL1        0.1061
     22 C          -3.5516    5.1586   23.3251 C.ar    1  UNL1        0.0259
     23 C          -3.4685    4.9483   21.8422 C.ar    1  UNL1        0.0887
     24 S          -4.8905    5.0125   25.5469 S.O2    1  UNL1        0.0105
     25 C          -4.9735    5.2227   27.0298 C.3     1  UNL1        0.1816
     26 O          -5.0888    3.5389   25.7447 O.2     1  UNL1       -0.1686
     27 O          -4.6920    6.4861   25.3491 O.2     1  UNL1       -0.1686
     28 O          -4.5584    4.1716   19.6154 O.3     1  UNL1       -0.4824
     29 C          -6.2041    3.3044   18.5958 C.3     1  UNL1        0.0436
     30 C          -5.6458    4.6909   18.7222 C.3     1  UNL1        0.1334
     31 C          -5.0875    6.0773   18.8487 C.3     1  UNL1        0.0436
     32 C          -6.7332    5.2101   17.8291 C.3     1  UNL1        0.0436
@<TRIPOS>BOND
     1    29    30    1
     2    30    31    1
     3    30    32    1
     4    30    28    1
     5    28    18    1
     6    18    19   ar
     7    19    20   ar
     8    20    21   ar
     9    21    24    1
    10    24    25    1
    11    24    26    2
    12    24    27    2
    13    21    22   ar
    14    22    23   ar
    15    23     1    1
    16     1     2    2
    17     1     3   am
    18     3     4    1
    19     4     5    1
    20     5     6   ar
    21     6     7   ar
    22     7    11    1
    23    11    12   ar
    24    12    13   ar
    25    13    14   ar
    26    14    15   ar
    27    15    16   ar
    28    16    17    1
    29     7     8   ar
    30     8     9   ar
    31     9    10    1
    32    23    18   ar
    33    10     3    1
    34     9     5   ar
    35    16    11   ar
@<TRIPOS>MOLECULE
*****
 32 35 0 0 0
SMALL
GASTEIGER

@<TRIPOS>ATOM
      1 C           2.0465    0.5090   19.1480 C.2     1  UNL1        0.2525
      2 O           0.8793    0.5678   18.2078 O.2     1  UNL1       -0.2698
      3 N           1.8459    0.7760   20.6103 N.am    1  UNL1       -0.2660
      4 C           2.9121    0.7533   21.6651 C.3     1  UNL1        0.1236
      5 C           2.2690    1.0759   22.9813 C.ar    1  UNL1        0.0338
      6 C           2.5305    1.2612   24.4466 C.ar    1  UNL1        0.0991
      7 N           1.2284    1.5979   25.1110 N.ar    1  UNL1       -0.2265
      8 N           0.1621    1.6206   24.0561 N.ar    1  UNL1       -0.1679
      9 C           0.8053    1.2980   22.7399 C.ar    1  UNL1        0.0981
     10 C           0.5438    1.1127   21.2745 C.3     1  UNL1        0.1414
     11 C           1.0277    1.8649   26.5732 C.ar    1  UNL1        0.1102
     12 C           0.0549    1.0376   27.3601 C.ar    1  UNL1        0.0214
     13 C          -0.1458    1.3046   28.8225 C.ar    1  UNL1        0.0017
     14 C           0.6264    2.3989   29.4979 C.ar    1  UNL1        0.0024
     15 C           1.5993    3.2262   28.7110 C.ar    1  UNL1        0.0312
     16 C           1.8000    2.9592   27.2487 C.ar    1  UNL1        0.1577
     17 F           2.7728    3.7864   26.4618 F       1  UNL1       -0.2026
     18 C           3.9513   -1.2122   18.7482 C.ar    1  UNL1        0.1426
     19 C           5.3192   -1.5379   18.2261 C.ar    1  UNL1        0.0384
     20 C           6.1503   -0.4685   17.5815 C.ar    1  UNL1        0.0215
     21 C           5.6135    0.9268   17.4590 C.ar    1  UNL1        0.1061
     22 C           4.2455    1.2526   17.9812 C.ar    1  UNL1        0.0259
     23 C           3.4144    0.1832   18.6258 C.ar    1  UNL1        0.0887
     24 S           6.4446    1.9963   16.8144 S.O2    1  UNL1        0.0105
     25 C           7.2757    3.0657   16.1698 C.3     1  UNL1        0.1816
     26 O           5.5357    3.0454   17.3830 O.2     1  UNL1       -0.1686
     27 O           7.3535    0.9471   16.2458 O.2     1  UNL1       -0.1686
     28 O           3.1202   -2.2816   19.3928 O.3     1  UNL1       -0.4824
     29 C           3.4460   -4.3575   19.1017 C.3     1  UNL1        0.0436
     30 C           3.7820   -3.3723   20.1818 C.3     1  UNL1        0.1334
     31 C           4.1180   -2.3871   21.2619 C.3     1  UNL1        0.0436
     32 C           4.4437   -4.4629   20.9707 C.3     1  UNL1        0.0436
@<TRIPOS>BOND
     1    29    30    1
     2    30    31    1
     3    30    32    1
     4    30    28    1
     5    28    18    1
     6    18    19   ar
     7    19    20   ar
     8    20    21   ar
     9    21    24    1
    10    24    25    1
    11    24    26    2
    12    24    27    2
    13    21    22   ar
    14    22    23   ar
    15    23     1    1
    16     1     2    2
    17     1     3   am
    18     3     4    1
    19     4     5    1
    20     5     6   ar
    21     6     7   ar
    22     7    11    1
    23    11    12   ar
    24    12    13   ar
    25    13    14   ar
    26    14    15   ar
    27    15    16   ar
    28    16    17    1
    29     7     8   ar
    30     8     9   ar
    31     9    10    1
    32    23    18   ar
    33    10     3    1
    34     9     5   ar
    35    16    11   ar
@<TRIPOS>MOLECULE
*****
 32 35 0 0 0
SMALL
GASTEIGER

@<TRIPOS>ATOM
      1 C           5.5064   -0.1390   22.2895 C.2     1  UNL1        0.2525
      2 O           6.7100    0.4011   21.5756 O.2     1  UNL1       -0.2698
      3 N           5.6137   -0.5657   23.7235 N.am    1  UNL1       -0.2660
      4 C           4.5023   -1.1218   24.5635 C.3     1  UNL1        0.1236
      5 C           5.0530   -1.4110   25.9284 C.ar    1  UNL1        0.0338
      6 C           4.7065   -1.9334   27.2911 C.ar    1  UNL1        0.0991
      7 N           5.9441   -1.8789   28.1370 N.ar    1  UNL1       -0.2265
      8 N           7.0555   -1.3229   27.2969 N.ar    1  UNL1       -0.1679
      9 C           6.5048   -1.0337   25.9320 C.ar    1  UNL1        0.0981
     10 C           6.8513   -0.5113   24.5693 C.3     1  UNL1        0.1414
     11 C           6.0514   -2.3056   29.5709 C.ar    1  UNL1        0.1102
     12 C           5.4713   -1.4460   30.6547 C.ar    1  UNL1        0.0214
     13 C           5.5786   -1.8727   32.0887 C.ar    1  UNL1        0.0017
     14 C           6.2661   -3.1590   32.4390 C.ar    1  UNL1        0.0024
     15 C           6.8464   -4.0186   31.3552 C.ar    1  UNL1        0.0312
     16 C           6.7390   -3.5920   29.9213 C.ar    1  UNL1        0.1577
     17 F           7.3192   -4.4515   28.8376 F       1  UNL1       -0.2026
     18 C           3.9999   -1.3166   20.5305 C.ar    1  UNL1        0.1426
     19 C           2.6890   -1.4300   19.8104 C.ar    1  UNL1        0.0384
     20 C           1.5735   -0.4791   20.1291 C.ar    1  UNL1        0.0215
     21 C           1.7690    0.5851   21.1679 C.ar    1  UNL1        0.1061
     22 C           3.0800    0.6985   21.8880 C.ar    1  UNL1        0.0259
     23 C           4.1954   -0.2524   21.5693 C.ar    1  UNL1        0.0887
     24 S           0.6535    1.5360   21.4866 S.O2    1  UNL1        0.0105
     25 C          -0.4620    2.4869   21.8053 C.3     1  UNL1        0.1816
     26 O           1.5821    2.3355   22.3517 O.2     1  UNL1       -0.1686
     27 O          -0.2752    0.7364   20.6215 O.2     1  UNL1       -0.1686
     28 O           5.1154   -2.2675   20.2118 O.3     1  UNL1       -0.4824
     29 C           5.2904   -3.0384   18.2432 C.3     1  UNL1        0.0436
     30 C           4.8152   -3.5835   19.5574 C.3     1  UNL1        0.1334
     31 C           4.3400   -4.1285   20.8717 C.3     1  UNL1        0.0436
     32 C           4.5151   -4.8994   18.9031 C.3     1  UNL1        0.0436
@<TRIPOS>BOND
     1    29    30    1
     2    30    31    1
     3    30    32    1
     4    30    28    1
     5    28    18    1
     6    18    19   ar
     7    19    20   ar
     8    20    21   ar
     9    21    24    1
    10    24    25    1
    11    24    26    2
    12    24    27    2
    13    21    22   ar
    14    22    23   ar
    15    23     1    1
    16     1     2    2
    17     1     3   am
    18     3     4    1
    19     4     5    1
    20     5     6   ar
    21     6     7   ar
    22     7    11    1
    23    11    12   ar
    24    12    13   ar
    25    13    14   ar
    26    14    15   ar
    27    15    16   ar
    28    16    17    1
    29     7     8   ar
    30     8     9   ar
    31     9    10    1
    32    23    18   ar
    33    10     3    1
    34     9     5   ar
    35    16    11   ar
@<TRIPOS>MOLECULE
*****
 32 35 0 0 0
SMALL
GASTEIGER

@<TRIPOS>ATOM
      1 C           5.9977   -0.3415   22.3181 C.2     1  UNL1        0.2525
      2 O           6.9010    0.8044   21.9706 O.2     1  UNL1       -0.2698
      3 N           6.4944   -1.4467   23.2022 N.am    1  UNL1       -0.2660
      4 C           5.7105   -2.6506   23.6335 C.3     1  UNL1        0.1236
      5 C           6.5939   -3.4900   24.5081 C.ar    1  UNL1        0.0338
      6 C           6.6554   -4.7529   25.3152 C.ar    1  UNL1        0.0991
      7 N           8.0234   -4.8484   25.9232 N.ar    1  UNL1       -0.2265
      8 N           8.8074   -3.6444   25.4918 N.ar    1  UNL1       -0.1679
      9 C           7.9239   -2.8050   24.6172 C.ar    1  UNL1        0.0981
     10 C           7.8624   -1.5421   23.8101 C.3     1  UNL1        0.1414
     11 C           8.5202   -5.9535   26.8072 C.ar    1  UNL1        0.1102
     12 C           9.0386   -5.6407   28.1795 C.ar    1  UNL1        0.0214
     13 C           9.5355   -6.7459   29.0637 C.ar    1  UNL1        0.0017
     14 C           9.5138   -8.1641   28.5755 C.ar    1  UNL1        0.0024
     15 C           8.9953   -8.4770   27.2031 C.ar    1  UNL1        0.0312
     16 C           8.4985   -7.3718   26.3190 C.ar    1  UNL1        0.1577
     17 F           7.9801   -7.6846   24.9467 F       1  UNL1       -0.2026
     18 C           4.2428   -1.3397   20.6828 C.ar    1  UNL1        0.1426
     19 C           2.8426   -1.3803   20.1463 C.ar    1  UNL1        0.0384
     20 C           1.7971   -0.4633   20.7084 C.ar    1  UNL1        0.0215
     21 C           2.1518    0.4943   21.8072 C.ar    1  UNL1        0.1061
     22 C           3.5520    0.5348   22.3437 C.ar    1  UNL1        0.0259
     23 C           4.5975   -0.3821   21.7815 C.ar    1  UNL1        0.0887
     24 S           1.1062    1.4112   22.3694 S.O2    1  UNL1        0.0105
     25 C           0.0607    2.3282   22.9316 C.3     1  UNL1        0.1816
     26 O           0.1045    0.8666   21.3948 O.2     1  UNL1       -0.1686
     27 O           2.1081    1.9559   23.3440 O.2     1  UNL1       -0.1686
     28 O           5.2883   -2.2567   20.1206 O.3     1  UNL1       -0.4824
     29 C           5.3076   -2.9787   18.1260 C.3     1  UNL1        0.0436
     30 C           4.8823   -3.5365   19.4519 C.3     1  UNL1        0.1334
     31 C           4.4570   -4.0943   20.7778 C.3     1  UNL1        0.0436
     32 C           4.4763   -4.8163   18.7832 C.3     1  UNL1        0.0436
@<TRIPOS>BOND
     1    29    30    1
     2    30    31    1
     3    30    32    1
     4    30    28    1
     5    28    18    1
     6    18    19   ar
     7    19    20   ar
     8    20    21   ar
     9    21    24    1
    10    24    25    1
    11    24    26    2
    12    24    27    2
    13    21    22   ar
    14    22    23   ar
    15    23     1    1
    16     1     2    2
    17     1     3   am
    18     3     4    1
    19     4     5    1
    20     5     6   ar
    21     6     7   ar
    22     7    11    1
    23    11    12   ar
    24    12    13   ar
    25    13    14   ar
    26    14    15   ar
    27    15    16   ar
    28    16    17    1
    29     7     8   ar
    30     8     9   ar
    31     9    10    1
    32    23    18   ar
    33    10     3    1
    34     9     5   ar
    35    16    11   ar
@<TRIPOS>MOLECULE
*****
 32 35 0 0 0
SMALL
GASTEIGER

@<TRIPOS>ATOM
      1 C          -2.0088    5.2656   22.1861 C.2     1  UNL1        0.2525
      2 O          -1.4542    6.5819   22.6440 O.2     1  UNL1       -0.2698
      3 N          -1.0934    4.2246   21.6129 N.am    1  UNL1       -0.2660
      4 C          -1.5011    2.8693   21.1159 C.3     1  UNL1        0.1236
      5 C          -0.2692    2.1633   20.6320 C.ar    1  UNL1        0.0338
      6 C           0.2402    0.8894   20.0258 C.ar    1  UNL1        0.0991
      7 N           1.7239    1.0209   19.8490 N.ar    1  UNL1       -0.2265
      8 N           2.1315    2.3763   20.3461 N.ar    1  UNL1       -0.1679
      9 C           0.8997    3.0823   20.8300 C.ar    1  UNL1        0.0981
     10 C           0.3903    4.3562   21.4362 C.3     1  UNL1        0.1414
     11 C           2.6393   -0.0200   19.2759 C.ar    1  UNL1        0.1102
     12 C           3.1214    0.1024   17.8608 C.ar    1  UNL1        0.0214
     13 C           4.0369   -0.9385   17.2876 C.ar    1  UNL1        0.0017
     14 C           4.4701   -2.1019   18.1296 C.ar    1  UNL1        0.0024
     15 C           3.9880   -2.2242   19.5448 C.ar    1  UNL1        0.0312
     16 C           3.0726   -1.1834   20.1179 C.ar    1  UNL1        0.1577
     17 F           2.5904   -1.3057   21.5330 F       1  UNL1       -0.2026
     18 C          -4.0778    4.6602   23.6363 C.ar    1  UNL1        0.1426
     19 C          -5.5478    4.3849   23.7514 C.ar    1  UNL1        0.0384
     20 C          -6.4189    4.4395   22.5315 C.ar    1  UNL1        0.0215
     21 C          -5.8200    4.7695   21.1964 C.ar    1  UNL1        0.1061
     22 C          -4.3499    5.0449   21.0813 C.ar    1  UNL1        0.0259
     23 C          -3.4788    4.9902   22.3012 C.ar    1  UNL1        0.0887
     24 S          -6.6911    4.8242   19.9765 S.O2    1  UNL1        0.0105
     25 C          -7.5622    4.8789   18.7566 C.3     1  UNL1        0.1816
     26 O          -7.7033    5.6301   20.7354 O.2     1  UNL1       -0.1686
     27 O          -5.6788    4.0183   19.2176 O.2     1  UNL1       -0.1686
     28 O          -3.2067    4.6055   24.8562 O.3     1  UNL1       -0.4824
     29 C          -3.9032    3.9146   26.7371 C.3     1  UNL1        0.0436
     30 C          -3.6549    5.2627   26.1279 C.3     1  UNL1        0.1334
     31 C          -3.4067    6.6108   25.5186 C.3     1  UNL1        0.0436
     32 C          -4.1031    5.9199   27.3995 C.3     1  UNL1        0.0436
@<TRIPOS>BOND
     1    29    30    1
     2    30    31    1
     3    30    32    1
     4    30    28    1
     5    28    18    1
     6    18    19   ar
     7    19    20   ar
     8    20    21   ar
     9    21    24    1
    10    24    25    1
    11    24    26    2
    12    24    27    2
    13    21    22   ar
    14    22    23   ar
    15    23     1    1
    16     1     2    2
    17     1     3   am
    18     3     4    1
    19     4     5    1
    20     5     6   ar
    21     6     7   ar
    22     7    11    1
    23    11    12   ar
    24    12    13   ar
    25    13    14   ar
    26    14    15   ar
    27    15    16   ar
    28    16    17    1
    29     7     8   ar
    30     8     9   ar
    31     9    10    1
    32    23    18   ar
    33    10     3    1
    34     9     5   ar
    35    16    11   ar
@<TRIPOS>MOLECULE
*****
 32 35 0 0 0
SMALL
GASTEIGER

@<TRIPOS>ATOM
      1 C           8.0024   -2.2097   27.2279 C.2     1  UNL1        0.2525
      2 O           9.4084   -1.7100   27.0750 O.2     1  UNL1       -0.2698
      3 N           6.9589   -1.8340   26.2180 N.am    1  UNL1       -0.2660
      4 C           5.5195   -2.2555   26.2389 C.3     1  UNL1        0.1236
      5 C           4.8426   -1.6528   25.0437 C.ar    1  UNL1        0.0338
      6 C           3.5347   -1.5409   24.3179 C.ar    1  UNL1        0.0991
      7 N           3.7474   -0.6777   23.1096 N.ar    1  UNL1       -0.2265
      8 N           5.1869   -0.2563   23.0887 N.ar    1  UNL1       -0.1679
      9 C           5.8637   -0.8589   24.2840 C.ar    1  UNL1        0.0981
     10 C           7.1717   -0.9709   25.0098 C.3     1  UNL1        0.1414
     11 C           2.7040   -0.3020   22.0997 C.ar    1  UNL1        0.1102
     12 C           1.7273    0.7952   22.4030 C.ar    1  UNL1        0.0214
     13 C           0.6838    1.1710   21.3931 C.ar    1  UNL1        0.0017
     14 C           0.6170    0.4494   20.0798 C.ar    1  UNL1        0.0024
     15 C           1.5938   -0.6480   19.7764 C.ar    1  UNL1        0.0312
     16 C           2.6372   -1.0237   20.7863 C.ar    1  UNL1        0.1577
     17 F           3.6138   -2.1209   20.4830 F       1  UNL1       -0.2026
     18 C           7.9744   -4.5471   28.3621 C.ar    1  UNL1        0.1426
     19 C           7.6119   -5.4224   29.5250 C.ar    1  UNL1        0.0384
     20 C           6.9147   -4.8358   30.7166 C.ar    1  UNL1        0.0215
     21 C           6.5801   -3.3739   30.7454 C.ar    1  UNL1        0.1061
     22 C           6.9427   -2.4986   29.5824 C.ar    1  UNL1        0.0259
     23 C           7.6398   -3.0851   28.3908 C.ar    1  UNL1        0.0887
     24 S           5.8830   -2.7873   31.9370 S.O2    1  UNL1        0.0105
     25 C           5.1858   -2.2008   33.1286 C.3     1  UNL1        0.1816
     26 O           6.1618   -4.0385   32.7160 O.2     1  UNL1       -0.1686
     27 O           5.6042   -1.5361   31.1579 O.2     1  UNL1       -0.1686
     28 O           8.6716   -5.1336   27.1705 O.3     1  UNL1       -0.4824
     29 C           6.9412   -5.6865   26.0749 C.3     1  UNL1        0.0436
     30 C           8.1662   -6.4056   26.5569 C.3     1  UNL1        0.1334
     31 C           9.3912   -7.1247   27.0388 C.3     1  UNL1        0.0436
     32 C           7.6608   -7.6776   25.9433 C.3     1  UNL1        0.0436
@<TRIPOS>BOND
     1    29    30    1
     2    30    31    1
     3    30    32    1
     4    30    28    1
     5    28    18    1
     6    18    19   ar
     7    19    20   ar
     8    20    21   ar
     9    21    24    1
    10    24    25    1
    11    24    26    2
    12    24    27    2
    13    21    22   ar
    14    22    23   ar
    15    23     1    1
    16     1     2    2
    17     1     3   am
    18     3     4    1
    19     4     5    1
    20     5     6   ar
    21     6     7   ar
    22     7    11    1
    23    11    12   ar
    24    12    13   ar
    25    13    14   ar
    26    14    15   ar
    27    15    16   ar
    28    16    17    1
    29     7     8   ar
    30     8     9   ar
    31     9    10    1
    32    23    18   ar
    33    10     3    1
    34     9     5   ar
    35    16    11   ar
@<TRIPOS>MOLECULE
*****
 32 35 0 0 0
SMALL
GASTEIGER

@<TRIPOS>ATOM
      1 C           3.5781   -2.2491   20.1013 C.2     1  UNL1        0.2525
      2 O           3.2553   -3.4355   19.2421 O.2     1  UNL1       -0.2698
      3 N           4.2927   -2.4402   21.4062 N.am    1  UNL1       -0.2660
      4 C           4.6804   -1.3549   22.3663 C.3     1  UNL1        0.1236
      5 C           5.3724   -1.9942   23.5336 C.ar    1  UNL1        0.0338
      6 C           6.0396   -1.7185   24.8484 C.ar    1  UNL1        0.0991
      7 N           6.4920   -3.0285   25.4224 N.ar    1  UNL1       -0.2265
      8 N           6.1042   -4.1138   24.4622 N.ar    1  UNL1       -0.1679
      9 C           5.4122   -3.4745   23.2949 C.ar    1  UNL1        0.0981
     10 C           4.7450   -3.7502   21.9801 C.3     1  UNL1        0.1414
     11 C           7.2065   -3.2196   26.7272 C.ar    1  UNL1        0.1102
     12 C           6.5598   -2.7814   28.0077 C.ar    1  UNL1        0.0214
     13 C           7.2744   -2.9725   29.3127 C.ar    1  UNL1        0.0017
     14 C           8.6357   -3.6019   29.3371 C.ar    1  UNL1        0.0024
     15 C           9.2825   -4.0402   28.0566 C.ar    1  UNL1        0.0312
     16 C           8.5679   -3.8490   26.7517 C.ar    1  UNL1        0.1577
     17 F           9.2146   -4.2873   25.4712 F       1  UNL1       -0.2026
     18 C           4.0602   -0.1157   18.6988 C.ar    1  UNL1        0.1426
     19 C           3.6682    1.2618   18.2531 C.ar    1  UNL1        0.0384
     20 C           2.4024    1.8837   18.7640 C.ar    1  UNL1        0.0215
     21 C           1.5285    1.1280   19.7206 C.ar    1  UNL1        0.1061
     22 C           1.9204   -0.2496   20.1664 C.ar    1  UNL1        0.0259
     23 C           3.1862   -0.8715   19.6555 C.ar    1  UNL1        0.0887
     24 S           0.2627    1.7499   20.2315 S.O2    1  UNL1        0.0105
     25 C          -1.0031    2.3718   20.7423 C.3     1  UNL1        0.1816
     26 O           0.7547    3.1013   19.8055 O.2     1  UNL1       -0.1686
     27 O          -0.2293    0.3984   20.6575 O.2     1  UNL1       -0.1686
     28 O           5.3260   -0.7376   18.1880 O.3     1  UNL1       -0.4824
     29 C           6.4188    0.3266   16.7138 C.3     1  UNL1        0.0436
     30 C           6.5998    0.0545   18.1778 C.3     1  UNL1        0.1334
     31 C           6.7806   -0.2178   19.6418 C.3     1  UNL1        0.0436
     32 C           7.8735    0.8465   18.1676 C.3     1  UNL1        0.0436
@<TRIPOS>BOND
     1    29    30    1
     2    30    31    1
     3    30    32    1
     4    30    28    1
     5    28    18    1
     6    18    19   ar
     7    19    20   ar
     8    20    21   ar
     9    21    24    1
    10    24    25    1
    11    24    26    2
    12    24    27    2
    13    21    22   ar
    14    22    23   ar
    15    23     1    1
    16     1     2    2
    17     1     3   am
    18     3     4    1
    19     4     5    1
    20     5     6   ar
    21     6     7   ar
    22     7    11    1
    23    11    12   ar
    24    12    13   ar
    25    13    14   ar
    26    14    15   ar
    27    15    16   ar
    28    16    17    1
    29     7     8   ar
    30     8     9   ar
    31     9    10    1
    32    23    18   ar
    33    10     3    1
    34     9     5   ar
    35    16    11   ar
