@<TRIPOS>MOLECULE
*****
 34 39 0 0 0
SMALL
GASTEIGER

@<TRIPOS>ATOM
      1 O           5.8065   -2.8122   18.9618 O.2     1  UNL1       -0.2526
      2 C           5.2060   -2.1977   20.1914 C.2     1  UNL1        0.3039
      3 N           5.7483   -2.5467   21.5456 N.am    1  UNL1       -0.2901
      4 N           4.0631   -1.2342   20.0667 N.am    1  UNL1       -0.2642
      5 C           3.5208   -0.8852   18.7124 C.3     1  UNL1        0.0954
      6 C           2.3779    0.0783   18.5878 C.3     1  UNL1        0.0309
      7 C           1.7774    0.6928   19.8174 C.3     1  UNL1        0.0827
      8 C           2.3198    0.3438   21.1716 C.3     1  UNL1        0.0309
      9 C           3.4626   -0.6197   21.2963 C.3     1  UNL1        0.0954
     10 H           5.3542   -2.1434   22.3526 H       1  UNL1        0.1509
     11 C           0.6346    1.6563   19.6927 C.ar    1  UNL1        0.2362
     12 N          -0.5919    1.6858   20.5558 N.ar    1  UNL1       -0.1895
     13 C          -1.4669    2.8072   20.0795 C.ar    1  UNL1        0.2210
     14 N          -0.7813    3.4707   18.9221 N.ar    1  UNL1       -0.0544
     15 O           0.5175    2.7594   18.6830 O.2     1  UNL1       -0.3370
     16 C          -2.7946    3.1967   20.6590 C.ar    1  UNL1        0.1202
     17 C          -3.9434    3.5208   19.7506 C.ar    1  UNL1        0.0224
     18 C          -5.2709    3.9103   20.3300 C.ar    1  UNL1        0.0031
     19 C          -5.4498    3.9756   21.8179 C.ar    1  UNL1        0.0177
     20 C          -6.7774    4.3651   22.3973 C.ar    1  UNL1        0.0015
     21 C          -6.9562    4.4304   23.8852 C.ar    1  UNL1        0.0001
     22 C          -5.8074    4.1063   24.7936 C.ar    1  UNL1        0.0015
     23 C          -4.4798    3.7168   24.2142 C.ar    1  UNL1        0.0191
     24 C          -4.3010    3.6515   22.7263 C.ar    1  UNL1        0.0814
     25 N          -2.9734    3.2620   22.1469 N.ar    1  UNL1       -0.2422
     26 C           6.8912   -3.5103   21.6704 C.3     1  UNL1        0.0774
     27 C           8.1459   -4.1161   21.1149 C.3     1  UNL1        0.0259
     28 C           7.6160   -4.5731   22.4417 C.3     1  UNL1        0.0420
     29 C           7.7284   -5.4506   23.6531 C.ar    1  UNL1       -0.0208
     30 C           7.1241   -5.0136   24.9544 C.ar    1  UNL1       -0.0042
     31 C           7.2365   -5.8911   26.1658 C.ar    1  UNL1       -0.0003
     32 C           7.9533   -7.2056   26.0757 C.ar    1  UNL1       -0.0000
     33 C           8.5578   -7.6426   24.7743 C.ar    1  UNL1       -0.0003
     34 C           8.4453   -6.7652   23.5630 C.ar    1  UNL1       -0.0042
@<TRIPOS>BOND
     1     1     2    2
     2     2     3   am
     3     3    26    1
     4    26    27    1
     5    27    28    1
     6    28    29    1
     7    29    30   ar
     8    30    31   ar
     9    31    32   ar
    10    32    33   ar
    11    33    34   ar
    12     2     4   am
    13     4     5    1
    14     5     6    1
    15     6     7    1
    16     7    11    1
    17    11    12   ar
    18    12    13   ar
    19    13    16    1
    20    16    17   ar
    21    17    18   ar
    22    18    19   ar
    23    19    20   ar
    24    20    21   ar
    25    21    22   ar
    26    22    23   ar
    27    23    24   ar
    28    24    25   ar
    29    13    14   ar
    30    14    15   ar
    31     7     8    1
    32     8     9    1
    33    28    26    1
    34    34    29   ar
    35     9     4    1
    36    15    11   ar
    37    25    16   ar
    38    24    19   ar
    39     3    10    1
@<TRIPOS>MOLECULE
*****
 34 39 0 0 0
SMALL
GASTEIGER

@<TRIPOS>ATOM
      1 O           6.0324    2.2634   35.0094 O.2     1  UNL1       -0.2526
      2 C           4.9901    1.2154   34.7535 C.2     1  UNL1        0.3039
      3 N           3.5787    1.4337   35.2121 N.am    1  UNL1       -0.2901
      4 N           5.3592   -0.0508   34.0392 N.am    1  UNL1       -0.2642
      5 C           6.7706   -0.2691   33.5806 C.3     1  UNL1        0.0954
      6 C           7.1397   -1.5353   32.8662 C.3     1  UNL1        0.0309
      7 C           6.0974   -2.5833   32.6104 C.3     1  UNL1        0.0827
      8 C           4.6860   -2.3650   33.0689 C.3     1  UNL1        0.0309
      9 C           4.3169   -1.0987   33.7833 C.3     1  UNL1        0.0954
     10 H           2.8946    0.7459   35.0441 H       1  UNL1        0.1509
     11 C           6.4665   -3.8495   31.8960 C.ar    1  UNL1        0.2362
     12 N           6.8695   -3.9639   30.4556 N.ar    1  UNL1       -0.1895
     13 C           7.1494   -5.4088   30.1660 C.ar    1  UNL1        0.2210
     14 N           6.9194   -6.1875   31.4273 N.ar    1  UNL1       -0.0544
     15 O           6.4973   -5.2238   32.4965 O.2     1  UNL1       -0.3370
     16 C           7.5833   -5.9756   28.8466 C.ar    1  UNL1        0.1202
     17 C           8.3290   -7.2761   28.7978 C.ar    1  UNL1        0.0224
     18 C           8.7628   -7.8429   27.4786 C.ar    1  UNL1        0.0031
     19 C           8.4509   -7.1091   26.2080 C.ar    1  UNL1        0.0177
     20 C           8.8847   -7.6758   24.8887 C.ar    1  UNL1        0.0015
     21 C           8.5727   -6.9420   23.6182 C.ar    1  UNL1        0.0001
     22 C           7.8270   -5.6415   23.6670 C.ar    1  UNL1        0.0015
     23 C           7.3932   -5.0747   24.9863 C.ar    1  UNL1        0.0191
     24 C           7.7051   -5.8085   26.2568 C.ar    1  UNL1        0.0814
     25 N           7.2713   -5.2418   27.5762 N.ar    1  UNL1       -0.2422
     26 C           3.2095    2.7000   35.9265 C.3     1  UNL1        0.0774
     27 C           3.4052    3.6505   37.0702 C.3     1  UNL1        0.0259
     28 C           2.3746    3.9426   36.0202 C.3     1  UNL1        0.0420
     29 C           1.2975    4.8287   35.4680 C.ar    1  UNL1       -0.0208
     30 C           0.6343    5.8429   36.3519 C.ar    1  UNL1       -0.0042
     31 C          -0.4427    6.7290   35.7998 C.ar    1  UNL1       -0.0003
     32 C          -0.8566    6.6007   34.3638 C.ar    1  UNL1       -0.0000
     33 C          -0.1934    5.5864   33.4798 C.ar    1  UNL1       -0.0003
     34 C           0.8836    4.7004   34.0320 C.ar    1  UNL1       -0.0042
@<TRIPOS>BOND
     1     1     2    2
     2     2     3   am
     3     3    26    1
     4    26    27    1
     5    27    28    1
     6    28    29    1
     7    29    30   ar
     8    30    31   ar
     9    31    32   ar
    10    32    33   ar
    11    33    34   ar
    12     2     4   am
    13     4     5    1
    14     5     6    1
    15     6     7    1
    16     7    11    1
    17    11    12   ar
    18    12    13   ar
    19    13    16    1
    20    16    17   ar
    21    17    18   ar
    22    18    19   ar
    23    19    20   ar
    24    20    21   ar
    25    21    22   ar
    26    22    23   ar
    27    23    24   ar
    28    24    25   ar
    29    13    14   ar
    30    14    15   ar
    31     7     8    1
    32     8     9    1
    33    28    26    1
    34    34    29   ar
    35     9     4    1
    36    15    11   ar
    37    25    16   ar
    38    24    19   ar
    39     3    10    1
@<TRIPOS>MOLECULE
*****
 34 39 0 0 0
SMALL
GASTEIGER

@<TRIPOS>ATOM
      1 O           0.6809    0.3729   18.8467 O.2     1  UNL1       -0.2526
      2 C           1.1143    0.4718   20.2793 C.2     1  UNL1        0.3039
      3 N           0.5074    1.5093   21.1766 N.am    1  UNL1       -0.2901
      4 N           2.1545   -0.4670   20.8147 N.am    1  UNL1       -0.2642
      5 C           2.7614   -1.5045   19.9174 C.3     1  UNL1        0.0954
      6 C           3.8017   -2.4433   20.4528 C.3     1  UNL1        0.0309
      7 C           4.2350   -2.3444   21.8854 C.3     1  UNL1        0.0827
      8 C           3.6281   -1.3069   22.7827 C.3     1  UNL1        0.0309
      9 C           2.5879   -0.3681   22.2473 C.3     1  UNL1        0.0954
     10 H           0.7918    1.5742   22.1169 H       1  UNL1        0.1509
     11 C           5.2753   -3.2831   22.4208 C.ar    1  UNL1        0.2362
     12 N           5.6096   -3.4965   23.8675 N.ar    1  UNL1       -0.1895
     13 C           6.7048   -4.5186   23.9442 C.ar    1  UNL1        0.2210
     14 N           7.0474   -4.9370   22.5451 N.ar    1  UNL1       -0.0544
     15 O           6.1639   -4.1735   21.6036 O.2     1  UNL1       -0.3370
     16 C           7.3451   -5.0321   25.1998 C.ar    1  UNL1        0.1202
     17 C           8.6883   -5.6970   25.1389 C.ar    1  UNL1        0.0224
     18 C           9.3286   -6.2105   26.3944 C.ar    1  UNL1        0.0031
     19 C           8.6256   -6.0591   27.7109 C.ar    1  UNL1        0.0177
     20 C           9.2659   -6.5727   28.9664 C.ar    1  UNL1        0.0015
     21 C           8.5629   -6.4213   30.2828 C.ar    1  UNL1        0.0001
     22 C           7.2197   -5.7564   30.3437 C.ar    1  UNL1        0.0015
     23 C           6.5795   -5.2429   29.0882 C.ar    1  UNL1        0.0191
     24 C           7.2824   -5.3943   27.7718 C.ar    1  UNL1        0.0814
     25 N           6.6422   -4.8807   26.5162 N.ar    1  UNL1       -0.2422
     26 C          -0.5329    2.4481   20.6412 C.3     1  UNL1        0.0774
     27 C          -1.0180    3.3714   19.5632 C.3     1  UNL1        0.0259
     28 C          -1.8494    3.1508   20.7920 C.3     1  UNL1        0.0420
     29 C          -3.0897    3.4292   21.5885 C.ar    1  UNL1       -0.0208
     30 C          -2.9963    3.6499   23.0692 C.ar    1  UNL1       -0.0042
     31 C          -4.2364    3.9283   23.8657 C.ar    1  UNL1       -0.0003
     32 C          -5.5700    3.9860   23.1815 C.ar    1  UNL1       -0.0000
     33 C          -5.6635    3.7653   21.7008 C.ar    1  UNL1       -0.0003
     34 C          -4.4233    3.4869   20.9043 C.ar    1  UNL1       -0.0042
@<TRIPOS>BOND
     1     1     2    2
     2     2     3   am
     3     3    26    1
     4    26    27    1
     5    27    28    1
     6    28    29    1
     7    29    30   ar
     8    30    31   ar
     9    31    32   ar
    10    32    33   ar
    11    33    34   ar
    12     2     4   am
    13     4     5    1
    14     5     6    1
    15     6     7    1
    16     7    11    1
    17    11    12   ar
    18    12    13   ar
    19    13    16    1
    20    16    17   ar
    21    17    18   ar
    22    18    19   ar
    23    19    20   ar
    24    20    21   ar
    25    21    22   ar
    26    22    23   ar
    27    23    24   ar
    28    24    25   ar
    29    13    14   ar
    30    14    15   ar
    31     7     8    1
    32     8     9    1
    33    28    26    1
    34    34    29   ar
    35     9     4    1
    36    15    11   ar
    37    25    16   ar
    38    24    19   ar
    39     3    10    1
@<TRIPOS>MOLECULE
*****
 34 39 0 0 0
SMALL
GASTEIGER

@<TRIPOS>ATOM
      1 O           5.0355   -0.9589   24.8771 O.2     1  UNL1       -0.2526
      2 C           3.8171   -0.6438   25.6933 C.2     1  UNL1        0.3039
      3 N           2.5474   -0.2236   25.0141 N.am    1  UNL1       -0.2901
      4 N           3.8683   -0.7490   27.1887 N.am    1  UNL1       -0.2642
      5 C           5.1380   -1.1692   27.8679 C.3     1  UNL1        0.0954
      6 C           5.1892   -1.2743   29.3633 C.3     1  UNL1        0.0309
      7 C           3.9708   -0.9593   30.1796 C.3     1  UNL1        0.0827
      8 C           2.7011   -0.5390   29.5003 C.3     1  UNL1        0.0309
      9 C           2.6499   -0.4339   28.0049 C.3     1  UNL1        0.0954
     10 H           1.7477   -0.0168   25.5498 H       1  UNL1        0.1509
     11 C           4.0220   -1.0644   31.6750 C.ar    1  UNL1        0.2362
     12 N           4.3566    0.0463   32.6260 N.ar    1  UNL1       -0.1895
     13 C           4.2890   -0.5016   34.0207 C.ar    1  UNL1        0.2210
     14 N           3.9127   -1.9509   33.9317 N.ar    1  UNL1       -0.0544
     15 O           3.7477   -2.2987   32.4820 O.2     1  UNL1       -0.3370
     16 C           4.5517    0.2653   35.2829 C.ar    1  UNL1        0.1202
     17 C           5.7703   -0.0363   36.1038 C.ar    1  UNL1        0.0224
     18 C           6.0330    0.7305   37.3660 C.ar    1  UNL1        0.0031
     19 C           5.0770    1.7989   37.8072 C.ar    1  UNL1        0.0177
     20 C           5.3397    2.5657   39.0693 C.ar    1  UNL1        0.0015
     21 C           4.3837    3.6340   39.5105 C.ar    1  UNL1        0.0001
     22 C           3.1651    3.9356   38.6896 C.ar    1  UNL1        0.0015
     23 C           2.9024    3.1688   37.4275 C.ar    1  UNL1        0.0191
     24 C           3.8584    2.1004   36.9863 C.ar    1  UNL1        0.0814
     25 N           3.5957    1.3336   35.7241 N.ar    1  UNL1       -0.2422
     26 C           2.4961   -0.1184   23.5186 C.3     1  UNL1        0.0774
     27 C           2.0954    0.6301   22.2821 C.3     1  UNL1        0.0259
     28 C           2.8079   -0.6847   22.1651 C.3     1  UNL1        0.0420
     29 C           3.3993   -1.7708   21.3161 C.ar    1  UNL1       -0.0208
     30 C           3.1084   -1.8152   19.8453 C.ar    1  UNL1       -0.0042
     31 C           3.6998   -2.9012   18.9963 C.ar    1  UNL1       -0.0003
     32 C           4.5820   -3.9428   19.6181 C.ar    1  UNL1       -0.0000
     33 C           4.8729   -3.8984   21.0890 C.ar    1  UNL1       -0.0003
     34 C           4.2816   -2.8124   21.9379 C.ar    1  UNL1       -0.0042
@<TRIPOS>BOND
     1     1     2    2
     2     2     3   am
     3     3    26    1
     4    26    27    1
     5    27    28    1
     6    28    29    1
     7    29    30   ar
     8    30    31   ar
     9    31    32   ar
    10    32    33   ar
    11    33    34   ar
    12     2     4   am
    13     4     5    1
    14     5     6    1
    15     6     7    1
    16     7    11    1
    17    11    12   ar
    18    12    13   ar
    19    13    16    1
    20    16    17   ar
    21    17    18   ar
    22    18    19   ar
    23    19    20   ar
    24    20    21   ar
    25    21    22   ar
    26    22    23   ar
    27    23    24   ar
    28    24    25   ar
    29    13    14   ar
    30    14    15   ar
    31     7     8    1
    32     8     9    1
    33    28    26    1
    34    34    29   ar
    35     9     4    1
    36    15    11   ar
    37    25    16   ar
    38    24    19   ar
    39     3    10    1
@<TRIPOS>MOLECULE
*****
 34 39 0 0 0
SMALL
GASTEIGER

@<TRIPOS>ATOM
      1 O           4.2463   -1.1300   23.5868 O.2     1  UNL1       -0.2526
      2 C           4.4858   -1.6562   24.9709 C.2     1  UNL1        0.3039
      3 N           5.4226   -2.8083   25.1836 N.am    1  UNL1       -0.2901
      4 N           3.7886   -1.0304   26.1423 N.am    1  UNL1       -0.2642
      5 C           2.8519    0.1217   25.9296 C.3     1  UNL1        0.0954
      6 C           2.1547    0.7475   27.1010 C.3     1  UNL1        0.0309
      7 C           2.3942    0.2213   28.4851 C.3     1  UNL1        0.0827
      8 C           3.3309   -0.9308   28.6978 C.3     1  UNL1        0.0309
      9 C           4.0282   -1.5566   27.5264 C.3     1  UNL1        0.0954
     10 H           5.5798   -3.1536   26.0921 H       1  UNL1        0.1509
     11 C           1.6970    0.8471   29.6565 C.ar    1  UNL1        0.2362
     12 N           2.3613    1.5067   30.8286 N.ar    1  UNL1       -0.1895
     13 C           1.2879    1.9905   31.7579 C.ar    1  UNL1        0.2210
     14 N          -0.0398    1.6299   31.1604 N.ar    1  UNL1       -0.0544
     15 O           0.2130    0.9232   29.8616 O.2     1  UNL1       -0.3370
     16 C           1.5042    2.7088   33.0569 C.ar    1  UNL1        0.1202
     17 C           1.0023    4.1115   33.2309 C.ar    1  UNL1        0.0224
     18 C           1.2186    4.8298   34.5298 C.ar    1  UNL1        0.0031
     19 C           1.9370    4.1454   35.6548 C.ar    1  UNL1        0.0177
     20 C           2.1533    4.8637   36.9537 C.ar    1  UNL1        0.0015
     21 C           2.8716    4.1792   38.0786 C.ar    1  UNL1        0.0001
     22 C           3.3736    2.7764   37.9047 C.ar    1  UNL1        0.0015
     23 C           3.1573    2.0581   36.6058 C.ar    1  UNL1        0.0191
     24 C           2.4390    2.7426   35.4808 C.ar    1  UNL1        0.0814
     25 N           2.2226    2.0243   34.1818 N.ar    1  UNL1       -0.2422
     26 C           6.1199   -3.4342   24.0122 C.3     1  UNL1        0.0774
     27 C           7.2269   -4.2833   23.4615 C.3     1  UNL1        0.0259
     28 C           6.2205   -3.6691   22.5342 C.3     1  UNL1        0.0420
     29 C           5.6975   -3.4502   21.1454 C.ar    1  UNL1       -0.0208
     30 C           4.3162   -3.9093   20.7832 C.ar    1  UNL1       -0.0042
     31 C           3.7932   -3.6904   19.3945 C.ar    1  UNL1       -0.0003
     32 C           4.6515   -3.0123   18.3680 C.ar    1  UNL1       -0.0000
     33 C           6.0328   -2.5532   18.7303 C.ar    1  UNL1       -0.0003
     34 C           6.5558   -2.7721   20.1190 C.ar    1  UNL1       -0.0042
@<TRIPOS>BOND
     1     1     2    2
     2     2     3   am
     3     3    26    1
     4    26    27    1
     5    27    28    1
     6    28    29    1
     7    29    30   ar
     8    30    31   ar
     9    31    32   ar
    10    32    33   ar
    11    33    34   ar
    12     2     4   am
    13     4     5    1
    14     5     6    1
    15     6     7    1
    16     7    11    1
    17    11    12   ar
    18    12    13   ar
    19    13    16    1
    20    16    17   ar
    21    17    18   ar
    22    18    19   ar
    23    19    20   ar
    24    20    21   ar
    25    21    22   ar
    26    22    23   ar
    27    23    24   ar
    28    24    25   ar
    29    13    14   ar
    30    14    15   ar
    31     7     8    1
    32     8     9    1
    33    28    26    1
    34    34    29   ar
    35     9     4    1
    36    15    11   ar
    37    25    16   ar
    38    24    19   ar
    39     3    10    1
@<TRIPOS>MOLECULE
*****
 34 39 0 0 0
SMALL
GASTEIGER

@<TRIPOS>ATOM
      1 O           3.5031    0.1652   22.6886 O.2     1  UNL1       -0.2526
      2 C           2.1441    0.5529   23.1917 C.2     1  UNL1        0.3039
      3 N           1.0155    0.7538   22.2243 N.am    1  UNL1       -0.2901
      4 N           1.9139    0.7396   24.6621 N.am    1  UNL1       -0.2642
      5 C           3.0425    0.5386   25.6294 C.3     1  UNL1        0.0954
      6 C           2.8122    0.7253   27.0998 C.3     1  UNL1        0.0309
      7 C           1.4533    1.1130   27.6028 C.3     1  UNL1        0.0827
      8 C           0.3247    1.3140   26.6355 C.3     1  UNL1        0.0309
      9 C           0.5549    1.1273   25.1651 C.3     1  UNL1        0.0954
     10 H           0.1236    1.0083   22.5545 H       1  UNL1        0.1509
     11 C           1.2230    1.2997   29.0732 C.ar    1  UNL1        0.2362
     12 N           2.2799    1.3031   30.1378 N.ar    1  UNL1       -0.1895
     13 C           1.6054    1.5213   31.4597 C.ar    1  UNL1        0.2210
     14 N           0.1318    1.6528   31.2123 N.ar    1  UNL1       -0.0544
     15 O          -0.1045    1.5158   29.7374 O.2     1  UNL1       -0.3370
     16 C           2.2853    1.5951   32.7948 C.ar    1  UNL1        0.1202
     17 C           1.9390    2.6960   33.7530 C.ar    1  UNL1        0.0224
     18 C           2.6189    2.7698   35.0880 C.ar    1  UNL1        0.0031
     19 C           3.6451    1.7427   35.4649 C.ar    1  UNL1        0.0177
     20 C           4.3249    1.8165   36.7999 C.ar    1  UNL1        0.0015
     21 C           5.3510    0.7894   37.1768 C.ar    1  UNL1        0.0001
     22 C           5.6973   -0.3115   36.2186 C.ar    1  UNL1        0.0015
     23 C           5.0175   -0.3854   34.8836 C.ar    1  UNL1        0.0191
     24 C           3.9913    0.6417   34.5068 C.ar    1  UNL1        0.0814
     25 N           3.3114    0.5680   33.1717 N.ar    1  UNL1       -0.2422
     26 C           1.2457    0.5671   20.7538 C.3     1  UNL1        0.0774
     27 C           0.8867    0.8837   19.3323 C.3     1  UNL1        0.0259
     28 C           2.0035   -0.0728   19.6286 C.3     1  UNL1        0.0420
     29 C           3.0859   -0.9945   19.1500 C.ar    1  UNL1       -0.0208
     30 C           3.1909   -2.3822   19.7095 C.ar    1  UNL1       -0.0042
     31 C           4.2732   -3.3039   19.2309 C.ar    1  UNL1       -0.0003
     32 C           5.2504   -2.8379   18.1927 C.ar    1  UNL1       -0.0000
     33 C           5.1453   -1.4501   17.6331 C.ar    1  UNL1       -0.0003
     34 C           4.0630   -0.5285   18.1117 C.ar    1  UNL1       -0.0042
@<TRIPOS>BOND
     1     1     2    2
     2     2     3   am
     3     3    26    1
     4    26    27    1
     5    27    28    1
     6    28    29    1
     7    29    30   ar
     8    30    31   ar
     9    31    32   ar
    10    32    33   ar
    11    33    34   ar
    12     2     4   am
    13     4     5    1
    14     5     6    1
    15     6     7    1
    16     7    11    1
    17    11    12   ar
    18    12    13   ar
    19    13    16    1
    20    16    17   ar
    21    17    18   ar
    22    18    19   ar
    23    19    20   ar
    24    20    21   ar
    25    21    22   ar
    26    22    23   ar
    27    23    24   ar
    28    24    25   ar
    29    13    14   ar
    30    14    15   ar
    31     7     8    1
    32     8     9    1
    33    28    26    1
    34    34    29   ar
    35     9     4    1
    36    15    11   ar
    37    25    16   ar
    38    24    19   ar
    39     3    10    1
@<TRIPOS>MOLECULE
*****
 34 39 0 0 0
SMALL
GASTEIGER

@<TRIPOS>ATOM
      1 O           3.1108    0.0925   23.5246 O.2     1  UNL1       -0.2526
      2 C           3.4753   -0.8031   24.6714 C.2     1  UNL1        0.3039
      3 N           4.1430   -2.1208   24.4112 N.am    1  UNL1       -0.2901
      4 N           3.1721   -0.3809   26.0785 N.am    1  UNL1       -0.2642
      5 C           2.5045    0.9369   26.3388 C.3     1  UNL1        0.0954
      6 C           2.2013    1.3590   27.7458 C.3     1  UNL1        0.0309
      7 C           2.5658    0.4635   28.8926 C.3     1  UNL1        0.0827
      8 C           3.2335   -0.8543   28.6323 C.3     1  UNL1        0.0309
      9 C           3.5367   -1.2765   27.2253 C.3     1  UNL1        0.0954
     10 H           4.3822   -2.7086   25.1639 H       1  UNL1        0.1509
     11 C           2.2627    0.8856   30.2997 C.ar    1  UNL1        0.2362
     12 N           3.2233    0.8687   31.4517 N.ar    1  UNL1       -0.1895
     13 C           2.4999    1.3715   32.6658 C.ar    1  UNL1        0.2210
     14 N           1.0923    1.6992   32.2642 N.ar    1  UNL1       -0.0544
     15 O           0.9457    1.3989   30.8019 O.2     1  UNL1       -0.3370
     16 C           3.0821    1.5204   34.0402 C.ar    1  UNL1        0.1202
     17 C           4.3890    0.8653   34.3761 C.ar    1  UNL1        0.0224
     18 C           4.9712    1.0143   35.7505 C.ar    1  UNL1        0.0031
     19 C           4.2464    1.8183   36.7890 C.ar    1  UNL1        0.0177
     20 C           4.8286    1.9672   38.1633 C.ar    1  UNL1        0.0015
     21 C           4.1038    2.7712   39.2017 C.ar    1  UNL1        0.0001
     22 C           2.7969    3.4263   38.8657 C.ar    1  UNL1        0.0015
     23 C           2.2148    3.2774   37.4914 C.ar    1  UNL1        0.0191
     24 C           2.9395    2.4734   36.4530 C.ar    1  UNL1        0.0814
     25 N           2.3574    2.3244   35.0786 N.ar    1  UNL1       -0.2422
     26 C           4.4461   -2.5431   23.0040 C.3     1  UNL1        0.0774
     27 C           5.1104   -3.4863   22.0455 C.3     1  UNL1        0.0259
     28 C           4.3070   -2.3312   21.5257 C.3     1  UNL1        0.0420
     29 C           3.7627   -1.5419   20.3720 C.ar    1  UNL1       -0.0208
     30 C           2.3388   -1.0709   20.3908 C.ar    1  UNL1       -0.0042
     31 C           1.7945   -0.2817   19.2372 C.ar    1  UNL1       -0.0003
     32 C           2.6743    0.0364   18.0647 C.ar    1  UNL1       -0.0000
     33 C           4.0983   -0.4346   18.0458 C.ar    1  UNL1       -0.0003
     34 C           4.6425   -1.2238   19.1995 C.ar    1  UNL1       -0.0042
@<TRIPOS>BOND
     1     1     2    2
     2     2     3   am
     3     3    26    1
     4    26    27    1
     5    27    28    1
     6    28    29    1
     7    29    30   ar
     8    30    31   ar
     9    31    32   ar
    10    32    33   ar
    11    33    34   ar
    12     2     4   am
    13     4     5    1
    14     5     6    1
    15     6     7    1
    16     7    11    1
    17    11    12   ar
    18    12    13   ar
    19    13    16    1
    20    16    17   ar
    21    17    18   ar
    22    18    19   ar
    23    19    20   ar
    24    20    21   ar
    25    21    22   ar
    26    22    23   ar
    27    23    24   ar
    28    24    25   ar
    29    13    14   ar
    30    14    15   ar
    31     7     8    1
    32     8     9    1
    33    28    26    1
    34    34    29   ar
    35     9     4    1
    36    15    11   ar
    37    25    16   ar
    38    24    19   ar
    39     3    10    1
@<TRIPOS>MOLECULE
*****
 34 39 0 0 0
SMALL
GASTEIGER

@<TRIPOS>ATOM
      1 O           3.7255    1.9702   34.2058 O.2     1  UNL1       -0.2526
      2 C           4.6588    0.8209   33.9642 C.2     1  UNL1        0.3039
      3 N           5.4345    0.2321   35.1050 N.am    1  UNL1       -0.2901
      4 N           4.8163    0.2606   32.5818 N.am    1  UNL1       -0.2642
      5 C           4.0405    0.8494   31.4410 C.3     1  UNL1        0.0954
      6 C           4.1980    0.2890   30.0585 C.3     1  UNL1        0.0309
      7 C           5.1312   -0.8602   29.8169 C.3     1  UNL1        0.0827
      8 C           5.9070   -1.4490   30.9577 C.3     1  UNL1        0.0309
      9 C           5.7495   -0.8887   32.3401 C.3     1  UNL1        0.0954
     10 H           6.0470   -0.5222   34.9464 H       1  UNL1        0.1509
     11 C           5.2887   -1.4206   28.4345 C.ar    1  UNL1        0.2362
     12 N           4.4937   -1.0231   27.2261 N.ar    1  UNL1       -0.1895
     13 C           4.9826   -1.8338   26.0625 C.ar    1  UNL1        0.2210
     14 N           6.0796   -2.7321   26.5516 N.ar    1  UNL1       -0.0544
     15 O           6.2689   -2.4768   28.0176 O.2     1  UNL1       -0.3370
     16 C           4.4651   -1.7590   24.6565 C.ar    1  UNL1        0.1202
     17 C           3.5996   -0.6083   24.2361 C.ar    1  UNL1        0.0224
     18 C           3.0821   -0.5335   22.8302 C.ar    1  UNL1        0.0031
     19 C           3.4301   -1.6095   21.8446 C.ar    1  UNL1        0.0177
     20 C           2.9127   -1.5347   20.4387 C.ar    1  UNL1        0.0015
     21 C           3.2607   -2.6107   19.4533 C.ar    1  UNL1        0.0001
     22 C           4.1262   -3.7614   19.8737 C.ar    1  UNL1        0.0015
     23 C           4.6437   -3.8362   21.2796 C.ar    1  UNL1        0.0191
     24 C           4.2956   -2.7602   22.2651 C.ar    1  UNL1        0.0814
     25 N           4.8131   -2.8350   23.6711 N.ar    1  UNL1       -0.2422
     26 C           5.2771    0.7925   36.4875 C.3     1  UNL1        0.0774
     27 C           5.8863    1.2863   37.7661 C.3     1  UNL1        0.0259
     28 C           4.3952    1.2692   37.6033 C.3     1  UNL1        0.0420
     29 C           3.0252    1.5346   38.1535 C.ar    1  UNL1       -0.0208
     30 C           2.3220    0.4801   38.9557 C.ar    1  UNL1       -0.0042
     31 C           0.9521    0.7455   39.5060 C.ar    1  UNL1       -0.0003
     32 C           0.2853    2.0653   39.2540 C.ar    1  UNL1       -0.0000
     33 C           0.9885    3.1198   38.4517 C.ar    1  UNL1       -0.0003
     34 C           2.3584    2.8544   37.9015 C.ar    1  UNL1       -0.0042
@<TRIPOS>BOND
     1     1     2    2
     2     2     3   am
     3     3    26    1
     4    26    27    1
     5    27    28    1
     6    28    29    1
     7    29    30   ar
     8    30    31   ar
     9    31    32   ar
    10    32    33   ar
    11    33    34   ar
    12     2     4   am
    13     4     5    1
    14     5     6    1
    15     6     7    1
    16     7    11    1
    17    11    12   ar
    18    12    13   ar
    19    13    16    1
    20    16    17   ar
    21    17    18   ar
    22    18    19   ar
    23    19    20   ar
    24    20    21   ar
    25    21    22   ar
    26    22    23   ar
    27    23    24   ar
    28    24    25   ar
    29    13    14   ar
    30    14    15   ar
    31     7     8    1
    32     8     9    1
    33    28    26    1
    34    34    29   ar
    35     9     4    1
    36    15    11   ar
    37    25    16   ar
    38    24    19   ar
    39     3    10    1
@<TRIPOS>MOLECULE
*****
 34 39 0 0 0
SMALL
GASTEIGER

@<TRIPOS>ATOM
      1 O           3.3571    0.4291   22.6298 O.2     1  UNL1       -0.2526
      2 C           1.9505    0.7306   23.0549 C.2     1  UNL1        0.3039
      3 N           0.8519    0.7748   22.0346 N.am    1  UNL1       -0.2901
      4 N           1.6426    0.9879   24.5002 N.am    1  UNL1       -0.2642
      5 C           2.7412    0.9437   25.5205 C.3     1  UNL1        0.0954
      6 C           2.4333    1.2009   26.9658 C.3     1  UNL1        0.0309
      7 C           1.0267    1.5024   27.3908 C.3     1  UNL1        0.0827
      8 C          -0.0720    1.5466   26.3705 C.3     1  UNL1        0.0309
      9 C           0.2360    1.2893   24.9252 C.3     1  UNL1        0.0954
     10 H          -0.0713    0.9726   22.3136 H       1  UNL1        0.1509
     11 C           0.7187    1.7596   28.8361 C.ar    1  UNL1        0.2362
     12 N           0.9552    3.0448   29.5728 N.ar    1  UNL1       -0.1895
     13 C           0.5028    2.8563   30.9905 C.ar    1  UNL1        0.2210
     14 N          -0.0132    1.4548   31.1301 N.ar    1  UNL1       -0.0544
     15 O           0.1202    0.7770   29.7986 O.2     1  UNL1       -0.3370
     16 C           0.5570    3.8883   32.0778 C.ar    1  UNL1        0.1202
     17 C          -0.0467    5.2435   31.8563 C.ar    1  UNL1        0.0224
     18 C           0.0075    6.2754   32.9436 C.ar    1  UNL1        0.0031
     19 C           0.6653    5.9522   34.2524 C.ar    1  UNL1        0.0177
     20 C           0.7195    6.9842   35.3396 C.ar    1  UNL1        0.0015
     21 C           1.3772    6.6609   36.6483 C.ar    1  UNL1        0.0001
     22 C           1.9809    5.3057   36.8698 C.ar    1  UNL1        0.0015
     23 C           1.9268    4.2738   35.7826 C.ar    1  UNL1        0.0191
     24 C           1.2690    4.5970   34.4739 C.ar    1  UNL1        0.0814
     25 N           1.2148    3.5650   33.3866 N.ar    1  UNL1       -0.2422
     26 C           1.1598    0.5175   20.5892 C.3     1  UNL1        0.0774
     27 C           0.8679    0.7534   19.1370 C.3     1  UNL1        0.0259
     28 C           1.9849   -0.1639   19.5381 C.3     1  UNL1        0.0420
     29 C           3.1062   -1.0870   19.1629 C.ar    1  UNL1       -0.0208
     30 C           4.1389   -0.6467   18.1681 C.ar    1  UNL1       -0.0042
     31 C           5.2602   -1.5697   17.7929 C.ar    1  UNL1       -0.0003
     32 C           5.3486   -2.9329   18.4123 C.ar    1  UNL1       -0.0000
     33 C           4.3159   -3.3732   19.4071 C.ar    1  UNL1       -0.0003
     34 C           3.1947   -2.4502   19.7823 C.ar    1  UNL1       -0.0042
@<TRIPOS>BOND
     1     1     2    2
     2     2     3   am
     3     3    26    1
     4    26    27    1
     5    27    28    1
     6    28    29    1
     7    29    30   ar
     8    30    31   ar
     9    31    32   ar
    10    32    33   ar
    11    33    34   ar
    12     2     4   am
    13     4     5    1
    14     5     6    1
    15     6     7    1
    16     7    11    1
    17    11    12   ar
    18    12    13   ar
    19    13    16    1
    20    16    17   ar
    21    17    18   ar
    22    18    19   ar
    23    19    20   ar
    24    20    21   ar
    25    21    22   ar
    26    22    23   ar
    27    23    24   ar
    28    24    25   ar
    29    13    14   ar
    30    14    15   ar
    31     7     8    1
    32     8     9    1
    33    28    26    1
    34    34    29   ar
    35     9     4    1
    36    15    11   ar
    37    25    16   ar
    38    24    19   ar
    39     3    10    1
