@<TRIPOS>MOLECULE
*****
 35 38 0 0 0
SMALL
GASTEIGER

@<TRIPOS>ATOM
      1 C         -12.5984   -4.1137   19.4497 C.2     1  UNL1        0.2015
      2 O         -13.3163   -4.1266   20.7667 O.2     1  UNL1       -0.2864
      3 C         -12.2397   -2.8082   18.8039 C.ar    1  UNL1        0.0611
      4 C         -10.9708   -2.5115   18.0609 C.ar    1  UNL1        0.1037
      5 N         -11.0337   -1.0902   17.5855 N.ar    1  UNL1       -0.2269
      6 C         -12.3414   -0.5086   18.0346 C.ar    1  UNL1        0.1407
      7 N         -12.9498    0.8507   17.8552 N.ar    1  UNL1       -0.3374
      8 C         -14.3035    1.1481   18.4287 C.ar    1  UNL1        0.0735
      9 C         -15.0488    0.0863   19.1818 C.ar    1  UNL1        0.0201
     10 C         -14.4404   -1.2730   19.3612 C.ar    1  UNL1        0.0047
     11 C         -13.0867   -1.5704   18.7876 C.ar    1  UNL1        0.0386
     12 H         -12.4606    1.5476   17.3609 H       1  UNL1        0.1674
     13 C         -16.4025    0.3838   19.7554 C.ar    1  UNL1        0.0398
     14 C         -17.3439   -0.7387   20.0771 C.ar    1  UNL1        0.1018
     15 N         -18.6977   -0.4412   20.6507 N.ar    1  UNL1       -0.2291
     16 C         -19.1099    0.9789   20.9026 C.ar    1  UNL1        0.1396
     17 C         -20.4636    1.2764   21.4761 C.3     1  UNL1        0.0737
     18 N         -18.1684    2.1014   20.5809 N.ar    1  UNL1       -0.2291
     19 C         -16.8147    1.8039   20.0073 C.ar    1  UNL1        0.1018
     20 C         -12.9395   -7.5033   17.4140 C.ar    1  UNL1        0.0920
     21 C         -11.5213   -7.9913   17.4363 C.ar    1  UNL1        0.0204
     22 C         -10.4621   -7.1867   18.1297 C.ar    1  UNL1        0.0312
     23 C         -10.8211   -5.8942   18.8009 C.ar    1  UNL1        0.1454
     24 F          -9.7620   -5.0897   19.4943 F       1  UNL1       -0.2040
     25 C         -12.2393   -5.4063   18.7786 C.ar    1  UNL1        0.0951
     26 C         -13.2985   -6.2108   18.0851 C.ar    1  UNL1        0.1598
     27 F         -14.7167   -5.7228   18.0629 F       1  UNL1       -0.2026
     28 N         -13.9987   -8.3079   16.7205 N.pl3   1  UNL1       -0.2166
     29 H         -13.8744   -8.5809   15.7828 H       1  UNL1        0.1734
     30 S         -15.2470   -8.6964   17.4557 S.O2    1  UNL1        0.0540
     31 O         -14.4202   -9.4169   18.4790 O.2     1  UNL1       -0.1545
     32 O         -16.0739   -7.9759   16.4325 O.2     1  UNL1       -0.1545
     33 C         -16.4955   -9.0848   18.1909 C.3     1  UNL1        0.1724
     34 C         -17.9111   -8.0313   20.0978 C.3     1  UNL1        0.0019
     35 C         -16.6599   -8.7177   19.6360 C.3     1  UNL1        0.0273
@<TRIPOS>BOND
     1    34    35    1
     2    35    33    1
     3    33    30    1
     4    30    31    2
     5    30    32    2
     6    30    28    1
     7    28    20    1
     8    20    21   ar
     9    21    22   ar
    10    22    23   ar
    11    23    24    1
    12    23    25   ar
    13    25     1    1
    14     1     2    2
    15     1     3    1
    16     3     4   ar
    17     4     5   ar
    18     5     6   ar
    19     6     7   ar
    20     7     8   ar
    21     8     9   ar
    22     9    13    1
    23    13    14   ar
    24    14    15   ar
    25    15    16   ar
    26    16    17    1
    27    16    18   ar
    28    18    19   ar
    29     9    10   ar
    30    10    11   ar
    31    25    26   ar
    32    26    27    1
    33    26    20   ar
    34    11     3   ar
    35    11     6    1
    36    19    13   ar
    37    28    29    1
    38     7    12    1
@<TRIPOS>MOLECULE
*****
 35 38 0 0 0
SMALL
GASTEIGER

@<TRIPOS>ATOM
      1 C           4.6121   -3.7012   21.1319 C.2     1  UNL1        0.2015
      2 O           3.9997   -5.0530   20.9145 O.2     1  UNL1       -0.2864
      3 C           4.8443   -3.1983   22.5259 C.ar    1  UNL1        0.0611
      4 C           5.8168   -3.7655   23.5172 C.ar    1  UNL1        0.1037
      5 N           5.7183   -2.9577   24.7773 N.ar    1  UNL1       -0.2269
      6 C           4.6850   -1.8913   24.5647 C.ar    1  UNL1        0.1407
      7 N           4.1662   -0.8041   25.4584 N.ar    1  UNL1       -0.3374
      8 C           3.1072    0.1344   24.9607 C.ar    1  UNL1        0.0735
      9 C           2.5671   -0.0143   23.5693 C.ar    1  UNL1        0.0201
     10 C           3.0859   -1.1015   22.6756 C.ar    1  UNL1        0.0047
     11 C           4.1449   -2.0400   23.1733 C.ar    1  UNL1        0.0386
     12 H           4.5207   -0.7065   26.3717 H       1  UNL1        0.1674
     13 C           1.5081    0.9242   23.0716 C.ar    1  UNL1        0.0398
     14 C           0.8370    0.6675   21.7549 C.ar    1  UNL1        0.1018
     15 N          -0.2220    1.6060   21.2571 N.ar    1  UNL1       -0.2291
     16 C          -0.6099    2.8013   22.0762 C.ar    1  UNL1        0.1396
     17 C          -1.6689    3.7398   21.5785 C.3     1  UNL1        0.0737
     18 N           0.0612    3.0580   23.3930 N.ar    1  UNL1       -0.2291
     19 C           1.1201    2.1195   23.8906 C.ar    1  UNL1        0.1018
     20 C           4.3468   -1.1254   18.1244 C.ar    1  UNL1        0.0920
     21 C           5.7526   -1.1538   17.6019 C.ar    1  UNL1        0.0204
     22 C           6.7782   -2.0314   18.2561 C.ar    1  UNL1        0.0312
     23 C           6.3981   -2.8805   19.4328 C.ar    1  UNL1        0.1454
     24 F           7.4237   -3.7580   20.0870 F       1  UNL1       -0.2040
     25 C           4.9923   -2.8520   19.9552 C.ar    1  UNL1        0.0951
     26 C           3.9667   -1.9745   19.3010 C.ar    1  UNL1        0.1598
     27 F           2.5609   -1.9461   19.8235 F       1  UNL1       -0.2026
     28 N           3.3211   -0.2478   17.4701 N.pl3   1  UNL1       -0.2166
     29 H           2.9510   -0.4939   16.5917 H       1  UNL1        0.1734
     30 S           2.8595    1.0047   18.1544 S.O2    1  UNL1        0.0540
     31 O           4.2518    1.5579   18.0810 O.2     1  UNL1       -0.1545
     32 O           1.4672    0.4514   18.2277 O.2     1  UNL1       -0.1545
     33 C           2.3978    2.2571   18.8386 C.3     1  UNL1        0.1724
     34 C           2.6482    3.9737   20.7727 C.3     1  UNL1        0.0019
     35 C           3.1983    2.8329   19.9689 C.3     1  UNL1        0.0273
@<TRIPOS>BOND
     1    34    35    1
     2    35    33    1
     3    33    30    1
     4    30    31    2
     5    30    32    2
     6    30    28    1
     7    28    20    1
     8    20    21   ar
     9    21    22   ar
    10    22    23   ar
    11    23    24    1
    12    23    25   ar
    13    25     1    1
    14     1     2    2
    15     1     3    1
    16     3     4   ar
    17     4     5   ar
    18     5     6   ar
    19     6     7   ar
    20     7     8   ar
    21     8     9   ar
    22     9    13    1
    23    13    14   ar
    24    14    15   ar
    25    15    16   ar
    26    16    17    1
    27    16    18   ar
    28    18    19   ar
    29     9    10   ar
    30    10    11   ar
    31    25    26   ar
    32    26    27    1
    33    26    20   ar
    34    11     3   ar
    35    11     6    1
    36    19    13   ar
    37    28    29    1
    38     7    12    1
@<TRIPOS>MOLECULE
*****
 35 38 0 0 0
SMALL
GASTEIGER

@<TRIPOS>ATOM
      1 C           1.1221    0.4780   21.0071 C.2     1  UNL1        0.2015
      2 O          -0.2006   -0.0319   20.5169 O.2     1  UNL1       -0.2864
      3 C           1.3117    0.7952   22.4608 C.ar    1  UNL1        0.0611
      4 C           0.5588    1.8304   23.2428 C.ar    1  UNL1        0.1037
      5 N           1.0692    1.8079   24.6531 N.ar    1  UNL1       -0.2269
      6 C           2.1375    0.7587   24.7428 C.ar    1  UNL1        0.1407
      7 N           2.9932    0.2925   25.8831 N.ar    1  UNL1       -0.3374
      8 C           3.9987   -0.7997   25.6685 C.ar    1  UNL1        0.0735
      9 C           4.1486   -1.4255   24.3136 C.ar    1  UNL1        0.0201
     10 C           3.2929   -0.9593   23.1732 C.ar    1  UNL1        0.0047
     11 C           2.2874    0.1329   23.3878 C.ar    1  UNL1        0.0386
     12 H           2.8949    0.7033   26.7724 H       1  UNL1        0.1674
     13 C           5.1541   -2.5177   24.0990 C.ar    1  UNL1        0.0398
     14 C           5.1484   -3.3019   22.8203 C.ar    1  UNL1        0.1018
     15 N           6.1540   -4.3941   22.6057 N.ar    1  UNL1       -0.2291
     16 C           7.1653   -4.7021   23.6699 C.ar    1  UNL1        0.1396
     17 C           8.1708   -5.7942   23.4554 C.3     1  UNL1        0.0737
     18 N           7.1710   -3.9179   24.9486 N.ar    1  UNL1       -0.2291
     19 C           6.1654   -2.8257   25.1631 C.ar    1  UNL1        0.1018
     20 C           4.0698   -0.3286   18.4751 C.ar    1  UNL1        0.0920
     21 C           4.5220    1.0558   18.1162 C.ar    1  UNL1        0.0204
     22 C           3.8409    2.2477   18.7208 C.ar    1  UNL1        0.0312
     23 C           2.7076    2.0551   19.6845 C.ar    1  UNL1        0.1454
     24 F           2.0265    3.2469   20.2892 F       1  UNL1       -0.2040
     25 C           2.2555    0.6706   20.0434 C.ar    1  UNL1        0.0951
     26 C           2.9366   -0.5212   19.4387 C.ar    1  UNL1        0.1598
     27 F           2.4843   -1.9056   19.7977 F       1  UNL1       -0.2026
     28 N           4.7509   -1.5204   17.8704 N.pl3   1  UNL1       -0.2166
     29 H           4.2761   -2.0771   17.2117 H       1  UNL1        0.1734
     30 S           6.1555   -1.8640   18.2693 S.O2    1  UNL1        0.0540
     31 O           5.6324   -2.6457   19.4378 O.2     1  UNL1       -0.1545
     32 O           6.6786   -1.0823   17.1008 O.2     1  UNL1       -0.1545
     33 C           7.5600   -2.2076   18.6681 C.3     1  UNL1        0.1724
     34 C           8.9657   -3.4567   20.4610 C.3     1  UNL1        0.0019
     35 C           7.8865   -2.4768   20.1073 C.3     1  UNL1        0.0273
@<TRIPOS>BOND
     1    34    35    1
     2    35    33    1
     3    33    30    1
     4    30    31    2
     5    30    32    2
     6    30    28    1
     7    28    20    1
     8    20    21   ar
     9    21    22   ar
    10    22    23   ar
    11    23    24    1
    12    23    25   ar
    13    25     1    1
    14     1     2    2
    15     1     3    1
    16     3     4   ar
    17     4     5   ar
    18     5     6   ar
    19     6     7   ar
    20     7     8   ar
    21     8     9   ar
    22     9    13    1
    23    13    14   ar
    24    14    15   ar
    25    15    16   ar
    26    16    17    1
    27    16    18   ar
    28    18    19   ar
    29     9    10   ar
    30    10    11   ar
    31    25    26   ar
    32    26    27    1
    33    26    20   ar
    34    11     3   ar
    35    11     6    1
    36    19    13   ar
    37    28    29    1
    38     7    12    1
@<TRIPOS>MOLECULE
*****
 35 38 0 0 0
SMALL
GASTEIGER

@<TRIPOS>ATOM
      1 C           7.9865   -3.9799   23.3351 C.2     1  UNL1        0.2015
      2 O           9.2021   -3.1167   23.4995 O.2     1  UNL1       -0.2864
      3 C           7.0215   -3.7116   22.2185 C.ar    1  UNL1        0.0611
      4 C           7.1347   -4.2238   20.8132 C.ar    1  UNL1        0.1037
      5 N           5.9570   -3.7128   20.0374 N.ar    1  UNL1       -0.2269
      6 C           5.1159   -2.8848   20.9631 C.ar    1  UNL1        0.1407
      7 N           3.8361   -2.1314   20.7528 N.ar    1  UNL1       -0.3374
      8 C           3.2141   -1.3773   21.8905 C.ar    1  UNL1        0.0735
      9 C           3.8720   -1.3766   23.2385 C.ar    1  UNL1        0.0201
     10 C           5.1519   -2.1299   23.4489 C.ar    1  UNL1        0.0047
     11 C           5.7738   -2.8841   22.3112 C.ar    1  UNL1        0.0386
     12 H           3.4043   -2.1319   19.8681 H       1  UNL1        0.1674
     13 C           3.2499   -0.6224   24.3763 C.ar    1  UNL1        0.0398
     14 C           2.1626    0.3757   24.1090 C.ar    1  UNL1        0.1018
     15 N           1.5405    1.1298   25.2467 N.ar    1  UNL1       -0.2291
     16 C           2.0059    0.8859   26.6517 C.ar    1  UNL1        0.1396
     17 C           1.3839    1.6400   27.7894 C.3     1  UNL1        0.0737
     18 N           3.0933   -0.1122   26.9189 N.ar    1  UNL1       -0.2291
     19 C           3.7153   -0.8664   25.7812 C.ar    1  UNL1        0.1018
     20 C           6.7644   -5.9908   26.5309 C.ar    1  UNL1        0.0920
     21 C           7.2344   -7.3743   26.1921 C.ar    1  UNL1        0.0204
     22 C           7.9551   -7.6264   24.9009 C.ar    1  UNL1        0.0312
     23 C           8.2058   -6.4950   23.9486 C.ar    1  UNL1        0.1454
     24 F           8.9265   -6.7471   22.6574 F       1  UNL1       -0.2040
     25 C           7.7358   -5.1114   24.2875 C.ar    1  UNL1        0.0951
     26 C           7.0151   -4.8594   25.5786 C.ar    1  UNL1        0.1598
     27 F           6.5451   -3.4757   25.9174 F       1  UNL1       -0.2026
     28 N           6.0437   -5.7387   27.8221 N.pl3   1  UNL1       -0.2166
     29 H           5.0893   -5.9652   27.9055 H       1  UNL1        0.1734
     30 S           6.7773   -5.1415   28.9862 S.O2    1  UNL1        0.0540
     31 O           7.5038   -6.4373   29.1932 O.2     1  UNL1       -0.1545
     32 O           6.0507   -3.8456   28.7792 O.2     1  UNL1       -0.1545
     33 C           7.5108   -4.5442   30.1503 C.3     1  UNL1        0.1724
     34 C           6.3984   -3.5185   32.2624 C.3     1  UNL1        0.0019
     35 C           6.9685   -4.7029   31.5399 C.3     1  UNL1        0.0273
@<TRIPOS>BOND
     1    34    35    1
     2    35    33    1
     3    33    30    1
     4    30    31    2
     5    30    32    2
     6    30    28    1
     7    28    20    1
     8    20    21   ar
     9    21    22   ar
    10    22    23   ar
    11    23    24    1
    12    23    25   ar
    13    25     1    1
    14     1     2    2
    15     1     3    1
    16     3     4   ar
    17     4     5   ar
    18     5     6   ar
    19     6     7   ar
    20     7     8   ar
    21     8     9   ar
    22     9    13    1
    23    13    14   ar
    24    14    15   ar
    25    15    16   ar
    26    16    17    1
    27    16    18   ar
    28    18    19   ar
    29     9    10   ar
    30    10    11   ar
    31    25    26   ar
    32    26    27    1
    33    26    20   ar
    34    11     3   ar
    35    11     6    1
    36    19    13   ar
    37    28    29    1
    38     7    12    1
@<TRIPOS>MOLECULE
*****
 35 38 0 0 0
SMALL
GASTEIGER

@<TRIPOS>ATOM
      1 C           6.4542   -1.8135   29.9587 C.2     1  UNL1        0.2015
      2 O           7.6236   -0.9045   29.7221 O.2     1  UNL1       -0.2864
      3 C           6.6441   -3.3013   29.9367 C.ar    1  UNL1        0.0611
      4 C           6.7404   -4.1957   31.1370 C.ar    1  UNL1        0.1037
      5 N           6.9270   -5.6030   30.6526 N.ar    1  UNL1       -0.2269
      6 C           6.9460   -5.5784   29.1529 C.ar    1  UNL1        0.1407
      7 N           7.0999   -6.6675   28.1331 N.ar    1  UNL1       -0.3374
      8 C           7.0789   -6.3341   26.6708 C.ar    1  UNL1        0.0735
      9 C           6.9041   -4.9115   26.2284 C.ar    1  UNL1        0.0201
     10 C           6.7503   -3.8224   27.2482 C.ar    1  UNL1        0.0047
     11 C           6.7712   -4.1558   28.7105 C.ar    1  UNL1        0.0386
     12 H           7.2146   -7.6012   28.4235 H       1  UNL1        0.1674
     13 C           6.8832   -4.5781   24.7660 C.ar    1  UNL1        0.0398
     14 C           7.7223   -5.3668   23.8048 C.ar    1  UNL1        0.1018
     15 N           7.7014   -5.0334   22.3425 N.ar    1  UNL1       -0.2291
     16 C           6.8414   -3.9112   21.8413 C.ar    1  UNL1        0.1396
     17 C           6.8204   -3.5778   20.3790 C.3     1  UNL1        0.0737
     18 N           6.0023   -3.1225   22.8025 N.ar    1  UNL1       -0.2291
     19 C           6.0232   -3.4559   24.2648 C.ar    1  UNL1        0.1018
     20 C           2.7438   -0.5403   29.3563 C.ar    1  UNL1        0.0920
     21 C           2.3758   -0.0773   30.7348 C.ar    1  UNL1        0.0204
     22 C           3.3671   -0.1930   31.8545 C.ar    1  UNL1        0.0312
     23 C           4.7266   -0.7717   31.5959 C.ar    1  UNL1        0.1454
     24 F           5.7179   -0.8874   32.7156 F       1  UNL1       -0.2040
     25 C           5.0946   -1.2348   30.2174 C.ar    1  UNL1        0.0951
     26 C           4.1033   -1.1191   29.0977 C.ar    1  UNL1        0.1598
     27 F           4.4715   -1.5821   27.7193 F       1  UNL1       -0.2026
     28 N           1.7525   -0.4246   28.2366 N.pl3   1  UNL1       -0.2166
     29 H           1.6694   -1.1497   27.5758 H       1  UNL1        0.1734
     30 S           0.8877    0.7958   28.1237 S.O2    1  UNL1        0.0540
     31 O          -0.3170   -0.0253   28.4764 O.2     1  UNL1       -0.1545
     32 O           2.0925    1.6168   27.7710 O.2     1  UNL1       -0.1545
     33 C           0.0230    2.0162   28.0107 C.3     1  UNL1        0.1724
     34 C          -0.5350    1.8996   25.4759 C.3     1  UNL1        0.0019
     35 C          -0.9703    2.1307   26.8926 C.3     1  UNL1        0.0273
@<TRIPOS>BOND
     1    34    35    1
     2    35    33    1
     3    33    30    1
     4    30    31    2
     5    30    32    2
     6    30    28    1
     7    28    20    1
     8    20    21   ar
     9    21    22   ar
    10    22    23   ar
    11    23    24    1
    12    23    25   ar
    13    25     1    1
    14     1     2    2
    15     1     3    1
    16     3     4   ar
    17     4     5   ar
    18     5     6   ar
    19     6     7   ar
    20     7     8   ar
    21     8     9   ar
    22     9    13    1
    23    13    14   ar
    24    14    15   ar
    25    15    16   ar
    26    16    17    1
    27    16    18   ar
    28    18    19   ar
    29     9    10   ar
    30    10    11   ar
    31    25    26   ar
    32    26    27    1
    33    26    20   ar
    34    11     3   ar
    35    11     6    1
    36    19    13   ar
    37    28    29    1
    38     7    12    1
@<TRIPOS>MOLECULE
*****
 35 38 0 0 0
SMALL
GASTEIGER

@<TRIPOS>ATOM
      1 C           0.4482    1.9090   21.6308 C.2     1  UNL1        0.2015
      2 O          -0.9547    2.2048   21.1902 O.2     1  UNL1       -0.2864
      3 C           0.7363    1.6229   23.0749 C.ar    1  UNL1        0.0611
      4 C           0.0170    2.2134   24.2512 C.ar    1  UNL1        0.1037
      5 N           0.6305    1.6516   25.4994 N.ar    1  UNL1       -0.2269
      6 C           1.7290    0.7138   25.0945 C.ar    1  UNL1        0.1407
      7 N           2.6781   -0.1262   25.8966 N.ar    1  UNL1       -0.3374
      8 C           3.6926   -0.9840   25.2003 C.ar    1  UNL1        0.0735
      9 C           3.7581   -1.0017   23.7018 C.ar    1  UNL1        0.0201
     10 C           2.8089   -0.1616   22.8997 C.ar    1  UNL1        0.0047
     11 C           1.7944    0.6961   23.5960 C.ar    1  UNL1        0.0386
     12 H           2.6352   -0.1146   26.8801 H       1  UNL1        0.1674
     13 C           4.7727   -1.8595   23.0055 C.ar    1  UNL1        0.0398
     14 C           4.3539   -3.1543   22.3747 C.ar    1  UNL1        0.1018
     15 N           5.3685   -4.0122   21.6784 N.ar    1  UNL1       -0.2291
     16 C           6.8019   -3.5750   21.6129 C.ar    1  UNL1        0.1396
     17 C           7.8165   -4.4327   20.9166 C.3     1  UNL1        0.0737
     18 N           7.2207   -2.2801   22.2436 N.ar    1  UNL1       -0.2291
     19 C           6.2061   -1.4223   22.9399 C.ar    1  UNL1        0.1018
     20 C           2.8075    0.7493   18.6577 C.ar    1  UNL1        0.0920
     21 C           3.7930    1.8796   18.6205 C.ar    1  UNL1        0.0204
     22 C           3.6635    3.0197   19.5866 C.ar    1  UNL1        0.0312
     23 C           2.5486    3.0295   20.5901 C.ar    1  UNL1        0.1454
     24 F           2.4191    4.1696   21.5562 F       1  UNL1       -0.2040
     25 C           1.5632    1.8992   20.6273 C.ar    1  UNL1        0.0951
     26 C           1.6927    0.7591   19.6612 C.ar    1  UNL1        0.1598
     27 F           0.7072   -0.3712   19.6985 F       1  UNL1       -0.2026
     28 N           2.9370   -0.3908   17.6916 N.pl3   1  UNL1       -0.2166
     29 H           2.2868   -0.4917   16.9593 H       1  UNL1        0.1734
     30 S           4.0572   -1.3770   17.8412 S.O2    1  UNL1        0.0540
     31 O           4.4675   -1.1265   16.4203 O.2     1  UNL1       -0.1545
     32 O           3.6470   -1.6275   19.2620 O.2     1  UNL1       -0.1545
     33 C           5.1774   -2.3633   17.9908 C.3     1  UNL1        0.1724
     34 C           7.0623   -0.8523   18.9471 C.3     1  UNL1        0.0019
     35 C           6.6009   -1.8907   17.9680 C.3     1  UNL1        0.0273
@<TRIPOS>BOND
     1    34    35    1
     2    35    33    1
     3    33    30    1
     4    30    31    2
     5    30    32    2
     6    30    28    1
     7    28    20    1
     8    20    21   ar
     9    21    22   ar
    10    22    23   ar
    11    23    24    1
    12    23    25   ar
    13    25     1    1
    14     1     2    2
    15     1     3    1
    16     3     4   ar
    17     4     5   ar
    18     5     6   ar
    19     6     7   ar
    20     7     8   ar
    21     8     9   ar
    22     9    13    1
    23    13    14   ar
    24    14    15   ar
    25    15    16   ar
    26    16    17    1
    27    16    18   ar
    28    18    19   ar
    29     9    10   ar
    30    10    11   ar
    31    25    26   ar
    32    26    27    1
    33    26    20   ar
    34    11     3   ar
    35    11     6    1
    36    19    13   ar
    37    28    29    1
    38     7    12    1
@<TRIPOS>MOLECULE
*****
 35 38 0 0 0
SMALL
GASTEIGER

@<TRIPOS>ATOM
      1 C         -10.9623  -16.4800   22.7097 C.2     1  UNL1        0.2015
      2 O         -11.8537  -15.2740   22.7339 O.2     1  UNL1       -0.2864
      3 C         -11.0684  -17.4687   21.5866 C.ar    1  UNL1        0.0611
      4 C         -12.3239  -17.8405   20.8549 C.ar    1  UNL1        0.1037
      5 N         -11.9690  -18.8608   19.8142 N.ar    1  UNL1       -0.2269
      6 C         -10.4941  -19.1195   19.9027 C.ar    1  UNL1        0.1407
      7 N          -9.5861  -20.0274   19.1273 N.ar    1  UNL1       -0.3374
      8 C          -8.1214  -20.0749   19.4474 C.ar    1  UNL1        0.0735
      9 C          -7.5648  -19.2145   20.5428 C.ar    1  UNL1        0.0201
     10 C          -8.4728  -18.3067   21.3182 C.ar    1  UNL1        0.0047
     11 C          -9.9375  -18.2592   20.9981 C.ar    1  UNL1        0.0386
     12 H          -9.9514  -20.5921   18.4084 H       1  UNL1        0.1674
     13 C          -6.1001  -19.2621   20.8629 C.ar    1  UNL1        0.0398
     14 C          -5.0877  -19.0624   19.7743 C.ar    1  UNL1        0.1018
     15 N          -3.6229  -19.1100   20.0943 N.ar    1  UNL1       -0.2291
     16 C          -3.1707  -19.3571   21.5030 C.ar    1  UNL1        0.1396
     17 C          -1.7060  -19.4047   21.8231 C.3     1  UNL1        0.0737
     18 N          -4.1832  -19.5568   22.5916 N.ar    1  UNL1       -0.2291
     19 C          -5.6478  -19.5092   22.2715 C.ar    1  UNL1        0.1018
     20 C          -7.7072  -16.1017   24.9483 C.ar    1  UNL1        0.0920
     21 C          -7.9694  -17.1322   26.0063 C.ar    1  UNL1        0.0204
     22 C          -9.2293  -17.9453   25.9654 C.ar    1  UNL1        0.0312
     23 C         -10.2269  -17.7280   24.8666 C.ar    1  UNL1        0.1454
     24 F         -11.4867  -18.5411   24.8257 F       1  UNL1       -0.2040
     25 C          -9.9646  -16.6974   23.8086 C.ar    1  UNL1        0.0951
     26 C          -8.7048  -15.8843   23.8495 C.ar    1  UNL1        0.1598
     27 F          -8.4426  -14.8538   22.7915 F       1  UNL1       -0.2026
     28 N          -6.4474  -15.2886   24.9893 N.pl3   1  UNL1       -0.2166
     29 H          -6.4450  -14.4060   25.4255 H       1  UNL1        0.1734
     30 S          -5.1911  -15.8202   24.3654 S.O2    1  UNL1        0.0540
     31 O          -4.8215  -16.4717   25.6650 O.2     1  UNL1       -0.1545
     32 O          -5.5607  -15.1686   23.0659 O.2     1  UNL1       -0.1545
     33 C          -3.9348  -16.3517   23.7415 C.3     1  UNL1        0.1724
     34 C          -2.1159  -15.9884   21.9222 C.3     1  UNL1        0.0019
     35 C          -3.5516  -15.9327   22.3531 C.3     1  UNL1        0.0273
@<TRIPOS>BOND
     1    34    35    1
     2    35    33    1
     3    33    30    1
     4    30    31    2
     5    30    32    2
     6    30    28    1
     7    28    20    1
     8    20    21   ar
     9    21    22   ar
    10    22    23   ar
    11    23    24    1
    12    23    25   ar
    13    25     1    1
    14     1     2    2
    15     1     3    1
    16     3     4   ar
    17     4     5   ar
    18     5     6   ar
    19     6     7   ar
    20     7     8   ar
    21     8     9   ar
    22     9    13    1
    23    13    14   ar
    24    14    15   ar
    25    15    16   ar
    26    16    17    1
    27    16    18   ar
    28    18    19   ar
    29     9    10   ar
    30    10    11   ar
    31    25    26   ar
    32    26    27    1
    33    26    20   ar
    34    11     3   ar
    35    11     6    1
    36    19    13   ar
    37    28    29    1
    38     7    12    1
@<TRIPOS>MOLECULE
*****
 35 38 0 0 0
SMALL
GASTEIGER

@<TRIPOS>ATOM
      1 C           4.2867   -3.1044   19.5302 C.2     1  UNL1        0.2015
      2 O           3.5829   -4.3213   19.0071 O.2     1  UNL1       -0.2864
      3 C           3.6558   -1.7516   19.3827 C.ar    1  UNL1        0.0611
      4 C           3.3427   -1.0611   18.0884 C.ar    1  UNL1        0.1037
      5 N           2.7207    0.2655   18.4094 N.ar    1  UNL1       -0.2269
      6 C           2.6492    0.3950   19.9021 C.ar    1  UNL1        0.1407
      7 N           2.1326    1.4869   20.7913 N.ar    1  UNL1       -0.3374
      8 C           2.1939    1.3322   22.2820 C.ar    1  UNL1        0.0735
      9 C           2.7718    0.0855   22.8835 C.ar    1  UNL1        0.0201
     10 C           3.2885   -1.0064   21.9944 C.ar    1  UNL1        0.0047
     11 C           3.2272   -0.8517   20.5037 C.ar    1  UNL1        0.0386
     12 H           1.7532    2.3051   20.3965 H       1  UNL1        0.1674
     13 C           2.8331   -0.0692   24.3743 C.ar    1  UNL1        0.0398
     14 C           3.7215   -1.1126   24.9842 C.ar    1  UNL1        0.1018
     15 N           3.7828   -1.2673   26.4750 N.ar    1  UNL1       -0.2291
     16 C           2.9557   -0.3785   27.3559 C.ar    1  UNL1        0.1396
     17 C           3.0169   -0.5331   28.8466 C.3     1  UNL1        0.0737
     18 N           2.0672    0.6650   26.7459 N.ar    1  UNL1       -0.2291
     19 C           2.0060    0.8196   25.2552 C.ar    1  UNL1        0.1018
     20 C           7.0373   -3.8548   22.2909 C.ar    1  UNL1        0.0920
     21 C           8.2912   -3.5123   21.5421 C.ar    1  UNL1        0.0204
     22 C           8.2102   -3.0339   20.1228 C.ar    1  UNL1        0.0312
     23 C           6.8754   -2.8979   19.4521 C.ar    1  UNL1        0.1454
     24 F           6.7945   -2.4195   18.0328 F       1  UNL1       -0.2040
     25 C           5.6216   -3.2404   20.2009 C.ar    1  UNL1        0.0951
     26 C           5.7026   -3.7188   21.6202 C.ar    1  UNL1        0.1598
     27 F           4.4486   -4.0613   22.3689 F       1  UNL1       -0.2026
     28 N           7.1183   -4.3332   23.7102 N.pl3   1  UNL1       -0.2166
     29 H           6.4685   -4.0112   24.3761 H       1  UNL1        0.1734
     30 S           8.1893   -5.3023   24.1151 S.O2    1  UNL1        0.0540
     31 O           8.5857   -4.3938   25.2409 O.2     1  UNL1       -0.1545
     32 O           7.7928   -6.2107   22.9892 O.2     1  UNL1       -0.1545
     33 C           9.2602   -6.2713   24.5198 C.3     1  UNL1        0.1724
     34 C           7.9654   -7.8923   26.0839 C.3     1  UNL1        0.0019
     35 C           8.8933   -7.6677   24.9270 C.3     1  UNL1        0.0273
@<TRIPOS>BOND
     1    34    35    1
     2    35    33    1
     3    33    30    1
     4    30    31    2
     5    30    32    2
     6    30    28    1
     7    28    20    1
     8    20    21   ar
     9    21    22   ar
    10    22    23   ar
    11    23    24    1
    12    23    25   ar
    13    25     1    1
    14     1     2    2
    15     1     3    1
    16     3     4   ar
    17     4     5   ar
    18     5     6   ar
    19     6     7   ar
    20     7     8   ar
    21     8     9   ar
    22     9    13    1
    23    13    14   ar
    24    14    15   ar
    25    15    16   ar
    26    16    17    1
    27    16    18   ar
    28    18    19   ar
    29     9    10   ar
    30    10    11   ar
    31    25    26   ar
    32    26    27    1
    33    26    20   ar
    34    11     3   ar
    35    11     6    1
    36    19    13   ar
    37    28    29    1
    38     7    12    1
@<TRIPOS>MOLECULE
*****
 35 38 0 0 0
SMALL
GASTEIGER

@<TRIPOS>ATOM
      1 C          -9.3968  -18.5357   24.3917 C.2     1  UNL1        0.2015
      2 O          -9.7638  -19.7531   25.1872 O.2     1  UNL1       -0.2864
      3 C          -8.8705  -17.3155   25.0876 C.ar    1  UNL1        0.0611
      4 C          -9.6088  -16.4903   26.0995 C.ar    1  UNL1        0.1037
      5 N          -8.7080  -15.3711   26.5310 N.ar    1  UNL1       -0.2269
      6 C          -7.4131  -15.5047   25.7858 C.ar    1  UNL1        0.1407
      7 N          -6.1555  -14.6873   25.8043 N.ar    1  UNL1       -0.3374
      8 C          -4.9984  -15.0716   24.9307 C.ar    1  UNL1        0.0735
      9 C          -5.0988  -16.2733   24.0386 C.ar    1  UNL1        0.0201
     10 C          -6.3563  -17.0907   24.0201 C.ar    1  UNL1        0.0047
     11 C          -7.5135  -16.7064   24.8937 C.ar    1  UNL1        0.0386
     12 H          -6.0897  -13.8986   26.3898 H       1  UNL1        0.1674
     13 C          -3.9415  -16.6577   23.1650 C.ar    1  UNL1        0.0398
     14 C          -3.4104  -18.0601   23.1977 C.ar    1  UNL1        0.1018
     15 N          -2.2531  -18.4444   22.3241 N.ar    1  UNL1       -0.2291
     16 C          -1.6271  -17.4262   21.4178 C.ar    1  UNL1        0.1396
     17 C          -0.4699  -17.8105   20.5442 C.3     1  UNL1        0.0737
     18 N          -2.1583  -16.0238   21.3851 N.ar    1  UNL1       -0.2291
     19 C          -3.3155  -15.6395   22.2586 C.ar    1  UNL1        0.1018
     20 C          -8.7101  -19.2480   20.5483 C.ar    1  UNL1        0.0920
     21 C          -9.8744  -18.5438   19.9171 C.ar    1  UNL1        0.0204
     22 C         -10.8795  -17.8368   20.7774 C.ar    1  UNL1        0.0312
     23 C         -10.7203  -17.8341   22.2689 C.ar    1  UNL1        0.1454
     24 F         -11.7254  -17.1272   23.1292 F       1  UNL1       -0.2040
     25 C          -9.5560  -18.5384   22.9001 C.ar    1  UNL1        0.0951
     26 C          -8.5509  -19.2453   22.0398 C.ar    1  UNL1        0.1598
     27 F          -7.3866  -19.9495   22.6712 F       1  UNL1       -0.2026
     28 N          -7.7050  -19.9550   19.6881 N.pl3   1  UNL1       -0.2166
     29 H          -7.9965  -20.4172   18.8691 H       1  UNL1        0.1734
     30 S          -6.2560  -19.9577   20.0755 S.O2    1  UNL1        0.0540
     31 O          -6.2632  -21.4575   20.0921 O.2     1  UNL1       -0.1545
     32 O          -6.2487  -18.4578   20.0589 O.2     1  UNL1       -0.1545
     33 C          -4.8069  -19.9602   20.4630 C.3     1  UNL1        0.1724
     34 C          -3.1811  -18.8004   18.8012 C.3     1  UNL1        0.0019
     35 C          -3.7477  -20.0512   19.4047 C.3     1  UNL1        0.0273
@<TRIPOS>BOND
     1    34    35    1
     2    35    33    1
     3    33    30    1
     4    30    31    2
     5    30    32    2
     6    30    28    1
     7    28    20    1
     8    20    21   ar
     9    21    22   ar
    10    22    23   ar
    11    23    24    1
    12    23    25   ar
    13    25     1    1
    14     1     2    2
    15     1     3    1
    16     3     4   ar
    17     4     5   ar
    18     5     6   ar
    19     6     7   ar
    20     7     8   ar
    21     8     9   ar
    22     9    13    1
    23    13    14   ar
    24    14    15   ar
    25    15    16   ar
    26    16    17    1
    27    16    18   ar
    28    18    19   ar
    29     9    10   ar
    30    10    11   ar
    31    25    26   ar
    32    26    27    1
    33    26    20   ar
    34    11     3   ar
    35    11     6    1
    36    19    13   ar
    37    28    29    1
    38     7    12    1
