@<TRIPOS>MOLECULE
*****
 29 32 0 0 0
SMALL
GASTEIGER

@<TRIPOS>ATOM
      1 C          -7.2856  -17.7829   22.0888 C.2     1  UNL1        0.3257
      2 N          -5.9641  -18.1383   21.4747 N.2     1  UNL1       -0.0236
      3 C          -4.6889  -17.7267   22.1487 C.2     1  UNL1        0.2640
      4 C          -4.7352  -16.9595   23.4368 C.2     1  UNL1        0.0638
      5 C          -6.0567  -16.6041   24.0510 C.2     1  UNL1        0.0139
      6 C          -6.4137  -15.8605   25.3038 C.2     1  UNL1       -0.0101
      7 C          -5.4450  -15.2687   26.2842 C.3     1  UNL1        0.0320
      8 C          -7.9096  -15.8125   25.4041 C.2     1  UNL1        0.0509
      9 C          -8.6994  -15.1644   26.5024 C.3     1  UNL1        0.0513
     10 N          -8.4771  -16.5265   24.2132 N.2     1  UNL1       -0.2603
     11 C          -7.3319  -17.0157   23.3770 C.3     1  UNL1        0.2296
     12 N          -3.3673  -18.0821   21.5345 N.ar    1  UNL1       -0.2369
     13 C          -3.0686  -19.5061   21.1696 C.ar    1  UNL1        0.0864
     14 C          -1.7471  -19.8616   20.5555 C.ar    1  UNL1        0.0194
     15 C          -0.7242  -18.7931   20.3063 C.ar    1  UNL1        0.0064
     16 C          -1.0229  -17.3692   20.6712 C.ar    1  UNL1        0.0612
     17 C          -2.3445  -17.0137   21.2853 C.ar    1  UNL1        0.2675
     18 O          -2.6431  -15.5897   21.6502 O.2     1  UNL1       -0.2665
     19 N          -8.5609  -18.1945   21.4148 N.pl3   1  UNL1       -0.2166
     20 H          -8.8086  -17.8006   20.5472 H       1  UNL1        0.2923
     21 C          -9.4588  -19.2065   22.0626 C.3     1  UNL1        0.2258
     22 C         -10.1572  -19.6691   24.9433 C.3     1  UNL1        0.0308
     23 C         -11.1517  -19.0231   24.0249 C.ar    1  UNL1       -0.0223
     24 C         -12.4955  -18.6084   24.5467 C.ar    1  UNL1       -0.0045
     25 C         -13.4900  -17.9623   23.6283 C.ar    1  UNL1       -0.0007
     26 C         -13.1408  -17.7310   22.1879 C.ar    1  UNL1       -0.0045
     27 C         -11.7971  -18.1457   21.6661 C.ar    1  UNL1       -0.0223
     28 C         -11.4479  -17.9144   20.2257 C.3     1  UNL1        0.0308
     29 C         -10.8025  -18.7918   22.5845 C.ar    1  UNL1        0.0162
@<TRIPOS>BOND
     1    22    23    1
     2    23    24   ar
     3    24    25   ar
     4    25    26   ar
     5    26    27   ar
     6    27    28    1
     7    27    29   ar
     8    29    21    1
     9    21    19    1
    10    19     1    1
    11     1     2    2
    12     2     3    1
    13     3    12    1
    14    12    13   ar
    15    13    14   ar
    16    14    15   ar
    17    15    16   ar
    18    16    17   ar
    19    17    18    2
    20     3     4    2
    21     4     5    1
    22     5     6    2
    23     6     7    1
    24     6     8    1
    25     8     9    1
    26     8    10    2
    27    10    11    1
    28    29    23   ar
    29    11     1    1
    30    17    12   ar
    31    11     5    1
    32    19    20    1
@<TRIPOS>MOLECULE
*****
 29 32 0 0 0
SMALL
GASTEIGER

@<TRIPOS>ATOM
      1 C          -7.2886  -17.7848   22.0865 C.2     1  UNL1        0.3257
      2 N          -5.9674  -18.1497   21.4773 N.2     1  UNL1       -0.0236
      3 C          -4.6918  -17.7428   22.1535 C.2     1  UNL1        0.2640
      4 C          -4.7375  -16.9711   23.4389 C.2     1  UNL1        0.0638
      5 C          -6.0587  -16.6062   24.0481 C.2     1  UNL1        0.0139
      6 C          -6.4151  -15.8564   25.2974 C.2     1  UNL1       -0.0101
      7 C          -5.4458  -15.2667   26.2786 C.3     1  UNL1        0.0320
      8 C          -7.9110  -15.7998   25.3933 C.2     1  UNL1        0.0509
      9 C          -8.7002  -15.1436   26.4872 C.3     1  UNL1        0.0513
     10 N          -8.4791  -16.5147   24.2033 N.2     1  UNL1       -0.2603
     11 C          -7.3343  -17.0131   23.3719 C.3     1  UNL1        0.2296
     12 N          -3.3705  -18.1077   21.5443 N.ar    1  UNL1       -0.2369
     13 C          -3.0760  -19.5356   21.1916 C.ar    1  UNL1        0.0864
     14 C          -1.7548  -19.9005   20.5824 C.ar    1  UNL1        0.0194
     15 C          -0.7279  -18.8375   20.3260 C.ar    1  UNL1        0.0064
     16 C          -1.0224  -17.4096   20.6787 C.ar    1  UNL1        0.0612
     17 C          -2.3437  -17.0447   21.2879 C.ar    1  UNL1        0.2675
     18 O          -2.6382  -15.6168   21.6406 O.2     1  UNL1       -0.2665
     19 N          -8.5643  -18.1916   21.4102 N.pl3   1  UNL1       -0.2166
     20 H          -8.8112  -17.7933   20.5444 H       1  UNL1        0.2923
     21 C          -9.4637  -19.2054   22.0532 C.3     1  UNL1        0.2258
     22 C         -11.4505  -17.8991   20.2239 C.3     1  UNL1        0.0308
     23 C         -11.8000  -18.1381   21.6629 C.ar    1  UNL1       -0.0223
     24 C         -13.1429  -17.7238   22.1873 C.ar    1  UNL1       -0.0045
     25 C         -13.4924  -17.9627   23.6263 C.ar    1  UNL1       -0.0007
     26 C         -12.4990  -18.6159   24.5409 C.ar    1  UNL1       -0.0045
     27 C         -11.1561  -19.0301   24.0166 C.ar    1  UNL1       -0.0223
     28 C         -10.1627  -19.6832   24.9312 C.3     1  UNL1        0.0308
     29 C         -10.8066  -18.7912   22.5775 C.ar    1  UNL1        0.0162
@<TRIPOS>BOND
     1    22    23    1
     2    23    24   ar
     3    24    25   ar
     4    25    26   ar
     5    26    27   ar
     6    27    28    1
     7    27    29   ar
     8    29    21    1
     9    21    19    1
    10    19     1    1
    11     1     2    2
    12     2     3    1
    13     3    12    1
    14    12    13   ar
    15    13    14   ar
    16    14    15   ar
    17    15    16   ar
    18    16    17   ar
    19    17    18    2
    20     3     4    2
    21     4     5    1
    22     5     6    2
    23     6     7    1
    24     6     8    1
    25     8     9    1
    26     8    10    2
    27    10    11    1
    28    29    23   ar
    29    11     1    1
    30    17    12   ar
    31    11     5    1
    32    19    20    1
@<TRIPOS>MOLECULE
*****
 29 32 0 0 0
SMALL
GASTEIGER

@<TRIPOS>ATOM
      1 C          -7.6688  -17.9933   21.6041 C.2     1  UNL1        0.3257
      2 N          -7.7998  -17.1851   22.8609 N.2     1  UNL1       -0.0236
      3 C          -6.6157  -17.0056   23.7639 C.2     1  UNL1        0.2640
      4 C          -5.3005  -17.6342   23.4102 C.2     1  UNL1        0.0638
      5 C          -5.1695  -18.4424   22.1534 C.2     1  UNL1        0.0139
      6 C          -4.0095  -19.1759   21.5481 C.2     1  UNL1       -0.0101
      7 C          -2.6253  -19.2615   22.1196 C.3     1  UNL1        0.0320
      8 C          -4.4767  -19.8088   20.2709 C.2     1  UNL1        0.0509
      9 C          -3.6417  -20.6384   19.3410 C.3     1  UNL1        0.0513
     10 N          -5.9255  -19.4664   20.0868 N.2     1  UNL1       -0.2603
     11 C          -6.3536  -18.6219   21.2503 C.3     1  UNL1        0.2296
     12 N          -6.7467  -16.1974   25.0208 N.ar    1  UNL1       -0.2369
     13 C          -5.5764  -15.4104   25.5318 C.ar    1  UNL1        0.0864
     14 C          -5.7073  -14.6022   26.7886 C.ar    1  UNL1        0.0194
     15 C          -7.0086  -14.5810   27.5345 C.ar    1  UNL1        0.0064
     16 C          -8.1789  -15.3679   27.0235 C.ar    1  UNL1        0.0612
     17 C          -8.0479  -16.1761   25.7666 C.ar    1  UNL1        0.2675
     18 O          -9.2182  -16.9631   25.2556 O.2     1  UNL1       -0.2665
     19 N          -8.8529  -18.1728   20.7009 N.pl3   1  UNL1       -0.2166
     20 H          -8.9355  -17.6302   19.8837 H       1  UNL1        0.2923
     21 C          -9.9113  -19.1793   21.0430 C.3     1  UNL1        0.2258
     22 C          -9.5204  -20.4530   23.7309 C.3     1  UNL1        0.0308
     23 C         -10.6851  -19.5372   23.4972 C.ar    1  UNL1       -0.0223
     24 C         -11.6545  -19.2583   24.6074 C.ar    1  UNL1       -0.0045
     25 C         -12.8193  -18.3426   24.3737 C.ar    1  UNL1       -0.0007
     26 C         -13.0147  -17.7057   23.0298 C.ar    1  UNL1       -0.0045
     27 C         -12.0454  -17.9846   21.9195 C.ar    1  UNL1       -0.0223
     28 C         -12.2409  -17.3477   20.5756 C.3     1  UNL1        0.0308
     29 C         -10.8806  -18.9004   22.1532 C.ar    1  UNL1        0.0162
@<TRIPOS>BOND
     1    22    23    1
     2    23    24   ar
     3    24    25   ar
     4    25    26   ar
     5    26    27   ar
     6    27    28    1
     7    27    29   ar
     8    29    21    1
     9    21    19    1
    10    19     1    1
    11     1     2    2
    12     2     3    1
    13     3    12    1
    14    12    13   ar
    15    13    14   ar
    16    14    15   ar
    17    15    16   ar
    18    16    17   ar
    19    17    18    2
    20     3     4    2
    21     4     5    1
    22     5     6    2
    23     6     7    1
    24     6     8    1
    25     8     9    1
    26     8    10    2
    27    10    11    1
    28    29    23   ar
    29    11     1    1
    30    17    12   ar
    31    11     5    1
    32    19    20    1
@<TRIPOS>MOLECULE
*****
 29 32 0 0 0
SMALL
GASTEIGER

@<TRIPOS>ATOM
      1 C          -5.9792  -16.3197   23.6397 C.2     1  UNL1        0.3257
      2 N          -6.9903  -17.0659   22.8205 N.2     1  UNL1       -0.0236
      3 C          -8.4012  -17.2005   23.3114 C.2     1  UNL1        0.2640
      4 C          -8.8012  -16.5889   24.6214 C.2     1  UNL1        0.0638
      5 C          -7.7901  -15.8428   25.4405 C.2     1  UNL1        0.0139
      6 C          -7.8906  -15.1388   26.7612 C.2     1  UNL1       -0.0101
      7 C          -9.1235  -15.0247   27.6079 C.3     1  UNL1        0.0320
      8 C          -6.5416  -14.5691   27.0867 C.2     1  UNL1        0.0509
      9 C          -6.1888  -13.7852   28.3160 C.3     1  UNL1        0.0513
     10 N          -5.6075  -14.9210   25.9670 N.2     1  UNL1       -0.2603
     11 C          -6.3792  -15.7081   24.9496 C.3     1  UNL1        0.2296
     12 N          -9.4123  -17.9467   22.4923 N.ar    1  UNL1       -0.2369
     13 C          -9.7377  -19.3737   22.8205 C.ar    1  UNL1        0.0864
     14 C         -10.7487  -20.1200   22.0014 C.ar    1  UNL1        0.0194
     15 C         -11.4345  -19.4391   20.8541 C.ar    1  UNL1        0.0064
     16 C         -11.1092  -18.0121   20.5259 C.ar    1  UNL1        0.0612
     17 C         -10.0981  -17.2659   21.3450 C.ar    1  UNL1        0.2675
     18 O          -9.7727  -15.8388   21.0168 O.2     1  UNL1       -0.2665
     19 N          -4.5682  -16.1850   23.1488 N.pl3   1  UNL1       -0.2166
     20 H          -4.2254  -15.3048   22.8713 H       1  UNL1        0.2923
     21 C          -3.6794  -17.3915   23.0807 C.3     1  UNL1        0.2258
     22 C          -5.2471  -19.7881   22.1870 C.3     1  UNL1        0.0308
     23 C          -4.1666  -19.2289   21.3097 C.ar    1  UNL1       -0.0223
     24 C          -3.8698  -19.8681   19.9855 C.ar    1  UNL1       -0.0045
     25 C          -2.7892  -19.3089   19.1082 C.ar    1  UNL1       -0.0007
     26 C          -2.0054  -18.1106   19.5551 C.ar    1  UNL1       -0.0045
     27 C          -2.3021  -17.4715   20.8792 C.ar    1  UNL1       -0.0223
     28 C          -1.5183  -16.2732   21.3260 C.3     1  UNL1        0.0308
     29 C          -3.3827  -18.0306   21.7566 C.ar    1  UNL1        0.0162
@<TRIPOS>BOND
     1    22    23    1
     2    23    24   ar
     3    24    25   ar
     4    25    26   ar
     5    26    27   ar
     6    27    28    1
     7    27    29   ar
     8    29    21    1
     9    21    19    1
    10    19     1    1
    11     1     2    2
    12     2     3    1
    13     3    12    1
    14    12    13   ar
    15    13    14   ar
    16    14    15   ar
    17    15    16   ar
    18    16    17   ar
    19    17    18    2
    20     3     4    2
    21     4     5    1
    22     5     6    2
    23     6     7    1
    24     6     8    1
    25     8     9    1
    26     8    10    2
    27    10    11    1
    28    29    23   ar
    29    11     1    1
    30    17    12   ar
    31    11     5    1
    32    19    20    1
@<TRIPOS>MOLECULE
*****
 29 32 0 0 0
SMALL
GASTEIGER

@<TRIPOS>ATOM
      1 C          -7.8394  -17.9994   21.5944 C.2     1  UNL1        0.3257
      2 N          -8.0404  -17.2451   22.8753 N.2     1  UNL1       -0.0236
      3 C          -6.8864  -17.0331   23.8098 C.2     1  UNL1        0.2640
      4 C          -5.5314  -17.5754   23.4634 C.2     1  UNL1        0.0638
      5 C          -5.3304  -18.3297   22.1826 C.2     1  UNL1        0.0139
      6 C          -4.1195  -18.9761   21.5778 C.2     1  UNL1       -0.0101
      7 C          -2.7444  -19.0059   22.1763 C.3     1  UNL1        0.0320
      8 C          -4.5251  -19.5877   20.2695 C.2     1  UNL1        0.0509
      9 C          -3.6267  -20.3363   19.3300 C.3     1  UNL1        0.0513
     10 N          -5.9867  -19.3192   20.0657 N.2     1  UNL1       -0.2603
     11 C          -6.4844  -18.5417   21.2481 C.3     1  UNL1        0.2296
     12 N          -7.0873  -16.2788   25.0907 N.ar    1  UNL1       -0.2369
     13 C          -8.2792  -16.5701   25.9536 C.ar    1  UNL1        0.0864
     14 C          -8.4802  -15.8159   27.2344 C.ar    1  UNL1        0.0194
     15 C          -7.4892  -14.7703   27.6525 C.ar    1  UNL1        0.0064
     16 C          -6.2973  -14.4790   26.7897 C.ar    1  UNL1        0.0612
     17 C          -6.0964  -15.2333   25.5087 C.ar    1  UNL1        0.2675
     18 O          -4.9045  -14.9419   24.6459 O.2     1  UNL1       -0.2665
     19 N          -8.9934  -18.2114   20.6599 N.pl3   1  UNL1       -0.2166
     20 H          -9.0358  -17.7166   19.8098 H       1  UNL1        0.2923
     21 C         -10.0829  -19.1773   21.0205 C.3     1  UNL1        0.2258
     22 C         -12.3890  -17.2949   20.6482 C.3     1  UNL1        0.0308
     23 C         -12.1532  -17.9373   21.9830 C.ar    1  UNL1       -0.0223
     24 C         -13.0705  -17.6385   23.1317 C.ar    1  UNL1       -0.0045
     25 C         -12.8347  -18.2809   24.4664 C.ar    1  UNL1       -0.0007
     26 C         -11.6816  -19.2221   24.6526 C.ar    1  UNL1       -0.0045
     27 C         -10.7644  -19.5209   23.5040 C.ar    1  UNL1       -0.0223
     28 C          -9.6114  -20.4621   23.6902 C.3     1  UNL1        0.0308
     29 C         -11.0002  -18.8785   22.1691 C.ar    1  UNL1        0.0162
@<TRIPOS>BOND
     1    22    23    1
     2    23    24   ar
     3    24    25   ar
     4    25    26   ar
     5    26    27   ar
     6    27    28    1
     7    27    29   ar
     8    29    21    1
     9    21    19    1
    10    19     1    1
    11     1     2    2
    12     2     3    1
    13     3    12    1
    14    12    13   ar
    15    13    14   ar
    16    14    15   ar
    17    15    16   ar
    18    16    17   ar
    19    17    18    2
    20     3     4    2
    21     4     5    1
    22     5     6    2
    23     6     7    1
    24     6     8    1
    25     8     9    1
    26     8    10    2
    27    10    11    1
    28    29    23   ar
    29    11     1    1
    30    17    12   ar
    31    11     5    1
    32    19    20    1
@<TRIPOS>MOLECULE
*****
 29 32 0 0 0
SMALL
GASTEIGER

@<TRIPOS>ATOM
      1 C          -5.9817  -16.3185   23.6236 C.2     1  UNL1        0.3257
      2 N          -6.9965  -17.0275   22.7767 N.2     1  UNL1       -0.0236
      3 C          -8.4173  -17.1394   23.2445 C.2     1  UNL1        0.2640
      4 C          -8.8232  -16.5421   24.5592 C.2     1  UNL1        0.0638
      5 C          -7.8084  -15.8330   25.4062 C.2     1  UNL1        0.0139
      6 C          -7.9130  -15.1503   26.7376 C.2     1  UNL1       -0.0101
      7 C          -9.1556  -15.0236   27.5682 C.3     1  UNL1        0.0320
      8 C          -6.5569  -14.6165   27.0928 C.2     1  UNL1        0.0509
      9 C          -6.2054  -13.8623   28.3408 C.3     1  UNL1        0.0513
     10 N          -5.6142  -14.9693   25.9807 N.2     1  UNL1       -0.2603
     11 C          -6.3876  -15.7212   24.9383 C.3     1  UNL1        0.2296
     12 N          -9.4322  -17.8485   22.3976 N.ar    1  UNL1       -0.2369
     13 C         -10.2107  -17.0879   21.3654 C.ar    1  UNL1        0.0864
     14 C         -11.2256  -17.7969   20.5185 C.ar    1  UNL1        0.0194
     15 C         -11.4620  -19.2666   20.7038 C.ar    1  UNL1        0.0064
     16 C         -10.6835  -20.0271   21.7360 C.ar    1  UNL1        0.0612
     17 C          -9.6686  -19.3180   22.5829 C.ar    1  UNL1        0.2675
     18 O          -8.8900  -20.0786   23.6151 O.2     1  UNL1       -0.2665
     19 N          -4.5609  -16.2066   23.1558 N.pl3   1  UNL1       -0.2166
     20 H          -4.1952  -15.3298   22.8976 H       1  UNL1        0.2923
     21 C          -3.6972  -17.4308   23.0813 C.3     1  UNL1        0.2258
     22 C          -1.5372  -16.3015   21.3323 C.3     1  UNL1        0.0308
     23 C          -2.3222  -17.4962   20.8779 C.ar    1  UNL1       -0.0223
     24 C          -2.0273  -18.1264   19.5490 C.ar    1  UNL1       -0.0045
     25 C          -2.8123  -19.3210   19.0947 C.ar    1  UNL1       -0.0007
     26 C          -3.8922  -19.8857   19.9692 C.ar    1  UNL1       -0.0045
     27 C          -4.1872  -19.2556   21.2981 C.ar    1  UNL1       -0.0223
     28 C          -5.2672  -19.8202   22.1726 C.3     1  UNL1        0.0308
     29 C          -3.4022  -18.0608   21.7525 C.ar    1  UNL1        0.0162
@<TRIPOS>BOND
     1    22    23    1
     2    23    24   ar
     3    24    25   ar
     4    25    26   ar
     5    26    27   ar
     6    27    28    1
     7    27    29   ar
     8    29    21    1
     9    21    19    1
    10    19     1    1
    11     1     2    2
    12     2     3    1
    13     3    12    1
    14    12    13   ar
    15    13    14   ar
    16    14    15   ar
    17    15    16   ar
    18    16    17   ar
    19    17    18    2
    20     3     4    2
    21     4     5    1
    22     5     6    2
    23     6     7    1
    24     6     8    1
    25     8     9    1
    26     8    10    2
    27    10    11    1
    28    29    23   ar
    29    11     1    1
    30    17    12   ar
    31    11     5    1
    32    19    20    1
@<TRIPOS>MOLECULE
*****
 29 32 0 0 0
SMALL
GASTEIGER

@<TRIPOS>ATOM
      1 C          -6.9939  -18.3335   21.8266 C.2     1  UNL1        0.3257
      2 N          -6.7487  -17.6337   23.1305 N.2     1  UNL1       -0.0236
      3 C          -7.8848  -16.9699   23.8506 C.2     1  UNL1        0.2640
      4 C          -9.2661  -17.0058   23.2667 C.2     1  UNL1        0.0638
      5 C          -9.5112  -17.7056   21.9629 C.2     1  UNL1        0.0139
      6 C         -10.7553  -17.9044   21.1488 C.2     1  UNL1       -0.0101
      7 C         -12.1260  -17.4043   21.4969 C.3     1  UNL1        0.0320
      8 C         -10.3881  -18.6912   19.9256 C.2     1  UNL1        0.0509
      9 C         -11.3272  -19.1159   18.8357 C.3     1  UNL1        0.0513
     10 N          -8.9171  -18.9786   19.9836 N.2     1  UNL1       -0.2603
     11 C          -8.3752  -18.3694   21.2428 C.3     1  UNL1        0.2296
     12 N          -7.6397  -16.2701   25.1545 N.ar    1  UNL1       -0.2369
     13 C          -8.4968  -16.5814   26.3455 C.ar    1  UNL1        0.0864
     14 C          -8.2517  -15.8817   27.6494 C.ar    1  UNL1        0.0194
     15 C          -7.1495  -14.8705   27.7624 C.ar    1  UNL1        0.0064
     16 C          -6.2924  -14.5591   26.5714 C.ar    1  UNL1        0.0612
     17 C          -6.5375  -15.2589   25.2675 C.ar    1  UNL1        0.2675
     18 O          -5.6804  -14.9476   24.0765 O.2     1  UNL1       -0.2665
     19 N          -5.8578  -18.9973   21.1064 N.pl3   1  UNL1       -0.2166
     20 H          -5.9838  -19.3291   20.1881 H       1  UNL1        0.2923
     21 C          -4.5297  -19.1558   21.7855 C.3     1  UNL1        0.2258
     22 C          -3.3429  -20.0843   19.1914 C.3     1  UNL1        0.0308
     23 C          -2.7229  -18.9364   19.9315 C.ar    1  UNL1       -0.0223
     24 C          -1.5094  -18.2526   19.3746 C.ar    1  UNL1       -0.0045
     25 C          -0.8894  -17.1048   20.1147 C.ar    1  UNL1       -0.0007
     26 C          -1.4828  -16.6405   21.4118 C.ar    1  UNL1       -0.0045
     27 C          -2.6962  -17.3241   21.9687 C.ar    1  UNL1       -0.0223
     28 C          -3.2896  -16.8599   23.2658 C.3     1  UNL1        0.0308
     29 C          -3.3163  -18.4721   21.2286 C.ar    1  UNL1        0.0162
@<TRIPOS>BOND
     1    22    23    1
     2    23    24   ar
     3    24    25   ar
     4    25    26   ar
     5    26    27   ar
     6    27    28    1
     7    27    29   ar
     8    29    21    1
     9    21    19    1
    10    19     1    1
    11     1     2    2
    12     2     3    1
    13     3    12    1
    14    12    13   ar
    15    13    14   ar
    16    14    15   ar
    17    15    16   ar
    18    16    17   ar
    19    17    18    2
    20     3     4    2
    21     4     5    1
    22     5     6    2
    23     6     7    1
    24     6     8    1
    25     8     9    1
    26     8    10    2
    27    10    11    1
    28    29    23   ar
    29    11     1    1
    30    17    12   ar
    31    11     5    1
    32    19    20    1
@<TRIPOS>MOLECULE
*****
 29 32 0 0 0
SMALL
GASTEIGER

@<TRIPOS>ATOM
      1 C          -8.1152  -16.6717   22.5345 C.2     1  UNL1        0.3257
      2 N          -6.8401  -17.2680   22.0164 N.2     1  UNL1       -0.0236
      3 C          -6.6510  -18.7560   22.0234 C.2     1  UNL1        0.2640
      4 C          -7.7369  -19.6476   22.5485 C.2     1  UNL1        0.0638
      5 C          -9.0120  -19.0513   23.0665 C.2     1  UNL1        0.0139
      6 C         -10.2500  -19.6732   23.6415 C.2     1  UNL1       -0.0101
      7 C         -10.4914  -21.1410   23.8342 C.3     1  UNL1        0.0320
      8 C         -11.2043  -18.5696   23.9898 C.2     1  UNL1        0.0509
      9 C         -12.5676  -18.7401   24.5921 C.3     1  UNL1        0.0513
     10 N         -10.5561  -17.2655   23.6302 N.2     1  UNL1       -0.2603
     11 C          -9.2012  -17.5633   23.0595 C.3     1  UNL1        0.2296
     12 N          -5.3758  -19.3524   21.5053 N.ar    1  UNL1       -0.2369
     13 C          -5.3872  -20.1715   20.2488 C.ar    1  UNL1        0.0864
     14 C          -4.1122  -20.7679   19.7307 C.ar    1  UNL1        0.0194
     15 C          -2.8256  -20.5452   20.4692 C.ar    1  UNL1        0.0064
     16 C          -2.8142  -19.7261   21.7257 C.ar    1  UNL1        0.0612
     17 C          -4.0894  -19.1297   22.2438 C.ar    1  UNL1        0.2675
     18 O          -4.0780  -18.3105   23.5003 O.2     1  UNL1       -0.2665
     19 N          -8.3044  -15.1836   22.5275 N.pl3   1  UNL1       -0.2166
     20 H          -8.8462  -14.7596   21.8233 H       1  UNL1        0.2923
     21 C          -7.6682  -14.3417   23.5935 C.3     1  UNL1        0.2258
     22 C          -9.3374  -14.9965   25.9988 C.3     1  UNL1        0.0308
     23 C          -7.8731  -15.3216   25.9910 C.ar    1  UNL1       -0.0223
     24 C          -7.2433  -15.9742   27.1858 C.ar    1  UNL1       -0.0045
     25 C          -5.7790  -16.2993   27.1781 C.ar    1  UNL1       -0.0007
     26 C          -4.9444  -15.9718   25.9755 C.ar    1  UNL1       -0.0045
     27 C          -5.5741  -15.3193   24.7806 C.ar    1  UNL1       -0.0223
     28 C          -4.7395  -14.9919   23.5780 C.3     1  UNL1        0.0308
     29 C          -7.0385  -14.9942   24.7884 C.ar    1  UNL1        0.0162
@<TRIPOS>BOND
     1    22    23    1
     2    23    24   ar
     3    24    25   ar
     4    25    26   ar
     5    26    27   ar
     6    27    28    1
     7    27    29   ar
     8    29    21    1
     9    21    19    1
    10    19     1    1
    11     1     2    2
    12     2     3    1
    13     3    12    1
    14    12    13   ar
    15    13    14   ar
    16    14    15   ar
    17    15    16   ar
    18    16    17   ar
    19    17    18    2
    20     3     4    2
    21     4     5    1
    22     5     6    2
    23     6     7    1
    24     6     8    1
    25     8     9    1
    26     8    10    2
    27    10    11    1
    28    29    23   ar
    29    11     1    1
    30    17    12   ar
    31    11     5    1
    32    19    20    1
@<TRIPOS>MOLECULE
*****
 29 32 0 0 0
SMALL
GASTEIGER

@<TRIPOS>ATOM
      1 C          -6.9805  -18.3816   21.7234 C.2     1  UNL1        0.3257
      2 N          -6.7339  -17.6950   23.0340 N.2     1  UNL1       -0.0236
      3 C          -7.8743  -17.0639   23.7763 C.2     1  UNL1        0.2640
      4 C          -9.2614  -17.1194   23.2080 C.2     1  UNL1        0.0638
      5 C          -9.5080  -17.8060   21.8974 C.2     1  UNL1        0.0139
      6 C         -10.7574  -18.0185   21.0951 C.2     1  UNL1       -0.0101
      7 C         -12.1335  -17.5507   21.4659 C.3     1  UNL1        0.0320
      8 C         -10.3892  -18.7809   19.8569 C.2     1  UNL1        0.0509
      9 C         -11.3324  -19.2094   18.7721 C.3     1  UNL1        0.0513
     10 N          -8.9121  -19.0396   19.8940 N.2     1  UNL1       -0.2603
     11 C          -8.3676  -18.4371   21.1551 C.3     1  UNL1        0.2296
     12 N          -7.6277  -16.3772   25.0870 N.ar    1  UNL1       -0.2369
     13 C          -6.5487  -15.3414   25.1997 C.ar    1  UNL1        0.0864
     14 C          -6.3021  -14.6548   26.5103 C.ar    1  UNL1        0.0194
     15 C          -7.1345  -15.0039   27.7083 C.ar    1  UNL1        0.0064
     16 C          -8.2136  -16.0398   27.5956 C.ar    1  UNL1        0.0612
     17 C          -8.4602  -16.7264   26.2849 C.ar    1  UNL1        0.2675
     18 O          -9.5392  -17.7623   26.1723 O.2     1  UNL1       -0.2665
     19 N          -5.8400  -19.0127   20.9811 N.pl3   1  UNL1       -0.2166
     20 H          -5.9594  -19.2995   20.0469 H       1  UNL1        0.2923
     21 C          -4.5177  -19.2068   21.6621 C.3     1  UNL1        0.2258
     22 C          -3.5116  -16.8941   23.2867 C.3     1  UNL1        0.0308
     23 C          -2.8140  -17.2774   22.0153 C.ar    1  UNL1       -0.0223
     24 C          -1.6132  -16.5044   21.5562 C.ar    1  UNL1       -0.0045
     25 C          -0.9156  -16.8877   20.2849 C.ar    1  UNL1       -0.0007
     26 C          -1.4186  -18.0440   19.4726 C.ar    1  UNL1       -0.0045
     27 C          -2.6193  -18.8171   19.9317 C.ar    1  UNL1       -0.0223
     28 C          -3.1224  -19.9734   19.1194 C.3     1  UNL1        0.0308
     29 C          -3.3170  -18.4338   21.2031 C.ar    1  UNL1        0.0162
@<TRIPOS>BOND
     1    22    23    1
     2    23    24   ar
     3    24    25   ar
     4    25    26   ar
     5    26    27   ar
     6    27    28    1
     7    27    29   ar
     8    29    21    1
     9    21    19    1
    10    19     1    1
    11     1     2    2
    12     2     3    1
    13     3    12    1
    14    12    13   ar
    15    13    14   ar
    16    14    15   ar
    17    15    16   ar
    18    16    17   ar
    19    17    18    2
    20     3     4    2
    21     4     5    1
    22     5     6    2
    23     6     7    1
    24     6     8    1
    25     8     9    1
    26     8    10    2
    27    10    11    1
    28    29    23   ar
    29    11     1    1
    30    17    12   ar
    31    11     5    1
    32    19    20    1
