@<TRIPOS>MOLECULE
*****
 36 39 0 0 0
SMALL
GASTEIGER

@<TRIPOS>ATOM
      1 C         -11.1156  -17.3797   19.9413 C.3     1  UNL1        0.0914
      2 C         -11.1320  -16.1987   19.0167 C.3     1  UNL1        0.0885
      3 N         -12.3161  -15.3487   19.3714 N.3     1  UNL1       -0.2960
      4 C         -13.0313  -16.0045   20.5152 C.3     1  UNL1        0.0717
      5 C         -12.2894  -17.2597   20.8674 C.3     1  UNL1        0.0511
      6 H         -12.9415  -15.2742   18.5691 H       1  UNL1        0.1233
      7 N          -7.7180  -19.3546   20.4948 N.am    1  UNL1       -0.2485
      8 C          -8.7305  -18.2480   20.4962 C.2     1  UNL1        0.3059
      9 O          -8.3705  -16.9028   21.0537 O.2     1  UNL1       -0.2524
     10 N         -10.1031  -18.4864   19.9400 N.am    1  UNL1       -0.2888
     11 H          -7.9542  -20.2375   20.1289 H       1  UNL1        0.1583
     12 H         -10.3393  -19.3693   19.5740 H       1  UNL1        0.1510
     13 C          -3.9314  -19.0602   21.2950 C.ar    1  UNL1        0.0803
     14 S          -5.0500  -19.4793   20.3878 S.2     1  UNL1       -0.0488
     15 C          -6.3455  -19.1162   21.0510 C.ar    1  UNL1        0.1664
     16 N          -6.0275  -18.4727   22.3682 N.ar    1  UNL1       -0.2282
     17 C          -4.5355  -18.4382   22.5189 C.ar    1  UNL1        0.0701
     18 C          -3.7802  -17.8796   23.6883 C.3     1  UNL1        0.0528
     19 C          -1.7378  -18.2368   20.1726 C.3     1  UNL1        0.0779
     20 C          -2.4660  -19.2330   21.0255 C.2     1  UNL1        0.1807
     21 O          -1.7288  -20.4018   21.6088 O.2     1  UNL1       -0.2908
     22 C         -12.6568  -18.2254   21.9548 C.3     1  UNL1        0.0751
     23 N         -11.6012  -18.7427   22.8866 N.3     1  UNL1       -0.2726
     24 C         -10.9793  -20.0859   22.6438 C.3     1  UNL1        0.0721
     25 C          -9.9238  -20.6031   23.5757 C.3     1  UNL1        0.0174
     26 C          -9.4903  -19.7772   24.7503 C.3     1  UNL1        0.0031
     27 C         -10.1122  -18.4340   24.9931 C.3     1  UNL1        0.0204
     28 C         -11.1677  -17.9168   24.0613 C.3     1  UNL1        0.0724
     29 C          -9.6786  -17.6080   26.1678 C.3     1  UNL1        0.0277
     30 C          -8.4414  -16.7650   26.0760 C.ar    1  UNL1       -0.0220
     31 C          -7.8795  -16.4011   24.7336 C.ar    1  UNL1       -0.0020
     32 C          -6.6423  -15.5581   24.6419 C.ar    1  UNL1        0.0293
     33 C          -5.9668  -15.0788   25.8925 C.ar    1  UNL1        0.1401
     34 F          -4.7295  -14.2357   25.8007 F       1  UNL1       -0.2042
     35 C          -6.5286  -15.4426   27.2349 C.ar    1  UNL1        0.0293
     36 C          -7.7659  -16.2858   27.3267 C.ar    1  UNL1       -0.0020
@<TRIPOS>BOND
     1    19    20    1
     2    20    21    2
     3    20    13    1
     4    13    14   ar
     5    14    15   ar
     6    15     7    1
     7     7     8   am
     8     8     9    2
     9     8    10   am
    10     1    10    1
    11     1     2    1
    12     2     3    1
    13     3     4    1
    14     4     5    1
    15     5    22    1
    16    22    23    1
    17    23    24    1
    18    24    25    1
    19    25    26    1
    20    26    27    1
    21    27    29    1
    22    29    30    1
    23    30    31   ar
    24    31    32   ar
    25    32    33   ar
    26    33    34    1
    27    33    35   ar
    28    35    36   ar
    29    27    28    1
    30    15    16   ar
    31    16    17   ar
    32    17    18    1
    33    17    13   ar
    34     5     1    1
    35    28    23    1
    36    36    30   ar
    37     7    11    1
    38    10    12    1
    39     3     6    1
@<TRIPOS>MOLECULE
*****
 36 39 0 0 0
SMALL
GASTEIGER

@<TRIPOS>ATOM
      1 C          -9.6942  -20.1240   23.4072 C.3     1  UNL1        0.0914
      2 C          -9.8303  -20.3431   24.8848 C.3     1  UNL1        0.0885
      3 N         -11.0876  -19.6635   25.3404 N.3     1  UNL1       -0.2960
      4 C         -11.7285  -19.0244   24.1442 C.3     1  UNL1        0.0717
      5 C         -10.8673  -19.3090   22.9495 C.3     1  UNL1        0.0511
      6 H         -10.8638  -18.9511   26.0352 H       1  UNL1        0.1233
      7 N          -6.2272  -20.3141   21.4853 N.am    1  UNL1       -0.2485
      8 C          -7.3409  -19.8072   22.3528 C.2     1  UNL1        0.3059
      9 O          -7.2150  -18.4766   23.0336 O.2     1  UNL1       -0.2524
     10 N          -8.5805  -20.6309   22.5396 N.am    1  UNL1       -0.2888
     11 H          -6.3098  -21.1875   21.0385 H       1  UNL1        0.1583
     12 H          -8.6632  -21.5043   22.0928 H       1  UNL1        0.1510
     13 C          -2.9184  -18.6074   20.3878 C.ar    1  UNL1        0.0803
     14 S          -3.9975  -19.6285   20.1802 S.2     1  UNL1       -0.0488
     15 C          -4.9876  -19.4905   21.2985 C.ar    1  UNL1        0.1664
     16 N          -4.5205  -18.3840   22.1973 N.ar    1  UNL1       -0.2282
     17 C          -3.2417  -17.8383   21.6344 C.ar    1  UNL1        0.0701
     18 C          -2.4288  -16.7199   22.2160 C.3     1  UNL1        0.0528
     19 C          -1.8679  -17.6194   18.2268 C.3     1  UNL1        0.0779
     20 C          -1.7256  -18.3931   19.5040 C.2     1  UNL1        0.1807
     21 O          -0.3906  -18.9525   19.8972 O.2     1  UNL1       -0.2908
     22 C         -11.1327  -18.8578   21.5438 C.3     1  UNL1        0.0751
     23 N         -10.6971  -17.4930   21.0993 N.3     1  UNL1       -0.2726
     24 C         -11.4186  -16.8029   19.9799 C.3     1  UNL1        0.0721
     25 C         -10.9830  -15.4382   19.5354 C.3     1  UNL1        0.0174
     26 C          -9.8258  -14.7634   20.2104 C.3     1  UNL1        0.0031
     27 C          -9.1042  -15.4534   21.3299 C.3     1  UNL1        0.0204
     28 C          -9.5399  -16.8182   21.7743 C.3     1  UNL1        0.0724
     29 C          -7.9471  -14.7787   22.0048 C.3     1  UNL1        0.0277
     30 C          -7.6241  -15.0959   23.4349 C.ar    1  UNL1       -0.0220
     31 C          -8.7292  -15.2445   24.4382 C.ar    1  UNL1       -0.0020
     32 C          -8.4062  -15.5617   25.8683 C.ar    1  UNL1        0.0293
     33 C          -6.9781  -15.7302   26.2950 C.ar    1  UNL1        0.1401
     34 F          -6.6552  -16.0474   27.7252 F       1  UNL1       -0.2042
     35 C          -5.8730  -15.5816   25.2918 C.ar    1  UNL1        0.0293
     36 C          -6.1960  -15.2644   23.8617 C.ar    1  UNL1       -0.0020
@<TRIPOS>BOND
     1    19    20    1
     2    20    21    2
     3    20    13    1
     4    13    14   ar
     5    14    15   ar
     6    15     7    1
     7     7     8   am
     8     8     9    2
     9     8    10   am
    10     1    10    1
    11     1     2    1
    12     2     3    1
    13     3     4    1
    14     4     5    1
    15     5    22    1
    16    22    23    1
    17    23    24    1
    18    24    25    1
    19    25    26    1
    20    26    27    1
    21    27    29    1
    22    29    30    1
    23    30    31   ar
    24    31    32   ar
    25    32    33   ar
    26    33    34    1
    27    33    35   ar
    28    35    36   ar
    29    27    28    1
    30    15    16   ar
    31    16    17   ar
    32    17    18    1
    33    17    13   ar
    34     5     1    1
    35    28    23    1
    36    36    30   ar
    37     7    11    1
    38    10    12    1
    39     3     6    1
@<TRIPOS>MOLECULE
*****
 36 39 0 0 0
SMALL
GASTEIGER

@<TRIPOS>ATOM
      1 C          -1.5974  -16.9410   20.7599 C.3     1  UNL1        0.0914
      2 C          -0.1655  -17.3356   20.9698 C.3     1  UNL1        0.0885
      3 N           0.1282  -18.5060   20.0787 N.3     1  UNL1       -0.2960
      4 C          -1.1221  -18.8347   19.3181 C.3     1  UNL1        0.0717
      5 C          -2.1886  -17.8675   19.7390 C.3     1  UNL1        0.0511
      6 H           0.4114  -19.3076   20.6423 H       1  UNL1        0.1233
      7 N          -4.1521  -14.9895   23.0870 N.am    1  UNL1       -0.2485
      8 C          -3.4370  -16.1133   22.3972 C.2     1  UNL1        0.3059
      9 O          -3.8464  -17.5331   22.6550 O.2     1  UNL1       -0.2524
     10 N          -2.3124  -15.8173   21.4496 N.am    1  UNL1       -0.2888
     11 H          -3.8833  -14.0576   22.9178 H       1  UNL1        0.1583
     12 H          -2.0437  -14.8854   21.2805 H       1  UNL1        0.1510
     13 C          -7.4202  -15.9982   24.9220 C.ar    1  UNL1        0.0803
     14 S          -6.6061  -15.8755   23.6681 S.2     1  UNL1       -0.0488
     15 C          -5.2765  -15.2855   24.0345 C.ar    1  UNL1        0.1664
     16 N          -5.2689  -15.0436   25.5149 N.ar    1  UNL1       -0.2282
     17 C          -6.5938  -15.4840   26.0634 C.ar    1  UNL1        0.0701
     18 C          -7.0178  -15.4213   27.5008 C.3     1  UNL1        0.0528
     19 C          -9.8311  -16.1852   23.9722 C.3     1  UNL1        0.0779
     20 C          -8.8156  -16.5399   25.0177 C.2     1  UNL1        0.1807
     21 O          -9.1956  -17.4362   26.1588 O.2     1  UNL1       -0.2908
     22 C          -3.5987  -17.8329   19.2287 C.3     1  UNL1        0.0751
     23 N          -4.5546  -18.9306   19.5911 N.3     1  UNL1       -0.2726
     24 C          -4.0327  -20.2847   19.9705 C.3     1  UNL1        0.0721
     25 C          -4.9886  -21.3824   20.3328 C.3     1  UNL1        0.0174
     26 C          -6.4664  -21.1259   20.3157 C.3     1  UNL1        0.0031
     27 C          -6.9883  -19.7719   19.9362 C.3     1  UNL1        0.0204
     28 C          -6.0324  -18.6742   19.5739 C.3     1  UNL1        0.0724
     29 C          -8.4662  -19.5154   19.9191 C.3     1  UNL1        0.0277
     30 C          -9.2440  -19.5255   21.2015 C.ar    1  UNL1       -0.0220
     31 C          -8.5699  -19.9118   22.4847 C.ar    1  UNL1       -0.0020
     32 C          -9.3477  -19.9219   23.7671 C.ar    1  UNL1        0.0293
     33 C         -10.7998  -19.5457   23.7665 C.ar    1  UNL1        0.1401
     34 F         -11.5777  -19.5558   25.0491 F       1  UNL1       -0.2042
     35 C         -11.4740  -19.1594   22.4835 C.ar    1  UNL1        0.0293
     36 C         -10.6961  -19.1493   21.2009 C.ar    1  UNL1       -0.0020
@<TRIPOS>BOND
     1    19    20    1
     2    20    21    2
     3    20    13    1
     4    13    14   ar
     5    14    15   ar
     6    15     7    1
     7     7     8   am
     8     8     9    2
     9     8    10   am
    10     1    10    1
    11     1     2    1
    12     2     3    1
    13     3     4    1
    14     4     5    1
    15     5    22    1
    16    22    23    1
    17    23    24    1
    18    24    25    1
    19    25    26    1
    20    26    27    1
    21    27    29    1
    22    29    30    1
    23    30    31   ar
    24    31    32   ar
    25    32    33   ar
    26    33    34    1
    27    33    35   ar
    28    35    36   ar
    29    27    28    1
    30    15    16   ar
    31    16    17   ar
    32    17    18    1
    33    17    13   ar
    34     5     1    1
    35    28    23    1
    36    36    30   ar
    37     7    11    1
    38    10    12    1
    39     3     6    1
@<TRIPOS>MOLECULE
*****
 36 39 0 0 0
SMALL
GASTEIGER

@<TRIPOS>ATOM
      1 C          -4.8138  -16.2187   24.3308 C.3     1  UNL1        0.0914
      2 C          -4.9924  -16.6737   25.7489 C.3     1  UNL1        0.0885
      3 N          -3.8430  -17.5731   26.0953 N.3     1  UNL1       -0.2960
      4 C          -2.9542  -17.6740   24.8913 C.3     1  UNL1        0.0717
      5 C          -3.5542  -16.8370   23.8007 C.3     1  UNL1        0.0511
      6 H          -4.1911  -18.4983   26.3471 H       1  UNL1        0.1233
      7 N          -7.9810  -14.8973   22.3374 N.am    1  UNL1       -0.2485
      8 C          -7.0613  -15.8102   23.0928 C.2     1  UNL1        0.3059
      9 O          -7.4692  -17.2276   23.3656 O.2     1  UNL1       -0.2524
     10 N          -5.7336  -15.3058   23.5754 N.am    1  UNL1       -0.2888
     11 H          -7.7132  -13.9670   22.1583 H       1  UNL1        0.1583
     12 H          -5.4658  -14.3755   23.3963 H       1  UNL1        0.1510
     13 C         -11.4571  -16.5273   21.7676 C.ar    1  UNL1        0.0803
     14 S         -10.2597  -16.2633   22.6315 S.2     1  UNL1       -0.0488
     15 C          -9.3086  -15.4017   21.8549 C.ar    1  UNL1        0.1664
     16 N          -9.9183  -15.1332   20.5109 N.ar    1  UNL1       -0.2282
     17 C         -11.2462  -15.8288   20.4570 C.ar    1  UNL1        0.0701
     18 C         -12.1963  -15.8264   19.2962 C.3     1  UNL1        0.0528
     19 C         -12.8470  -17.7787   23.5709 C.3     1  UNL1        0.0779
     20 C         -12.6552  -17.3459   22.1475 C.2     1  UNL1        0.1807
     21 O         -13.6614  -17.7319   21.1042 O.2     1  UNL1       -0.2908
     22 C          -2.9931  -16.6508   22.4222 C.3     1  UNL1        0.0751
     23 N          -3.1867  -17.7156   21.3835 N.3     1  UNL1       -0.2726
     24 C          -2.2642  -17.7884   20.2030 C.3     1  UNL1        0.0721
     25 C          -2.4579  -18.8532   19.1644 C.3     1  UNL1        0.0174
     26 C          -3.5741  -19.8451   19.3063 C.3     1  UNL1        0.0031
     27 C          -4.4967  -19.7723   20.4867 C.3     1  UNL1        0.0204
     28 C          -4.3030  -18.7075   21.5253 C.3     1  UNL1        0.0724
     29 C          -5.6129  -20.7642   20.6286 C.3     1  UNL1        0.0277
     30 C          -7.0297  -20.3396   20.3792 C.ar    1  UNL1       -0.0220
     31 C          -7.8625  -19.8065   21.5072 C.ar    1  UNL1       -0.0020
     32 C          -9.2794  -19.3819   21.2579 C.ar    1  UNL1        0.0293
     33 C          -9.8635  -19.4904   19.8805 C.ar    1  UNL1        0.1401
     34 F         -11.2804  -19.0658   19.6312 F       1  UNL1       -0.2042
     35 C          -9.0308  -20.0235   18.7526 C.ar    1  UNL1        0.0293
     36 C          -7.6138  -20.4481   19.0019 C.ar    1  UNL1       -0.0020
@<TRIPOS>BOND
     1    19    20    1
     2    20    21    2
     3    20    13    1
     4    13    14   ar
     5    14    15   ar
     6    15     7    1
     7     7     8   am
     8     8     9    2
     9     8    10   am
    10     1    10    1
    11     1     2    1
    12     2     3    1
    13     3     4    1
    14     4     5    1
    15     5    22    1
    16    22    23    1
    17    23    24    1
    18    24    25    1
    19    25    26    1
    20    26    27    1
    21    27    29    1
    22    29    30    1
    23    30    31   ar
    24    31    32   ar
    25    32    33   ar
    26    33    34    1
    27    33    35   ar
    28    35    36   ar
    29    27    28    1
    30    15    16   ar
    31    16    17   ar
    32    17    18    1
    33    17    13   ar
    34     5     1    1
    35    28    23    1
    36    36    30   ar
    37     7    11    1
    38    10    12    1
    39     3     6    1
@<TRIPOS>MOLECULE
*****
 36 39 0 0 0
SMALL
GASTEIGER

@<TRIPOS>ATOM
      1 C           8.4766   -6.1463   26.9431 C.3     1  UNL1        0.0914
      2 C           8.3025   -7.6144   27.1966 C.3     1  UNL1        0.0885
      3 N           8.0089   -8.2798   25.8847 N.3     1  UNL1       -0.2960
      4 C           8.0016   -7.2229   24.8204 C.3     1  UNL1        0.0717
      5 C           8.2907   -5.9043   25.4744 C.3     1  UNL1        0.0511
      6 H           7.0980   -8.7371   25.9247 H       1  UNL1        0.1233
      7 N           7.9723   -3.3937   29.7572 N.am    1  UNL1       -0.2485
      8 C           7.6659   -4.4367   28.7236 C.2     1  UNL1        0.3059
      9 O           6.2425   -4.8131   28.4370 O.2     1  UNL1       -0.2524
     10 N           8.7830   -5.1033   27.9766 N.am    1  UNL1       -0.2888
     11 H           8.9065   -3.1466   29.9454 H       1  UNL1        0.1583
     12 H           9.7172   -4.8562   28.1648 H       1  UNL1        0.1510
     13 C           5.2877   -2.1223   32.2556 C.ar    1  UNL1        0.0803
     14 S           6.4437   -3.0163   31.9173 S.2     1  UNL1       -0.0488
     15 C           6.8553   -2.7272   30.5041 C.ar    1  UNL1        0.1664
     16 N           5.9536   -1.6544   29.9690 N.ar    1  UNL1       -0.2282
     17 C           4.9849   -1.2806   31.0515 C.ar    1  UNL1        0.0701
     18 C           3.9031   -0.2466   30.9481 C.3     1  UNL1        0.0528
     19 C           4.8110   -0.9497   34.5244 C.3     1  UNL1        0.0779
     20 C           4.5621   -2.0778   33.5676 C.2     1  UNL1        0.1807
     21 O           3.5876   -3.1614   33.9229 O.2     1  UNL1       -0.2908
     22 C           8.3784   -4.5768   24.7816 C.3     1  UNL1        0.0751
     23 N           7.1256   -3.8344   24.4217 N.3     1  UNL1       -0.2726
     24 C           6.6785   -2.6698   25.2547 C.3     1  UNL1        0.0721
     25 C           5.4258   -1.9274   24.8948 C.3     1  UNL1        0.0174
     26 C           4.6202   -2.3496   23.7020 C.3     1  UNL1        0.0031
     27 C           5.0673   -3.5141   22.8690 C.3     1  UNL1        0.0204
     28 C           6.3200   -4.2565   23.2289 C.3     1  UNL1        0.0724
     29 C           4.2618   -3.9363   21.6762 C.3     1  UNL1        0.0277
     30 C           4.2939   -3.1157   20.4210 C.ar    1  UNL1       -0.0220
     31 C           3.3414   -1.9696   20.2496 C.ar    1  UNL1       -0.0020
     32 C           3.3735   -1.1490   18.9944 C.ar    1  UNL1        0.0293
     33 C           4.3580   -1.4746   17.9105 C.ar    1  UNL1        0.1401
     34 F           4.3901   -0.6539   16.6552 F       1  UNL1       -0.2042
     35 C           5.3104   -2.6206   18.0818 C.ar    1  UNL1        0.0293
     36 C           5.2783   -3.4413   19.3371 C.ar    1  UNL1       -0.0020
@<TRIPOS>BOND
     1    19    20    1
     2    20    21    2
     3    20    13    1
     4    13    14   ar
     5    14    15   ar
     6    15     7    1
     7     7     8   am
     8     8     9    2
     9     8    10   am
    10     1    10    1
    11     1     2    1
    12     2     3    1
    13     3     4    1
    14     4     5    1
    15     5    22    1
    16    22    23    1
    17    23    24    1
    18    24    25    1
    19    25    26    1
    20    26    27    1
    21    27    29    1
    22    29    30    1
    23    30    31   ar
    24    31    32   ar
    25    32    33   ar
    26    33    34    1
    27    33    35   ar
    28    35    36   ar
    29    27    28    1
    30    15    16   ar
    31    16    17   ar
    32    17    18    1
    33    17    13   ar
    34     5     1    1
    35    28    23    1
    36    36    30   ar
    37     7    11    1
    38    10    12    1
    39     3     6    1
@<TRIPOS>MOLECULE
*****
 36 39 0 0 0
SMALL
GASTEIGER

@<TRIPOS>ATOM
      1 C          -6.6073  -15.1244   25.8300 C.3     1  UNL1        0.0914
      2 C          -6.2156  -15.0269   27.2747 C.3     1  UNL1        0.0885
      3 N          -7.3710  -15.5078   28.1017 N.3     1  UNL1       -0.2960
      4 C          -8.4768  -15.9023   27.1681 C.3     1  UNL1        0.0717
      5 C          -8.0048  -15.6654   25.7642 C.3     1  UNL1        0.0511
      6 H          -7.6892  -14.7609   28.7192 H       1  UNL1        0.1233
      7 N          -4.0736  -15.4138   22.7891 N.am    1  UNL1       -0.2485
      8 C          -4.9292  -15.7911   23.9620 C.2     1  UNL1        0.3059
      9 O          -4.9622  -17.2126   24.4397 O.2     1  UNL1       -0.2524
     10 N          -5.7517  -14.7470   24.6572 N.am    1  UNL1       -0.2888
     11 H          -4.0519  -14.4808   22.4756 H       1  UNL1        0.1583
     12 H          -5.7301  -13.8140   24.3437 H       1  UNL1        0.1510
     13 C          -1.5051  -17.5352   20.7972 C.ar    1  UNL1        0.0803
     14 S          -1.9906  -16.2149   21.3180 S.2     1  UNL1       -0.0488
     15 C          -3.2511  -16.4578   22.0940 C.ar    1  UNL1        0.1664
     16 N          -3.5446  -17.9283   22.0529 N.ar    1  UNL1       -0.2282
     17 C          -2.4655  -18.5941   21.2514 C.ar    1  UNL1        0.0701
     18 C          -2.3646  -20.0613   20.9559 C.3     1  UNL1        0.0528
     19 C           1.0825  -17.6511   20.5966 C.3     1  UNL1        0.0779
     20 C          -0.2752  -17.7574   19.9679 C.2     1  UNL1        0.1807
     21 O          -0.4030  -18.0859   18.5099 O.2     1  UNL1       -0.2908
     22 C          -8.7920  -15.9240   24.5139 C.3     1  UNL1        0.0751
     23 N          -8.9183  -17.3211   23.9826 N.3     1  UNL1       -0.2726
     24 C          -9.9399  -18.2543   24.5618 C.3     1  UNL1        0.0721
     25 C         -10.0662  -19.6513   24.0305 C.3     1  UNL1        0.0174
     26 C          -9.1709  -20.1152   22.9200 C.3     1  UNL1        0.0031
     27 C          -8.1493  -19.1820   22.3408 C.3     1  UNL1        0.0204
     28 C          -8.0230  -17.7850   22.8721 C.3     1  UNL1        0.0724
     29 C          -7.2540  -19.6459   21.2303 C.3     1  UNL1        0.0277
     30 C          -7.8482  -20.2076   19.9728 C.ar    1  UNL1       -0.0220
     31 C          -9.0452  -19.5516   19.3507 C.ar    1  UNL1       -0.0020
     32 C          -9.6394  -20.1133   18.0932 C.ar    1  UNL1        0.0293
     33 C          -9.0367  -21.3312   17.4578 C.ar    1  UNL1        0.1401
     34 F          -9.6310  -21.8929   16.2003 F       1  UNL1       -0.2042
     35 C          -7.8398  -21.9872   18.0799 C.ar    1  UNL1        0.0293
     36 C          -7.2455  -21.4254   19.3374 C.ar    1  UNL1       -0.0020
@<TRIPOS>BOND
     1    19    20    1
     2    20    21    2
     3    20    13    1
     4    13    14   ar
     5    14    15   ar
     6    15     7    1
     7     7     8   am
     8     8     9    2
     9     8    10   am
    10     1    10    1
    11     1     2    1
    12     2     3    1
    13     3     4    1
    14     4     5    1
    15     5    22    1
    16    22    23    1
    17    23    24    1
    18    24    25    1
    19    25    26    1
    20    26    27    1
    21    27    29    1
    22    29    30    1
    23    30    31   ar
    24    31    32   ar
    25    32    33   ar
    26    33    34    1
    27    33    35   ar
    28    35    36   ar
    29    27    28    1
    30    15    16   ar
    31    16    17   ar
    32    17    18    1
    33    17    13   ar
    34     5     1    1
    35    28    23    1
    36    36    30   ar
    37     7    11    1
    38    10    12    1
    39     3     6    1
@<TRIPOS>MOLECULE
*****
 36 39 0 0 0
SMALL
GASTEIGER

@<TRIPOS>ATOM
      1 C          -6.7632  -15.2954   25.8151 C.3     1  UNL1        0.0914
      2 C          -6.3850  -15.6434   27.2243 C.3     1  UNL1        0.0885
      3 N          -7.6378  -16.0102   27.9634 N.3     1  UNL1       -0.2960
      4 C          -8.7902  -15.8888   27.0109 C.3     1  UNL1        0.0717
      5 C          -8.2497  -15.4470   25.6832 C.3     1  UNL1        0.0511
      6 H          -7.7723  -15.3773   28.7519 H       1  UNL1        0.1233
      7 N          -4.0067  -15.4616   22.9648 N.am    1  UNL1       -0.2485
      8 C          -4.9494  -15.8866   24.0513 C.2     1  UNL1        0.3059
      9 O          -5.0212  -17.3279   24.4606 O.2     1  UNL1       -0.2524
     10 N          -5.8205  -14.8704   24.7286 N.am    1  UNL1       -0.2888
     11 H          -3.9596  -14.5156   22.6961 H       1  UNL1        0.1583
     12 H          -5.7734  -13.9244   24.4599 H       1  UNL1        0.1510
     13 C          -1.4572  -17.4946   20.8595 C.ar    1  UNL1        0.0803
     14 S          -2.0766  -16.1901   21.2650 S.2     1  UNL1       -0.0488
     15 C          -3.1357  -16.4778   22.2876 C.ar    1  UNL1        0.1664
     16 N          -3.1708  -17.9602   22.5141 N.ar    1  UNL1       -0.2282
     17 C          -2.1334  -18.5886   21.6315 C.ar    1  UNL1        0.0701
     18 C          -1.8262  -20.0538   21.5373 C.3     1  UNL1        0.0528
     19 C           1.0744  -17.4950   20.2758 C.3     1  UNL1        0.0779
     20 C          -0.3551  -17.6737   19.8579 C.2     1  UNL1        0.1807
     21 O          -0.6825  -18.0315   18.4385 O.2     1  UNL1       -0.2908
     22 C          -9.0544  -15.2002   24.4417 C.3     1  UNL1        0.0751
     23 N          -9.7581  -16.3392   23.7652 N.3     1  UNL1       -0.2726
     24 C         -11.2021  -16.2068   23.3813 C.3     1  UNL1        0.0721
     25 C         -11.9058  -17.3458   22.7049 C.3     1  UNL1        0.0174
     26 C         -11.1655  -18.6172   22.4125 C.3     1  UNL1        0.0031
     27 C          -9.7215  -18.7496   22.7964 C.3     1  UNL1        0.0204
     28 C          -9.0179  -17.6106   23.4728 C.3     1  UNL1        0.0724
     29 C          -8.9813  -20.0210   22.5039 C.3     1  UNL1        0.0277
     30 C          -7.7304  -19.9873   21.6768 C.ar    1  UNL1       -0.0220
     31 C          -7.7194  -19.2641   20.3626 C.ar    1  UNL1       -0.0020
     32 C          -6.4685  -19.2304   19.5356 C.ar    1  UNL1        0.0293
     33 C          -5.2285  -19.9197   20.0226 C.ar    1  UNL1        0.1401
     34 F          -3.9776  -19.8860   19.1955 F       1  UNL1       -0.2042
     35 C          -5.2394  -20.6428   21.3368 C.ar    1  UNL1        0.0293
     36 C          -6.4904  -20.6766   22.1639 C.ar    1  UNL1       -0.0020
@<TRIPOS>BOND
     1    19    20    1
     2    20    21    2
     3    20    13    1
     4    13    14   ar
     5    14    15   ar
     6    15     7    1
     7     7     8   am
     8     8     9    2
     9     8    10   am
    10     1    10    1
    11     1     2    1
    12     2     3    1
    13     3     4    1
    14     4     5    1
    15     5    22    1
    16    22    23    1
    17    23    24    1
    18    24    25    1
    19    25    26    1
    20    26    27    1
    21    27    29    1
    22    29    30    1
    23    30    31   ar
    24    31    32   ar
    25    32    33   ar
    26    33    34    1
    27    33    35   ar
    28    35    36   ar
    29    27    28    1
    30    15    16   ar
    31    16    17   ar
    32    17    18    1
    33    17    13   ar
    34     5     1    1
    35    28    23    1
    36    36    30   ar
    37     7    11    1
    38    10    12    1
    39     3     6    1
@<TRIPOS>MOLECULE
*****
 36 39 0 0 0
SMALL
GASTEIGER

@<TRIPOS>ATOM
      1 C          -1.6326  -16.8950   21.0020 C.3     1  UNL1        0.0914
      2 C          -0.7320  -16.5236   19.8615 C.3     1  UNL1        0.0885
      3 N          -0.3468  -17.7842   19.1455 N.3     1  UNL1       -0.2960
      4 C          -1.0093  -18.9347   19.8437 C.3     1  UNL1        0.0717
      5 C          -1.8040  -18.3851   20.9911 C.3     1  UNL1        0.0511
      6 H           0.6662  -17.9009   19.1708 H       1  UNL1        0.1233
      7 N          -4.2574  -15.2460   23.4803 N.am    1  UNL1       -0.2485
      8 C          -3.6371  -16.1976   22.5007 C.2     1  UNL1        0.3059
      9 O          -4.4010  -17.4036   22.0402 O.2     1  UNL1       -0.2524
     10 N          -2.2529  -15.9433   21.9816 N.am    1  UNL1       -0.2888
     11 H          -3.7561  -14.4544   23.7825 H       1  UNL1        0.1583
     12 H          -1.7516  -15.1518   22.2838 H       1  UNL1        0.1510
     13 C          -7.5136  -15.8597   25.5016 C.ar    1  UNL1        0.0803
     14 S          -6.0378  -15.5981   25.4428 S.2     1  UNL1       -0.0488
     15 C          -5.6415  -15.5003   23.9993 C.ar    1  UNL1        0.1664
     16 N          -6.8726  -15.7015   23.1661 N.ar    1  UNL1       -0.2282
     17 C          -8.0295  -15.9236   24.0946 C.ar    1  UNL1        0.0701
     18 C          -9.4526  -16.1669   23.6875 C.3     1  UNL1        0.0528
     19 C          -8.4687  -14.8880   27.7137 C.3     1  UNL1        0.0779
     20 C          -8.3301  -16.0279   26.7486 C.2     1  UNL1        0.1807
     21 O          -9.0080  -17.3359   27.0305 O.2     1  UNL1       -0.2908
     22 C          -2.6258  -19.1852   21.9577 C.3     1  UNL1        0.0751
     23 N          -3.9095  -19.8171   21.5073 N.3     1  UNL1       -0.2726
     24 C          -3.9780  -20.5118   20.1797 C.3     1  UNL1        0.0721
     25 C          -5.2617  -21.1437   19.7292 C.3     1  UNL1        0.0174
     26 C          -6.4768  -21.0808   20.6065 C.3     1  UNL1        0.0031
     27 C          -6.4083  -20.3861   21.9341 C.3     1  UNL1        0.0204
     28 C          -5.1246  -19.7542   22.3845 C.3     1  UNL1        0.0724
     29 C          -7.6234  -20.3232   22.8113 C.3     1  UNL1        0.0277
     30 C          -8.8769  -19.6691   22.3105 C.ar    1  UNL1       -0.0220
     31 C         -10.1696  -19.8629   23.0465 C.ar    1  UNL1       -0.0020
     32 C         -11.4230  -19.2088   22.5457 C.ar    1  UNL1        0.0293
     33 C         -11.3840  -18.3608   21.3090 C.ar    1  UNL1        0.1401
     34 F         -12.6375  -17.7066   20.8083 F       1  UNL1       -0.2042
     35 C         -10.0914  -18.1669   20.5731 C.ar    1  UNL1        0.0293
     36 C          -8.8378  -18.8211   21.0739 C.ar    1  UNL1       -0.0020
@<TRIPOS>BOND
     1    19    20    1
     2    20    21    2
     3    20    13    1
     4    13    14   ar
     5    14    15   ar
     6    15     7    1
     7     7     8   am
     8     8     9    2
     9     8    10   am
    10     1    10    1
    11     1     2    1
    12     2     3    1
    13     3     4    1
    14     4     5    1
    15     5    22    1
    16    22    23    1
    17    23    24    1
    18    24    25    1
    19    25    26    1
    20    26    27    1
    21    27    29    1
    22    29    30    1
    23    30    31   ar
    24    31    32   ar
    25    32    33   ar
    26    33    34    1
    27    33    35   ar
    28    35    36   ar
    29    27    28    1
    30    15    16   ar
    31    16    17   ar
    32    17    18    1
    33    17    13   ar
    34     5     1    1
    35    28    23    1
    36    36    30   ar
    37     7    11    1
    38    10    12    1
    39     3     6    1
@<TRIPOS>MOLECULE
*****
 36 39 0 0 0
SMALL
GASTEIGER

@<TRIPOS>ATOM
      1 C          -2.5834  -18.3882   21.1568 C.3     1  UNL1        0.0914
      2 C          -1.5733  -17.7978   20.2181 C.3     1  UNL1        0.0885
      3 N          -0.9795  -16.5881   20.8772 N.3     1  UNL1       -0.2960
      4 C          -1.6227  -16.4310   22.2231 C.3     1  UNL1        0.0717
      5 C          -2.6140  -17.5434   22.3959 C.3     1  UNL1        0.0511
      6 H          -1.1597  -15.7607   20.3087 H       1  UNL1        0.1233
      7 N          -5.6677  -20.6856   20.1773 N.am    1  UNL1       -0.2485
      8 C          -4.8345  -19.4648   20.4330 C.2     1  UNL1        0.3059
      9 O          -5.4190  -18.0998   20.2206 O.2     1  UNL1       -0.2524
     10 N          -3.4167  -19.6089   20.9011 N.am    1  UNL1       -0.2888
     11 H          -5.2841  -21.5815   20.3167 H       1  UNL1        0.1583
     12 H          -3.0330  -20.5048   21.0405 H       1  UNL1        0.1510
     13 C          -9.4375  -19.9494   19.6186 C.ar    1  UNL1        0.0803
     14 S          -8.1943  -19.8577   20.4530 S.2     1  UNL1       -0.0488
     15 C          -7.0854  -20.5414   19.7093 C.ar    1  UNL1        0.1664
     16 N          -7.6434  -21.0556   18.4153 N.ar    1  UNL1       -0.2282
     17 C          -9.0970  -20.6897   18.3593 C.ar    1  UNL1        0.0701
     18 C         -10.0439  -21.0082   17.2404 C.3     1  UNL1        0.0528
     19 C         -11.5631  -20.0010   21.1115 C.3     1  UNL1        0.0779
     20 C         -10.7846  -19.3976   19.9802 C.2     1  UNL1        0.1807
     21 O         -11.3531  -18.2424   19.2105 O.2     1  UNL1       -0.2908
     22 C          -3.4832  -17.7712   23.5969 C.3     1  UNL1        0.0751
     23 N          -4.7284  -16.9567   23.7869 N.3     1  UNL1       -0.2726
     24 C          -4.7765  -15.8960   24.8464 C.3     1  UNL1        0.0721
     25 C          -6.0216  -15.0815   25.0363 C.3     1  UNL1        0.0174
     26 C          -7.2188  -15.3277   24.1667 C.3     1  UNL1        0.0031
     27 C          -7.1708  -16.3884   23.1073 C.3     1  UNL1        0.0204
     28 C          -5.9256  -17.2029   22.9173 C.3     1  UNL1        0.0724
     29 C          -8.3680  -16.6347   22.2377 C.3     1  UNL1        0.0277
     30 C          -9.6516  -17.1148   22.8472 C.ar    1  UNL1       -0.0220
     31 C         -10.9549  -16.4970   22.4349 C.ar    1  UNL1       -0.0020
     32 C         -12.2386  -16.9772   23.0444 C.ar    1  UNL1        0.0293
     33 C         -12.2191  -18.0752   24.0662 C.ar    1  UNL1        0.1401
     34 F         -13.5029  -18.5554   24.6757 F       1  UNL1       -0.2042
     35 C         -10.9159  -18.6930   24.4785 C.ar    1  UNL1        0.0293
     36 C          -9.6321  -18.2129   23.8689 C.ar    1  UNL1       -0.0020
@<TRIPOS>BOND
     1    19    20    1
     2    20    21    2
     3    20    13    1
     4    13    14   ar
     5    14    15   ar
     6    15     7    1
     7     7     8   am
     8     8     9    2
     9     8    10   am
    10     1    10    1
    11     1     2    1
    12     2     3    1
    13     3     4    1
    14     4     5    1
    15     5    22    1
    16    22    23    1
    17    23    24    1
    18    24    25    1
    19    25    26    1
    20    26    27    1
    21    27    29    1
    22    29    30    1
    23    30    31   ar
    24    31    32   ar
    25    32    33   ar
    26    33    34    1
    27    33    35   ar
    28    35    36   ar
    29    27    28    1
    30    15    16   ar
    31    16    17   ar
    32    17    18    1
    33    17    13   ar
    34     5     1    1
    35    28    23    1
    36    36    30   ar
    37     7    11    1
    38    10    12    1
    39     3     6    1
