@<TRIPOS>MOLECULE
*****
 34 38 0 0 0
SMALL
GASTEIGER

@<TRIPOS>ATOM
      1 C           6.9103   -2.9455   26.5049 C.ar    1  UNL1        0.0536
      2 C           6.2480   -1.7502   27.1234 C.ar    1  UNL1        0.0049
      3 C           5.1949   -0.9994   26.3637 C.ar    1  UNL1        0.0325
      4 C           4.8040   -1.4439   24.9855 C.ar    1  UNL1        0.1475
      5 O           3.7509   -0.6931   24.2257 O.2     1  UNL1       -0.4400
      6 C           3.3600   -1.1376   22.8475 C.ar    1  UNL1        0.2024
      7 C           4.0222   -2.3330   22.2289 C.ar    1  UNL1        0.0955
      8 C           5.0754   -3.0838   22.9886 C.ar    1  UNL1        0.2030
      9 O           5.7376   -4.2791   22.3701 O.2     1  UNL1       -0.2863
     10 C           5.4663   -2.6392   24.3669 C.ar    1  UNL1        0.0735
     11 C           6.5194   -3.3900   25.1267 C.ar    1  UNL1        0.0107
     12 N           2.3068   -0.3868   22.0878 N.pl3   1  UNL1       -0.2742
     13 C           1.6193    0.7869   22.7201 C.3     1  UNL1        0.1257
     14 C           0.5661    1.5377   21.9603 C.3     1  UNL1        0.1637
     15 O           0.2006    1.1148   20.5683 O.3     1  UNL1       -0.3501
     16 C           0.8881   -0.0588   19.9361 C.3     1  UNL1        0.1637
     17 C           1.9413   -0.8096   20.6959 C.3     1  UNL1        0.1257
     18 C           8.6356   -5.6303   28.8640 C.3     1  UNL1        0.1152
     19 N           7.5825   -4.8794   28.1043 N.am    1  UNL1       -0.2726
     20 C           6.1483   -5.3118   28.1843 C.3     1  UNL1        0.1152
     21 C           7.9634   -3.6963   27.2646 C.2     1  UNL1        0.2491
     22 O           9.3975   -3.2641   27.1847 O.2     1  UNL1       -0.2699
     23 C           4.5326    0.1960   26.9823 C.3     1  UNL1        0.1209
     24 N           3.4824    0.0095   28.0369 N.pl3   1  UNL1       -0.2977
     25 C           3.8469   -0.5974   29.3593 C.3     1  UNL1        0.1388
     26 C           2.7966   -0.7838   30.4139 C.3     1  UNL1        0.2269
     27 O           1.3819   -0.3633   30.1461 O.3     1  UNL1       -0.4701
     28 C           1.0174    0.2436   28.8237 C.ar    1  UNL1        0.1790
     29 C          -0.3973    0.6641   28.5559 C.ar    1  UNL1        0.1751
     30 F          -1.4476    0.4776   29.6105 F       1  UNL1       -0.2009
     31 C          -0.7618    1.2710   27.2334 C.ar    1  UNL1        0.0329
     32 C           0.2884    1.4574   26.1788 C.ar    1  UNL1        0.0038
     33 C           1.7031    1.0369   26.4467 C.ar    1  UNL1        0.0178
     34 C           2.0676    0.4300   27.7691 C.ar    1  UNL1        0.0849
@<TRIPOS>BOND
     1    18    19    1
     2    19    20    1
     3    19    21   am
     4    21    22    2
     5    21     1    1
     6     1     2   ar
     7     2     3   ar
     8     3    23    1
     9    23    24    1
    10    24    25    1
    11    25    26    1
    12    26    27    1
    13    27    28    1
    14    28    29   ar
    15    29    30    1
    16    29    31   ar
    17    31    32   ar
    18    32    33   ar
    19    33    34   ar
    20     3     4   ar
    21     4     5   ar
    22     5     6   ar
    23     6    12    1
    24    12    13    1
    25    13    14    1
    26    14    15    1
    27    15    16    1
    28    16    17    1
    29     6     7   ar
    30     7     8   ar
    31     8     9    2
    32     8    10   ar
    33    10    11   ar
    34    11     1   ar
    35    34    24    1
    36    10     4   ar
    37    34    28   ar
    38    17    12    1
@<TRIPOS>MOLECULE
*****
 34 38 0 0 0
SMALL
GASTEIGER

@<TRIPOS>ATOM
      1 C          -0.5519    2.4923   21.6156 C.ar    1  UNL1        0.0536
      2 C          -0.1311    1.5939   20.4906 C.ar    1  UNL1        0.0049
      3 C           0.9273    0.5551   20.7161 C.ar    1  UNL1        0.0325
      4 C           1.5648    0.4148   22.0665 C.ar    1  UNL1        0.1475
      5 O           2.6232   -0.6240   22.2920 O.2     1  UNL1       -0.4400
      6 C           3.2607   -0.7643   23.6425 C.ar    1  UNL1        0.2024
      7 C           2.8399    0.1342   24.7676 C.ar    1  UNL1        0.0955
      8 C           1.7815    1.1729   24.5421 C.ar    1  UNL1        0.2030
      9 O           1.3607    2.0714   25.6671 O.2     1  UNL1       -0.2863
     10 C           1.1440    1.3132   23.1915 C.ar    1  UNL1        0.0735
     11 C           0.0856    2.3520   22.9660 C.ar    1  UNL1        0.0107
     12 N           4.3190   -1.8031   23.8680 N.pl3   1  UNL1       -0.2742
     13 C           5.1080   -1.8053   25.1438 C.3     1  UNL1        0.1257
     14 C           6.1663   -2.8441   25.3693 C.3     1  UNL1        0.1637
     15 O           6.4357   -3.8806   24.3189 O.3     1  UNL1       -0.3501
     16 C           5.6468   -3.8783   23.0432 C.3     1  UNL1        0.1637
     17 C           4.5885   -2.8395   22.8177 C.3     1  UNL1        0.1257
     18 C          -2.2796    5.9631   20.7676 C.3     1  UNL1        0.1152
     19 N          -1.2212    4.9243   20.9931 N.am    1  UNL1       -0.2726
     20 C           0.2262    5.2788   20.8216 C.3     1  UNL1        0.1152
     21 C          -1.6103    3.5311   21.3901 C.2     1  UNL1        0.2491
     22 O          -3.0576    3.1767   21.5616 O.2     1  UNL1       -0.2699
     23 C           1.3481   -0.3433   19.5910 C.3     1  UNL1        0.1209
     24 N           2.7361   -0.2443   19.0311 N.pl3   1  UNL1       -0.2977
     25 C           3.2649    1.0806   18.5671 C.3     1  UNL1        0.1388
     26 C           4.6530    1.1796   18.0072 C.3     1  UNL1        0.2269
     27 O           5.5122   -0.0461   17.9112 O.3     1  UNL1       -0.4701
     28 C           4.9834   -1.3710   18.3752 C.ar    1  UNL1        0.1790
     29 C           5.8427   -2.5967   18.2792 C.ar    1  UNL1        0.1751
     30 F           7.2308   -2.4977   17.7192 F       1  UNL1       -0.2009
     31 C           5.3139   -3.9215   18.7431 C.ar    1  UNL1        0.0329
     32 C           3.9258   -4.0206   19.3030 C.ar    1  UNL1        0.0038
     33 C           3.0666   -2.7949   19.3990 C.ar    1  UNL1        0.0178
     34 C           3.5954   -1.4700   18.9351 C.ar    1  UNL1        0.0849
@<TRIPOS>BOND
     1    18    19    1
     2    19    20    1
     3    19    21   am
     4    21    22    2
     5    21     1    1
     6     1     2   ar
     7     2     3   ar
     8     3    23    1
     9    23    24    1
    10    24    25    1
    11    25    26    1
    12    26    27    1
    13    27    28    1
    14    28    29   ar
    15    29    30    1
    16    29    31   ar
    17    31    32   ar
    18    32    33   ar
    19    33    34   ar
    20     3     4   ar
    21     4     5   ar
    22     5     6   ar
    23     6    12    1
    24    12    13    1
    25    13    14    1
    26    14    15    1
    27    15    16    1
    28    16    17    1
    29     6     7   ar
    30     7     8   ar
    31     8     9    2
    32     8    10   ar
    33    10    11   ar
    34    11     1   ar
    35    34    24    1
    36    10     4   ar
    37    34    28   ar
    38    17    12    1
@<TRIPOS>MOLECULE
*****
 34 38 0 0 0
SMALL
GASTEIGER

@<TRIPOS>ATOM
      1 C           2.2938   -0.2469   21.6333 C.ar    1  UNL1        0.0536
      2 C           2.5027    0.5530   22.8849 C.ar    1  UNL1        0.0049
      3 C           3.4386    0.0548   23.9460 C.ar    1  UNL1        0.0325
      4 C           4.1656   -1.2433   23.7555 C.ar    1  UNL1        0.1475
      5 O           5.1015   -1.7415   24.8166 O.2     1  UNL1       -0.4400
      6 C           5.8285   -3.0396   24.6262 C.ar    1  UNL1        0.2024
      7 C           5.6196   -3.8396   23.3746 C.ar    1  UNL1        0.0955
      8 C           4.6837   -3.3414   22.3135 C.ar    1  UNL1        0.2030
      9 O           4.4749   -4.1414   21.0619 O.2     1  UNL1       -0.2863
     10 C           3.9567   -2.0432   22.5040 C.ar    1  UNL1        0.0735
     11 C           3.0208   -1.5451   21.4429 C.ar    1  UNL1        0.0107
     12 N           6.7644   -3.5377   25.6873 N.pl3   1  UNL1       -0.2742
     13 C           7.1921   -4.9755   25.6953 C.3     1  UNL1        0.1257
     14 C           8.1280   -5.4737   26.7564 C.3     1  UNL1        0.1637
     15 O           8.6361   -4.5341   27.8095 O.3     1  UNL1       -0.3501
     16 C           8.2084   -3.0964   27.8015 C.3     1  UNL1        0.1637
     17 C           7.2725   -2.5982   26.7404 C.3     1  UNL1        0.1257
     18 C           0.9511    1.5581   18.3639 C.3     1  UNL1        0.1152
     19 N           1.8870    1.0600   19.4251 N.am    1  UNL1       -0.2726
     20 C           3.3520    1.3706   19.3390 C.3     1  UNL1        0.1152
     21 C           1.3579    0.2512   20.5722 C.2     1  UNL1        0.2491
     22 O          -0.1070   -0.0593   20.6583 O.2     1  UNL1       -0.2699
     23 C           3.6474    0.8548   25.1976 C.3     1  UNL1        0.1209
     24 N           2.9389    0.4682   26.4618 N.pl3   1  UNL1       -0.2977
     25 C           3.6171   -0.4238   27.4590 C.3     1  UNL1        0.1388
     26 C           2.9085   -0.8104   28.7233 C.3     1  UNL1        0.2269
     27 O           1.5216   -0.3051   28.9904 O.3     1  UNL1       -0.4701
     28 C           0.8434    0.5869   27.9932 C.ar    1  UNL1        0.1790
     29 C          -0.5434    1.0922   28.2602 C.ar    1  UNL1        0.1751
     30 F          -1.2521    0.7055   29.5246 F       1  UNL1       -0.2009
     31 C          -1.2216    1.9841   27.2630 C.ar    1  UNL1        0.0329
     32 C          -0.5131    2.3708   25.9988 C.ar    1  UNL1        0.0038
     33 C           0.8737    1.8655   25.7317 C.ar    1  UNL1        0.0178
     34 C           1.5520    0.9735   26.7289 C.ar    1  UNL1        0.0849
@<TRIPOS>BOND
     1    18    19    1
     2    19    20    1
     3    19    21   am
     4    21    22    2
     5    21     1    1
     6     1     2   ar
     7     2     3   ar
     8     3    23    1
     9    23    24    1
    10    24    25    1
    11    25    26    1
    12    26    27    1
    13    27    28    1
    14    28    29   ar
    15    29    30    1
    16    29    31   ar
    17    31    32   ar
    18    32    33   ar
    19    33    34   ar
    20     3     4   ar
    21     4     5   ar
    22     5     6   ar
    23     6    12    1
    24    12    13    1
    25    13    14    1
    26    14    15    1
    27    15    16    1
    28    16    17    1
    29     6     7   ar
    30     7     8   ar
    31     8     9    2
    32     8    10   ar
    33    10    11   ar
    34    11     1   ar
    35    34    24    1
    36    10     4   ar
    37    34    28   ar
    38    17    12    1
@<TRIPOS>MOLECULE
*****
 34 38 0 0 0
SMALL
GASTEIGER

@<TRIPOS>ATOM
      1 C          -0.6551    3.2318   26.5938 C.ar    1  UNL1        0.0536
      2 C           0.3534    3.1701   25.4851 C.ar    1  UNL1        0.0049
      3 C          -0.0984    3.2298   24.0560 C.ar    1  UNL1        0.0325
      4 C          -1.5587    3.3512   23.7356 C.ar    1  UNL1        0.1475
      5 O          -2.0105    3.4109   22.3065 O.2     1  UNL1       -0.4400
      6 C          -3.4708    3.5323   21.9860 C.ar    1  UNL1        0.2024
      7 C          -4.4794    3.5940   23.0947 C.ar    1  UNL1        0.0955
      8 C          -4.0276    3.5343   24.5238 C.ar    1  UNL1        0.2030
      9 O          -5.0360    3.5960   25.6324 O.2     1  UNL1       -0.2863
     10 C          -2.5672    3.4129   24.8442 C.ar    1  UNL1        0.0735
     11 C          -2.1154    3.3532   26.2733 C.ar    1  UNL1        0.0107
     12 N          -3.9226    3.5920   20.5569 N.pl3   1  UNL1       -0.2742
     13 C          -5.3668    3.3706   20.2170 C.3     1  UNL1        0.1257
     14 C          -5.8186    3.4303   18.7880 C.3     1  UNL1        0.1637
     15 O          -4.8262    3.7114   17.6988 O.3     1  UNL1       -0.3501
     16 C          -3.3822    3.9328   18.0387 C.3     1  UNL1        0.1637
     17 C          -2.9304    3.8731   19.4678 C.3     1  UNL1        0.1257
     18 C           0.3494    1.7896   30.1520 C.3     1  UNL1        0.1152
     19 N          -0.1024    1.8493   28.7229 N.am    1  UNL1       -0.2726
     20 C          -0.4534    0.5862   27.9939 C.3     1  UNL1        0.1152
     21 C          -0.2032    3.1721   28.0228 C.2     1  UNL1        0.2491
     22 O           0.1477    4.4351   28.7519 O.2     1  UNL1       -0.2699
     23 C           0.9102    3.1681   22.9474 C.3     1  UNL1        0.1209
     24 N           1.5608    1.8627   22.5971 N.pl3   1  UNL1       -0.2977
     25 C           2.1804    1.0210   23.6731 C.3     1  UNL1        0.1388
     26 C           2.8310   -0.2844   23.3228 C.3     1  UNL1        0.2269
     27 O           2.8620   -0.7480   21.8966 O.3     1  UNL1       -0.4701
     28 C           2.2424    0.0937   20.8206 C.ar    1  UNL1        0.1790
     29 C           2.2734   -0.3700   19.3945 C.ar    1  UNL1        0.1751
     30 F           2.9241   -1.6754   19.0442 F       1  UNL1       -0.2009
     31 C           1.6538    0.4717   18.3185 C.ar    1  UNL1        0.0329
     32 C           1.0032    1.7771   18.6688 C.ar    1  UNL1        0.0038
     33 C           0.9722    2.2407   20.0950 C.ar    1  UNL1        0.0178
     34 C           1.5918    1.3990   21.1709 C.ar    1  UNL1        0.0849
@<TRIPOS>BOND
     1    18    19    1
     2    19    20    1
     3    19    21   am
     4    21    22    2
     5    21     1    1
     6     1     2   ar
     7     2     3   ar
     8     3    23    1
     9    23    24    1
    10    24    25    1
    11    25    26    1
    12    26    27    1
    13    27    28    1
    14    28    29   ar
    15    29    30    1
    16    29    31   ar
    17    31    32   ar
    18    32    33   ar
    19    33    34   ar
    20     3     4   ar
    21     4     5   ar
    22     5     6   ar
    23     6    12    1
    24    12    13    1
    25    13    14    1
    26    14    15    1
    27    15    16    1
    28    16    17    1
    29     6     7   ar
    30     7     8   ar
    31     8     9    2
    32     8    10   ar
    33    10    11   ar
    34    11     1   ar
    35    34    24    1
    36    10     4   ar
    37    34    28   ar
    38    17    12    1
@<TRIPOS>MOLECULE
*****
 34 38 0 0 0
SMALL
GASTEIGER

@<TRIPOS>ATOM
      1 C          -1.3583    2.9158   25.9775 C.ar    1  UNL1        0.0536
      2 C          -0.1578    3.0091   25.0831 C.ar    1  UNL1        0.0049
      3 C           1.0988    2.2693   25.4347 C.ar    1  UNL1        0.0325
      4 C           1.1549    1.4362   26.6808 C.ar    1  UNL1        0.1475
      5 O           2.4115    0.6964   27.0324 O.2     1  UNL1       -0.4400
      6 C           2.4676   -0.1367   28.2785 C.ar    1  UNL1        0.2024
      7 C           1.2670   -0.2301   29.1730 C.ar    1  UNL1        0.0955
      8 C           0.0104    0.5097   28.8213 C.ar    1  UNL1        0.2030
      9 O          -1.1901    0.4163   29.7157 O.2     1  UNL1       -0.2863
     10 C          -0.0456    1.3429   27.5752 C.ar    1  UNL1        0.0735
     11 C          -1.3022    2.0827   27.2235 C.ar    1  UNL1        0.0107
     12 N           3.7242   -0.8765   28.6301 N.pl3   1  UNL1       -0.2742
     13 C           4.2752   -0.7991   30.0231 C.3     1  UNL1        0.1257
     14 C           5.5318   -1.5389   30.3748 C.3     1  UNL1        0.1637
     15 O           6.2374   -2.3561   29.3334 O.3     1  UNL1       -0.3501
     16 C           5.6863   -2.4335   27.9405 C.3     1  UNL1        0.1637
     17 C           4.4297   -1.6937   27.5888 C.3     1  UNL1        0.1257
     18 C          -4.1868    5.6995   25.9449 C.3     1  UNL1        0.1152
     19 N          -2.9302    4.9597   26.2966 N.am    1  UNL1       -0.2726
     20 C          -1.9887    5.5240   27.3190 C.3     1  UNL1        0.1152
     21 C          -2.6149    3.6556   25.6258 C.2     1  UNL1        0.2491
     22 O          -3.5563    3.0913   24.6035 O.2     1  UNL1       -0.2699
     23 C           2.2993    2.3627   24.5402 C.3     1  UNL1        0.1209
     24 N           2.7882    1.1461   23.8116 N.pl3   1  UNL1       -0.2977
     25 C           3.9396    0.3560   24.3592 C.3     1  UNL1        0.1388
     26 C           4.4284   -0.8606   23.6305 C.3     1  UNL1        0.2269
     27 O           3.7658   -1.2871   22.3542 O.3     1  UNL1       -0.4701
     28 C           2.6143   -0.4970   21.8065 C.ar    1  UNL1        0.1790
     29 C           1.9517   -0.9234   20.5302 C.ar    1  UNL1        0.1751
     30 F           2.4405   -2.1400   19.8015 F       1  UNL1       -0.2009
     31 C           0.8003   -0.1333   19.9826 C.ar    1  UNL1        0.0329
     32 C           0.3115    1.0832   20.7112 C.ar    1  UNL1        0.0038
     33 C           0.9741    1.5097   21.9875 C.ar    1  UNL1        0.0178
     34 C           2.1255    0.7196   22.5352 C.ar    1  UNL1        0.0849
@<TRIPOS>BOND
     1    18    19    1
     2    19    20    1
     3    19    21   am
     4    21    22    2
     5    21     1    1
     6     1     2   ar
     7     2     3   ar
     8     3    23    1
     9    23    24    1
    10    24    25    1
    11    25    26    1
    12    26    27    1
    13    27    28    1
    14    28    29   ar
    15    29    30    1
    16    29    31   ar
    17    31    32   ar
    18    32    33   ar
    19    33    34   ar
    20     3     4   ar
    21     4     5   ar
    22     5     6   ar
    23     6    12    1
    24    12    13    1
    25    13    14    1
    26    14    15    1
    27    15    16    1
    28    16    17    1
    29     6     7   ar
    30     7     8   ar
    31     8     9    2
    32     8    10   ar
    33    10    11   ar
    34    11     1   ar
    35    34    24    1
    36    10     4   ar
    37    34    28   ar
    38    17    12    1
@<TRIPOS>MOLECULE
*****
 34 38 0 0 0
SMALL
GASTEIGER

@<TRIPOS>ATOM
      1 C           6.9308   -3.5148   25.3150 C.ar    1  UNL1        0.0536
      2 C           6.2310   -3.8149   24.0227 C.ar    1  UNL1        0.0049
      3 C           5.0590   -2.9829   23.5936 C.ar    1  UNL1        0.0325
      4 C           4.5867   -1.8508   24.4569 C.ar    1  UNL1        0.1475
      5 O           3.4146   -1.0188   24.0279 O.2     1  UNL1       -0.4400
      6 C           2.9424    0.1132   24.8912 C.ar    1  UNL1        0.2024
      7 C           3.6421    0.4134   26.1836 C.ar    1  UNL1        0.0955
      8 C           4.8142   -0.4186   26.6127 C.ar    1  UNL1        0.2030
      9 O           5.5140   -0.1186   27.9050 O.2     1  UNL1       -0.2863
     10 C           5.2865   -1.5507   25.7493 C.ar    1  UNL1        0.0735
     11 C           6.4585   -2.3827   26.1783 C.ar    1  UNL1        0.0107
     12 N           1.7703    0.9452   24.4622 N.pl3   1  UNL1       -0.2742
     13 C           0.7204    1.3333   25.4608 C.3     1  UNL1        0.1257
     14 C          -0.4517    2.1653   25.0317 C.3     1  UNL1        0.1637
     15 O          -0.5738    2.6092   23.6041 O.3     1  UNL1       -0.3501
     16 C           0.4761    2.2211   22.6055 C.3     1  UNL1        0.1637
     17 C           1.6481    1.3891   23.0346 C.3     1  UNL1        0.1257
     18 C           9.0686   -6.3507   27.0863 C.3     1  UNL1        0.1152
     19 N           7.8965   -5.5187   26.6572 N.am    1  UNL1       -0.2726
     20 C           6.5181   -5.8588   27.1414 C.3     1  UNL1        0.1152
     21 C           8.1029   -4.3468   25.7441 C.2     1  UNL1        0.2491
     22 O           9.4813   -4.0068   25.2600 O.2     1  UNL1       -0.2699
     23 C           4.3592   -3.2830   22.3012 C.3     1  UNL1        0.1209
     24 N           4.9258   -2.7792   21.0070 N.pl3   1  UNL1       -0.2977
     25 C           6.2899   -3.2184   20.5640 C.3     1  UNL1        0.1388
     26 C           6.8565   -2.7145   19.2696 C.3     1  UNL1        0.2269
     27 O           6.0589   -1.7715   18.4184 O.3     1  UNL1       -0.4701
     28 C           4.6948   -1.3324   18.8614 C.ar    1  UNL1        0.1790
     29 C           3.8973   -0.3894   18.0102 C.ar    1  UNL1        0.1751
     30 F           4.4638    0.1145   16.7159 F       1  UNL1       -0.2009
     31 C           2.5331    0.0498   18.4532 C.ar    1  UNL1        0.0329
     32 C           1.9666   -0.4540   19.7474 C.ar    1  UNL1        0.0038
     33 C           2.7641   -1.3970   20.5987 C.ar    1  UNL1        0.0178
     34 C           4.1282   -1.8362   20.1557 C.ar    1  UNL1        0.0849
@<TRIPOS>BOND
     1    18    19    1
     2    19    20    1
     3    19    21   am
     4    21    22    2
     5    21     1    1
     6     1     2   ar
     7     2     3   ar
     8     3    23    1
     9    23    24    1
    10    24    25    1
    11    25    26    1
    12    26    27    1
    13    27    28    1
    14    28    29   ar
    15    29    30    1
    16    29    31   ar
    17    31    32   ar
    18    32    33   ar
    19    33    34   ar
    20     3     4   ar
    21     4     5   ar
    22     5     6   ar
    23     6    12    1
    24    12    13    1
    25    13    14    1
    26    14    15    1
    27    15    16    1
    28    16    17    1
    29     6     7   ar
    30     7     8   ar
    31     8     9    2
    32     8    10   ar
    33    10    11   ar
    34    11     1   ar
    35    34    24    1
    36    10     4   ar
    37    34    28   ar
    38    17    12    1
@<TRIPOS>MOLECULE
*****
 34 38 0 0 0
SMALL
GASTEIGER

@<TRIPOS>ATOM
      1 C          -1.4856    2.8315   25.9016 C.ar    1  UNL1        0.0536
      2 C          -0.4555    2.7976   24.8118 C.ar    1  UNL1        0.0049
      3 C           0.8228    2.0385   25.0113 C.ar    1  UNL1        0.0325
      4 C           1.0710    1.3134   26.3007 C.ar    1  UNL1        0.1475
      5 O           2.3493    0.5544   26.5003 O.2     1  UNL1       -0.4400
      6 C           2.5975   -0.1708   27.7897 C.ar    1  UNL1        0.2024
      7 C           1.5674   -0.1369   28.8796 C.ar    1  UNL1        0.0955
      8 C           0.2891    0.6222   28.6800 C.ar    1  UNL1        0.2030
      9 O          -0.7410    0.6561   29.7698 O.2     1  UNL1       -0.2863
     10 C           0.0409    1.3473   27.3905 C.ar    1  UNL1        0.0735
     11 C          -1.2374    2.1064   27.1909 C.ar    1  UNL1        0.0107
     12 N           3.8758   -0.9298   27.9893 N.pl3   1  UNL1       -0.2742
     13 C           4.5300   -0.9553   29.3389 C.3     1  UNL1        0.1257
     14 C           5.8083   -1.7143   29.5385 C.3     1  UNL1        0.1637
     15 O           6.4323   -2.4479   28.3884 O.3     1  UNL1       -0.3501
     16 C           5.7781   -2.4224   27.0389 C.3     1  UNL1        0.1637
     17 C           4.4998   -1.6634   26.8393 C.3     1  UNL1        0.1257
     18 C          -4.2568    5.6558   26.2079 C.3     1  UNL1        0.1152
     19 N          -2.9785    4.8967   26.4075 N.am    1  UNL1       -0.2726
     20 C          -1.9148    5.4439   27.3126 C.3     1  UNL1        0.1152
     21 C          -2.7639    3.5905   25.7020 C.2     1  UNL1        0.2491
     22 O          -3.8275    3.0434   24.7969 O.2     1  UNL1       -0.2699
     23 C           1.8529    2.0046   23.9214 C.3     1  UNL1        0.1209
     24 N           1.6211    1.1712   22.6961 N.pl3   1  UNL1       -0.2977
     25 C           0.4914    1.5022   21.7665 C.3     1  UNL1        0.1388
     26 C           0.2597    0.6687   20.5411 C.3     1  UNL1        0.2269
     27 O           1.1576   -0.4958   20.2453 O.3     1  UNL1       -0.4701
     28 C           2.2874   -0.8269   21.1749 C.ar    1  UNL1        0.1790
     29 C           3.1853   -1.9914   20.8791 C.ar    1  UNL1        0.1751
     30 F           2.9536   -2.8249   19.6536 F       1  UNL1       -0.2009
     31 C           4.3151   -2.3224   21.8086 C.ar    1  UNL1        0.0329
     32 C           4.5469   -1.4889   23.0340 C.ar    1  UNL1        0.0038
     33 C           3.6489   -0.3245   23.3298 C.ar    1  UNL1        0.0178
     34 C           2.5191    0.0066   22.4002 C.ar    1  UNL1        0.0849
@<TRIPOS>BOND
     1    18    19    1
     2    19    20    1
     3    19    21   am
     4    21    22    2
     5    21     1    1
     6     1     2   ar
     7     2     3   ar
     8     3    23    1
     9    23    24    1
    10    24    25    1
    11    25    26    1
    12    26    27    1
    13    27    28    1
    14    28    29   ar
    15    29    30    1
    16    29    31   ar
    17    31    32   ar
    18    32    33   ar
    19    33    34   ar
    20     3     4   ar
    21     4     5   ar
    22     5     6   ar
    23     6    12    1
    24    12    13    1
    25    13    14    1
    26    14    15    1
    27    15    16    1
    28    16    17    1
    29     6     7   ar
    30     7     8   ar
    31     8     9    2
    32     8    10   ar
    33    10    11   ar
    34    11     1   ar
    35    34    24    1
    36    10     4   ar
    37    34    28   ar
    38    17    12    1
@<TRIPOS>MOLECULE
*****
 34 38 0 0 0
SMALL
GASTEIGER

@<TRIPOS>ATOM
      1 C           4.9029   -0.6235   21.4666 C.ar    1  UNL1        0.0536
      2 C           4.5075    0.3364   22.5493 C.ar    1  UNL1        0.0049
      3 C           4.7040   -0.0349   23.9893 C.ar    1  UNL1        0.0325
      4 C           5.2958   -1.3660   24.3466 C.ar    1  UNL1        0.1475
      5 O           5.4923   -1.7373   25.7866 O.2     1  UNL1       -0.4400
      6 C           6.0841   -3.0685   26.1439 C.ar    1  UNL1        0.2024
      7 C           6.4795   -4.0284   25.0612 C.ar    1  UNL1        0.0955
      8 C           6.2830   -3.6572   23.6212 C.ar    1  UNL1        0.2030
      9 O           6.6783   -4.6171   22.5385 O.2     1  UNL1       -0.2863
     10 C           5.6911   -2.3259   23.2639 C.ar    1  UNL1        0.0735
     11 C           5.4947   -1.9547   21.8239 C.ar    1  UNL1        0.0107
     12 N           6.2806   -3.4397   27.5838 N.pl3   1  UNL1       -0.2742
     13 C           6.4817   -4.8759   27.9674 C.3     1  UNL1        0.1257
     14 C           6.6781   -5.2472   29.4074 C.3     1  UNL1        0.1637
     15 O           6.6735   -4.1822   30.4638 O.3     1  UNL1       -0.3501
     16 C           6.4724   -2.7462   30.0803 C.3     1  UNL1        0.1637
     17 C           6.2759   -2.3749   28.6403 C.3     1  UNL1        0.1257
     18 C           3.2055   -0.1758   17.9073 C.3     1  UNL1        0.1152
     19 N           3.4020   -0.5471   19.3473 N.am    1  UNL1       -0.2726
     20 C           2.2939   -1.2132   20.1080 C.3     1  UNL1        0.1152
     21 C           4.7064   -0.2523   20.0266 C.2     1  UNL1        0.2491
     22 O           5.8144    0.4138   19.2659 O.2     1  UNL1       -0.2699
     23 C           4.3086    0.9251   25.0720 C.3     1  UNL1        0.1209
     24 N           2.8659    1.2890   25.2615 N.pl3   1  UNL1       -0.2977
     25 C           2.1612    2.1226   24.2327 C.3     1  UNL1        0.1388
     26 C           0.7183    2.4865   24.4223 C.3     1  UNL1        0.2269
     27 O          -0.0197    2.0168   25.6407 O.3     1  UNL1       -0.4701
     28 C           0.6850    1.1833   26.6696 C.ar    1  UNL1        0.1790
     29 C          -0.0531    0.7136   27.8880 C.ar    1  UNL1        0.1751
     30 F          -1.4959    1.0775   28.0776 F       1  UNL1       -0.2009
     31 C           0.6516   -0.1200   28.9169 C.ar    1  UNL1        0.0329
     32 C           2.0944   -0.4839   28.7273 C.ar    1  UNL1        0.0038
     33 C           2.8324   -0.0142   27.5089 C.ar    1  UNL1        0.0178
     34 C           2.1277    0.8193   26.4800 C.ar    1  UNL1        0.0849
@<TRIPOS>BOND
     1    18    19    1
     2    19    20    1
     3    19    21   am
     4    21    22    2
     5    21     1    1
     6     1     2   ar
     7     2     3   ar
     8     3    23    1
     9    23    24    1
    10    24    25    1
    11    25    26    1
    12    26    27    1
    13    27    28    1
    14    28    29   ar
    15    29    30    1
    16    29    31   ar
    17    31    32   ar
    18    32    33   ar
    19    33    34   ar
    20     3     4   ar
    21     4     5   ar
    22     5     6   ar
    23     6    12    1
    24    12    13    1
    25    13    14    1
    26    14    15    1
    27    15    16    1
    28    16    17    1
    29     6     7   ar
    30     7     8   ar
    31     8     9    2
    32     8    10   ar
    33    10    11   ar
    34    11     1   ar
    35    34    24    1
    36    10     4   ar
    37    34    28   ar
    38    17    12    1
@<TRIPOS>MOLECULE
*****
 34 38 0 0 0
SMALL
GASTEIGER

@<TRIPOS>ATOM
      1 C           1.4715    2.1205   30.0755 C.ar    1  UNL1        0.0536
      2 C           2.2896    0.9691   30.5803 C.ar    1  UNL1        0.0049
      3 C           2.7192    0.9271   32.0168 C.ar    1  UNL1        0.0325
      4 C           2.3308    2.0365   32.9486 C.ar    1  UNL1        0.1475
      5 O           2.7604    1.9945   34.3851 O.2     1  UNL1       -0.4400
      6 C           2.3719    3.1040   35.3169 C.ar    1  UNL1        0.2024
      7 C           1.5538    4.2555   34.8121 C.ar    1  UNL1        0.0955
      8 C           1.1242    4.2975   33.3755 C.ar    1  UNL1        0.2030
      9 O           0.3061    5.4489   32.8707 O.2     1  UNL1       -0.2863
     10 C           1.5127    3.1880   32.4438 C.ar    1  UNL1        0.0735
     11 C           1.0830    3.2300   31.0072 C.ar    1  UNL1        0.0107
     12 N           2.8015    3.0620   36.7534 N.pl3   1  UNL1       -0.2742
     13 C           1.7750    2.9347   37.8398 C.3     1  UNL1        0.1257
     14 C           2.2047    2.8927   39.2764 C.3     1  UNL1        0.1637
     15 O           3.6608    2.9780   39.6265 O.3     1  UNL1       -0.3501
     16 C           4.6872    3.1052   38.5401 C.3     1  UNL1        0.1637
     17 C           4.2576    3.1472   37.1036 C.3     1  UNL1        0.1257
     18 C          -0.5786    1.4114   26.7522 C.3     1  UNL1        0.1152
     19 N          -0.1490    1.3694   28.1888 N.am    1  UNL1       -0.2726
     20 C          -0.9103    0.5341   29.1752 C.3     1  UNL1        0.1152
     21 C           1.0419    2.1625   28.6389 C.2     1  UNL1        0.2491
     22 O           1.8031    2.9977   27.6526 O.2     1  UNL1       -0.2699
     23 C           3.5374   -0.2244   32.5216 C.3     1  UNL1        0.1209
     24 N           5.0289   -0.0988   32.6195 N.pl3   1  UNL1       -0.2977
     25 C           5.8533    0.0390   31.3739 C.3     1  UNL1        0.1388
     26 C           7.3448    0.1646   31.4719 C.3     1  UNL1        0.2269
     27 O           8.0119    0.1523   32.8153 O.3     1  UNL1       -0.4701
     28 C           7.1875    0.0145   34.0608 C.ar    1  UNL1        0.1790
     29 C           7.8547    0.0022   35.4042 C.ar    1  UNL1        0.1751
     30 F           9.3462    0.1278   35.5021 F       1  UNL1       -0.2009
     31 C           7.0303   -0.1357   36.6497 C.ar    1  UNL1        0.0329
     32 C           5.5388   -0.2613   36.5519 C.ar    1  UNL1        0.0038
     33 C           4.8717   -0.2490   35.2085 C.ar    1  UNL1        0.0178
     34 C           5.6961   -0.1111   33.9629 C.ar    1  UNL1        0.0849
@<TRIPOS>BOND
     1    18    19    1
     2    19    20    1
     3    19    21   am
     4    21    22    2
     5    21     1    1
     6     1     2   ar
     7     2     3   ar
     8     3    23    1
     9    23    24    1
    10    24    25    1
    11    25    26    1
    12    26    27    1
    13    27    28    1
    14    28    29   ar
    15    29    30    1
    16    29    31   ar
    17    31    32   ar
    18    32    33   ar
    19    33    34   ar
    20     3     4   ar
    21     4     5   ar
    22     5     6   ar
    23     6    12    1
    24    12    13    1
    25    13    14    1
    26    14    15    1
    27    15    16    1
    28    16    17    1
    29     6     7   ar
    30     7     8   ar
    31     8     9    2
    32     8    10   ar
    33    10    11   ar
    34    11     1   ar
    35    34    24    1
    36    10     4   ar
    37    34    28   ar
    38    17    12    1
