@<TRIPOS>MOLECULE
*****
 35 39 0 0 0
SMALL
GASTEIGER

@<TRIPOS>ATOM
      1 C          -6.8022  -18.2938   21.7092 C.ar    1  UNL1        0.0348
      2 C          -7.9338  -19.0614   21.0926 C.ar    1  UNL1        0.0686
      3 N          -9.2028  -18.6447   21.7754 N.ar    1  UNL1       -0.3242
      4 C          -8.8553  -17.6197   22.8140 C.ar    1  UNL1        0.0602
      5 C          -9.6983  -16.8558   23.7916 C.ar    1  UNL1        0.0203
      6 C          -9.0575  -15.8750   24.7284 C.ar    1  UNL1        0.0387
      7 C          -7.5738  -15.6582   24.6875 C.ar    1  UNL1        0.1469
      8 C          -6.7309  -16.4221   23.7098 C.ar    1  UNL1        0.0387
      9 C          -7.3716  -17.4028   22.7731 C.ar    1  UNL1        0.0215
     10 C          -0.9011  -18.7221   20.1579 C.ar    1  UNL1        0.2779
     11 N          -1.4567  -18.8204   21.5478 N.ar    1  UNL1       -0.1190
     12 N          -2.9458  -18.6594   21.4641 N.ar    1  UNL1       -0.2003
     13 C          -4.2094  -18.6206   22.2714 C.ar    1  UNL1        0.1218
     14 C          -5.3550  -18.3989   21.3287 C.ar    1  UNL1        0.1038
     15 N          -4.7993  -18.3007   19.9390 N.ar    1  UNL1       -0.2192
     16 C          -3.3103  -18.4616   20.0225 C.ar    1  UNL1        0.1998
     17 S          -2.0467  -18.5004   19.2153 S.2     1  UNL1        0.0098
     18 C           1.5007  -17.7316   20.1495 C.3     1  UNL1        0.2548
     19 O           0.5461  -18.8272   19.7776 O.3     1  UNL1       -0.4506
     20 C          -7.8171  -20.0687   19.9873 C.3     1  UNL1        0.1809
     21 O          -8.4992  -19.8235   18.6740 O.3     1  UNL1       -0.3760
     22 H          -9.4606  -19.8339   18.8021 H       1  UNL1        0.2110
     23 C         -10.5778  -19.1622   21.4728 C.3     1  UNL1        0.1333
     24 C         -11.7305  -18.7910   22.3577 C.ar    1  UNL1        0.0110
     25 C         -12.8288  -17.9154   21.8311 C.ar    1  UNL1       -0.0016
     26 C         -13.9816  -17.5441   22.7161 C.ar    1  UNL1       -0.0002
     27 C         -14.0361  -18.0484   24.1278 C.ar    1  UNL1        0.0008
     28 C         -12.9379  -18.9239   24.6544 C.ar    1  UNL1        0.0111
     29 C         -11.7851  -19.2952   23.7694 C.ar    1  UNL1        0.0555
     30 CL        -10.6869  -20.1708   24.2961 Cl      1  UNL1       -0.0825
     31 O          -6.9331  -14.6774   25.6243 O.3     1  UNL1       -0.4045
     32 C          -6.5938  -15.0906   27.0257 C.3     1  UNL1        0.5753
     33 F          -6.2544  -15.5038   28.4272 F       1  UNL1       -0.1328
     34 F          -5.2154  -15.4771   26.5780 F       1  UNL1       -0.1328
     35 F          -7.9722  -14.7041   27.4734 F       1  UNL1       -0.1328
@<TRIPOS>BOND
     1    18    19    1
     2    19    10    1
     3    10    11   ar
     4    11    12   ar
     5    12    13   ar
     6    13    14   ar
     7    14     1    1
     8     1     2   ar
     9     2    20    1
    10    20    21    1
    11     2     3   ar
    12     3    23    1
    13    23    24    1
    14    24    25   ar
    15    25    26   ar
    16    26    27   ar
    17    27    28   ar
    18    28    29   ar
    19    29    30    1
    20     3     4   ar
    21     4     5   ar
    22     5     6   ar
    23     6     7   ar
    24     7    31    1
    25    31    32    1
    26    32    33    1
    27    32    34    1
    28    32    35    1
    29     7     8   ar
    30     8     9   ar
    31    14    15   ar
    32    15    16   ar
    33    16    17   ar
    34    17    10   ar
    35    16    12   ar
    36     9     1   ar
    37    29    24   ar
    38     9     4   ar
    39    21    22    1
@<TRIPOS>MOLECULE
*****
 35 39 0 0 0
SMALL
GASTEIGER

@<TRIPOS>ATOM
      1 C           4.9059   -0.2060   34.0043 C.ar    1  UNL1        0.0348
      2 C           5.1071    0.3286   35.3913 C.ar    1  UNL1        0.0686
      3 N           4.1026    1.4193   35.6178 N.ar    1  UNL1       -0.3242
      4 C           3.2805    1.5587   34.3709 C.ar    1  UNL1        0.0602
      5 C           2.1441    2.4706   34.0147 C.ar    1  UNL1        0.0203
      6 C           1.5041    2.3779   32.6613 C.ar    1  UNL1        0.0387
      7 C           2.0006    1.3734   31.6641 C.ar    1  UNL1        0.1469
      8 C           3.1371    0.4616   32.0202 C.ar    1  UNL1        0.0387
      9 C           3.7770    0.5542   33.3737 C.ar    1  UNL1        0.0215
     10 C           8.1237   -4.6976   31.3806 C.ar    1  UNL1        0.2779
     11 N           6.6607   -4.7371   31.7094 N.ar    1  UNL1       -0.1190
     12 N           6.2918   -3.4271   32.3402 N.ar    1  UNL1       -0.2003
     13 C           5.1597   -2.6419   32.9333 C.ar    1  UNL1        0.1218
     14 C           5.6950   -1.3075   33.3609 C.ar    1  UNL1        0.1038
     15 N           7.1580   -1.2681   33.0321 N.ar    1  UNL1       -0.2192
     16 C           7.5269   -2.5780   32.4013 C.ar    1  UNL1        0.1998
     17 S           8.6590   -3.3632   31.8082 S.2     1  UNL1        0.0098
     18 C           9.4853   -6.9015   31.5781 C.3     1  UNL1        0.2548
     19 O           8.9127   -5.7992   30.7372 O.3     1  UNL1       -0.4506
     20 C           6.1328   -0.1443   36.3783 C.3     1  UNL1        0.1809
     21 O           7.5812   -0.1900   35.9912 O.3     1  UNL1       -0.3760
     22 H           7.7089   -0.8526   35.2943 H       1  UNL1        0.2110
     23 C           3.9473    2.2285   36.8713 C.3     1  UNL1        0.1333
     24 C           2.7837    1.9806   37.7847 C.ar    1  UNL1        0.0110
     25 C           2.6693    0.6762   38.5165 C.ar    1  UNL1       -0.0016
     26 C           1.5056    0.4282   39.4300 C.ar    1  UNL1       -0.0002
     27 C           0.4564    1.4847   39.6118 C.ar    1  UNL1        0.0008
     28 C           0.5709    2.7891   38.8801 C.ar    1  UNL1        0.0111
     29 C           1.7345    3.0371   37.9665 C.ar    1  UNL1        0.0555
     30 CL          1.8489    4.3415   37.2348 Cl      1  UNL1       -0.0825
     31 O           1.3606    1.2808   30.3106 O.3     1  UNL1       -0.4045
     32 C           1.8640    0.2836   29.3095 C.3     1  UNL1        0.5753
     33 F           2.3674   -0.7137   28.3085 F       1  UNL1       -0.1328
     34 F           0.6990   -0.6107   29.6146 F       1  UNL1       -0.1328
     35 F           3.0289    1.1779   29.0045 F       1  UNL1       -0.1328
@<TRIPOS>BOND
     1    18    19    1
     2    19    10    1
     3    10    11   ar
     4    11    12   ar
     5    12    13   ar
     6    13    14   ar
     7    14     1    1
     8     1     2   ar
     9     2    20    1
    10    20    21    1
    11     2     3   ar
    12     3    23    1
    13    23    24    1
    14    24    25   ar
    15    25    26   ar
    16    26    27   ar
    17    27    28   ar
    18    28    29   ar
    19    29    30    1
    20     3     4   ar
    21     4     5   ar
    22     5     6   ar
    23     6     7   ar
    24     7    31    1
    25    31    32    1
    26    32    33    1
    27    32    34    1
    28    32    35    1
    29     7     8   ar
    30     8     9   ar
    31    14    15   ar
    32    15    16   ar
    33    16    17   ar
    34    17    10   ar
    35    16    12   ar
    36     9     1   ar
    37    29    24   ar
    38     9     4   ar
    39    21    22    1
@<TRIPOS>MOLECULE
*****
 35 39 0 0 0
SMALL
GASTEIGER

@<TRIPOS>ATOM
      1 C           2.2866    1.7387   32.4322 C.ar    1  UNL1        0.0348
      2 C           2.1993    2.7151   33.5676 C.ar    1  UNL1        0.0686
      3 N           3.0608    2.2051   34.6847 N.ar    1  UNL1       -0.3242
      4 C           3.6804    0.9136   34.2396 C.ar    1  UNL1        0.0602
      5 C           4.6185   -0.0372   34.9222 C.ar    1  UNL1        0.0203
      6 C           5.0781   -1.2762   34.2126 C.ar    1  UNL1        0.0387
      7 C           4.5996   -1.5645   32.8205 C.ar    1  UNL1        0.1469
      8 C           3.6615   -0.6137   32.1380 C.ar    1  UNL1        0.0387
      9 C           3.2019    0.6253   32.8475 C.ar    1  UNL1        0.0215
     10 C          -0.5859    2.2141   27.0531 C.ar    1  UNL1        0.2779
     11 N           0.4941    3.1237   27.5593 N.ar    1  UNL1       -0.1190
     12 N           0.9097    2.6392   28.9167 N.ar    1  UNL1       -0.2003
     13 C           1.8340    2.9020   30.0685 C.ar    1  UNL1        0.1218
     14 C           1.5821    1.8553   31.1131 C.ar    1  UNL1        0.1038
     15 N           0.5022    0.9457   30.6068 N.ar    1  UNL1       -0.2192
     16 C           0.0865    1.4302   29.2494 C.ar    1  UNL1        0.1998
     17 S          -0.8378    1.1674   28.0976 S.2     1  UNL1        0.0098
     18 C          -0.5894    2.9511   24.5617 C.3     1  UNL1        0.2548
     19 O          -1.2903    2.3307   25.7339 O.3     1  UNL1       -0.4506
     20 C           1.3923    3.9794   33.5832 C.3     1  UNL1        0.1809
     21 O          -0.0093    3.9812   33.0491 O.3     1  UNL1       -0.3760
     22 H           0.0083    3.8117   32.0942 H       1  UNL1        0.2110
     23 C           3.2665    2.8699   36.0135 C.3     1  UNL1        0.1333
     24 C           2.4793    2.4186   37.2078 C.ar    1  UNL1        0.0110
     25 C           2.7892    1.1021   37.8566 C.ar    1  UNL1       -0.0016
     26 C           2.0019    0.6507   39.0509 C.ar    1  UNL1       -0.0002
     27 C           0.9048    1.5159   39.5966 C.ar    1  UNL1        0.0008
     28 C           0.5949    2.8323   38.9479 C.ar    1  UNL1        0.0111
     29 C           1.3821    3.2837   37.7535 C.ar    1  UNL1        0.0555
     30 CL          1.0721    4.6002   37.1048 Cl      1  UNL1       -0.0825
     31 O           5.0593   -2.8036   32.1109 O.3     1  UNL1       -0.4045
     32 C           6.5103   -3.1832   32.1284 C.3     1  UNL1        0.5753
     33 F           7.9614   -3.5628   32.1458 F       1  UNL1       -0.1328
     34 F           6.8553   -1.8965   31.4390 F       1  UNL1       -0.1328
     35 F           6.1654   -4.4700   32.8177 F       1  UNL1       -0.1328
@<TRIPOS>BOND
     1    18    19    1
     2    19    10    1
     3    10    11   ar
     4    11    12   ar
     5    12    13   ar
     6    13    14   ar
     7    14     1    1
     8     1     2   ar
     9     2    20    1
    10    20    21    1
    11     2     3   ar
    12     3    23    1
    13    23    24    1
    14    24    25   ar
    15    25    26   ar
    16    26    27   ar
    17    27    28   ar
    18    28    29   ar
    19    29    30    1
    20     3     4   ar
    21     4     5   ar
    22     5     6   ar
    23     6     7   ar
    24     7    31    1
    25    31    32    1
    26    32    33    1
    27    32    34    1
    28    32    35    1
    29     7     8   ar
    30     8     9   ar
    31    14    15   ar
    32    15    16   ar
    33    16    17   ar
    34    17    10   ar
    35    16    12   ar
    36     9     1   ar
    37    29    24   ar
    38     9     4   ar
    39    21    22    1
@<TRIPOS>MOLECULE
*****
 35 39 0 0 0
SMALL
GASTEIGER

@<TRIPOS>ATOM
      1 C           0.6924    1.7521   22.4756 C.ar    1  UNL1        0.0348
      2 C           1.7669    1.2465   21.5592 C.ar    1  UNL1        0.0686
      3 N           2.8181    0.5834   22.3989 N.ar    1  UNL1       -0.3242
      4 C           2.3934    0.6792   23.8343 C.ar    1  UNL1        0.0602
      5 C           3.0332    0.2020   25.1043 C.ar    1  UNL1        0.0203
      6 C           2.3591    0.4470   26.4217 C.ar    1  UNL1        0.0387
      7 C           1.0453    1.1693   26.4691 C.ar    1  UNL1        0.1469
      8 C           0.4055    1.6465   25.1991 C.ar    1  UNL1        0.0387
      9 C           1.0796    1.4014   23.8817 C.ar    1  UNL1        0.0215
     10 C          -4.3779    4.7220   20.7773 C.ar    1  UNL1        0.2779
     11 N          -3.6213    4.9290   22.0559 N.ar    1  UNL1       -0.1190
     12 N          -2.4485    3.9937   22.0571 N.ar    1  UNL1       -0.2003
     13 C          -1.2561    3.5436   22.8481 C.ar    1  UNL1        0.1218
     14 C          -0.5510    2.4804   22.0591 C.ar    1  UNL1        0.1038
     15 N          -1.3076    2.2734   20.7806 N.ar    1  UNL1       -0.2192
     16 C          -2.4804    3.2087   20.7793 C.ar    1  UNL1        0.1998
     17 S          -3.6728    3.6588   19.9883 S.2     1  UNL1        0.0098
     18 C          -6.8994    5.2465   21.1191 C.3     1  UNL1        0.2548
     19 O          -5.6213    5.4504   20.3609 O.3     1  UNL1       -0.4506
     20 C           1.7866    1.3805   20.0653 C.3     1  UNL1        0.1809
     21 O           0.7918    0.6288   19.2316 O.3     1  UNL1       -0.3760
     22 H           0.9572   -0.3237   19.3113 H       1  UNL1        0.2110
     23 C           4.0738   -0.0621   21.8922 C.3     1  UNL1        0.1333
     24 C           4.0309   -1.4571   21.3427 C.ar    1  UNL1        0.0110
     25 C           3.6232   -1.6898   19.9180 C.ar    1  UNL1       -0.0016
     26 C           3.5804   -3.0849   19.3685 C.ar    1  UNL1       -0.0002
     27 C           3.9451   -4.2472   20.2437 C.ar    1  UNL1        0.0008
     28 C           4.3528   -4.0145   21.6683 C.ar    1  UNL1        0.0111
     29 C           4.3956   -2.6194   22.2179 C.ar    1  UNL1        0.0555
     30 CL          4.8033   -2.3868   23.6425 Cl      1  UNL1       -0.0825
     31 O           0.3713    1.4144   27.7866 O.3     1  UNL1       -0.4045
     32 C          -0.7345    0.5096   28.2431 C.3     1  UNL1        0.5753
     33 F          -1.8404   -0.3953   28.6996 F       1  UNL1       -0.1328
     34 F          -1.7470    1.5255   27.8040 F       1  UNL1       -0.1328
     35 F           0.2779   -0.5064   28.6821 F       1  UNL1       -0.1328
@<TRIPOS>BOND
     1    18    19    1
     2    19    10    1
     3    10    11   ar
     4    11    12   ar
     5    12    13   ar
     6    13    14   ar
     7    14     1    1
     8     1     2   ar
     9     2    20    1
    10    20    21    1
    11     2     3   ar
    12     3    23    1
    13    23    24    1
    14    24    25   ar
    15    25    26   ar
    16    26    27   ar
    17    27    28   ar
    18    28    29   ar
    19    29    30    1
    20     3     4   ar
    21     4     5   ar
    22     5     6   ar
    23     6     7   ar
    24     7    31    1
    25    31    32    1
    26    32    33    1
    27    32    34    1
    28    32    35    1
    29     7     8   ar
    30     8     9   ar
    31    14    15   ar
    32    15    16   ar
    33    16    17   ar
    34    17    10   ar
    35    16    12   ar
    36     9     1   ar
    37    29    24   ar
    38     9     4   ar
    39    21    22    1
@<TRIPOS>MOLECULE
*****
 35 39 0 0 0
SMALL
GASTEIGER

@<TRIPOS>ATOM
      1 C          -0.0418    2.2963   22.1196 C.ar    1  UNL1        0.0348
      2 C           0.1268    2.8415   23.5068 C.ar    1  UNL1        0.0686
      3 N           1.1826    2.0309   24.1982 N.ar    1  UNL1       -0.3242
      4 C           1.6666    0.9847   23.2383 C.ar    1  UNL1        0.0602
      5 C           2.6985   -0.0961   23.3682 C.ar    1  UNL1        0.0203
      6 C           2.9737   -1.0128   22.2133 C.ar    1  UNL1        0.0387
      7 C           2.2170   -0.8488   20.9286 C.ar    1  UNL1        0.1469
      8 C           1.1850    0.2320   20.7988 C.ar    1  UNL1        0.0387
      9 C           0.9098    1.1487   21.9537 C.ar    1  UNL1        0.0215
     10 C          -3.9276    4.3856   17.8830 C.ar    1  UNL1        0.2779
     11 N          -2.4393    4.2715   17.7346 N.ar    1  UNL1       -0.1190
     12 N          -1.8875    3.7127   19.0127 N.ar    1  UNL1       -0.2003
     13 C          -0.6267    3.2969   19.7109 C.ar    1  UNL1        0.1218
     14 C          -0.9948    2.8087   21.0806 C.ar    1  UNL1        0.1038
     15 N          -2.4830    2.9228   21.2289 N.ar    1  UNL1       -0.2192
     16 C          -3.0348    3.4815   19.9509 C.ar    1  UNL1        0.1998
     17 S          -4.2956    3.8973   19.2528 S.2     1  UNL1        0.0098
     18 C          -6.2736    5.2940   17.2343 C.3     1  UNL1        0.2548
     19 O          -4.8804    4.8980   16.8440 O.3     1  UNL1       -0.4506
     20 C          -0.6279    3.9948   24.0986 C.3     1  UNL1        0.1809
     21 O          -2.1196    3.9223   24.2387 O.3     1  UNL1       -0.3760
     22 H          -2.5262    3.8968   23.3584 H       1  UNL1        0.2110
     23 C           1.6692    2.2313   25.6029 C.3     1  UNL1        0.1333
     24 C           1.0884    1.4176   26.7210 C.ar    1  UNL1        0.0110
     25 C          -0.3884    1.4482   26.9824 C.ar    1  UNL1       -0.0016
     26 C          -0.9693    0.6345   28.1006 C.ar    1  UNL1       -0.0002
     27 C          -0.0734   -0.2099   28.9575 C.ar    1  UNL1        0.0008
     28 C           1.4033   -0.2406   28.6962 C.ar    1  UNL1        0.0111
     29 C           1.9842    0.5731   27.5780 C.ar    1  UNL1        0.0555
     30 CL          3.4609    0.5424   27.3168 Cl      1  UNL1       -0.0825
     31 O           2.4922   -1.7657   19.7737 O.3     1  UNL1       -0.4045
     32 C           3.7804   -1.6492   19.0141 C.3     1  UNL1        0.5753
     33 F           5.0686   -1.5326   18.2544 F       1  UNL1       -0.1328
     34 F           3.2349   -0.4663   18.2704 F       1  UNL1       -0.1328
     35 F           4.3259   -2.8321   19.7578 F       1  UNL1       -0.1328
@<TRIPOS>BOND
     1    18    19    1
     2    19    10    1
     3    10    11   ar
     4    11    12   ar
     5    12    13   ar
     6    13    14   ar
     7    14     1    1
     8     1     2   ar
     9     2    20    1
    10    20    21    1
    11     2     3   ar
    12     3    23    1
    13    23    24    1
    14    24    25   ar
    15    25    26   ar
    16    26    27   ar
    17    27    28   ar
    18    28    29   ar
    19    29    30    1
    20     3     4   ar
    21     4     5   ar
    22     5     6   ar
    23     6     7   ar
    24     7    31    1
    25    31    32    1
    26    32    33    1
    27    32    34    1
    28    32    35    1
    29     7     8   ar
    30     8     9   ar
    31    14    15   ar
    32    15    16   ar
    33    16    17   ar
    34    17    10   ar
    35    16    12   ar
    36     9     1   ar
    37    29    24   ar
    38     9     4   ar
    39    21    22    1
@<TRIPOS>MOLECULE
*****
 35 39 0 0 0
SMALL
GASTEIGER

@<TRIPOS>ATOM
      1 C           0.3740    2.0254   22.7870 C.ar    1  UNL1        0.0348
      2 C          -0.3678    3.1148   22.0708 C.ar    1  UNL1        0.0686
      3 N          -1.2779    3.7826   23.0585 N.ar    1  UNL1       -0.3242
      4 C          -1.0987    3.1060   24.3852 C.ar    1  UNL1        0.0602
      5 C          -1.7333    3.3384   25.7243 C.ar    1  UNL1        0.0203
      6 C          -1.3469    2.4849   26.8956 C.ar    1  UNL1        0.0387
      7 C          -0.3259    1.3988   26.7278 C.ar    1  UNL1        0.1469
      8 C           0.3086    1.1663   25.3887 C.ar    1  UNL1        0.0387
      9 C          -0.0778    2.0199   24.2174 C.ar    1  UNL1        0.0215
     10 C           4.5140   -1.7346   20.3101 C.ar    1  UNL1        0.2779
     11 N           4.7684   -0.7419   21.4055 N.ar    1  UNL1       -0.1190
     12 N           3.4776   -0.0370   21.7012 N.ar    1  UNL1       -0.2003
     13 C           2.8371    1.0121   22.5609 C.ar    1  UNL1        0.1218
     14 C           1.3892    1.1033   22.1796 C.ar    1  UNL1        0.1038
     15 N           1.1350    0.1105   21.0843 N.ar    1  UNL1       -0.2192
     16 C           2.4256   -0.5943   20.7886 C.ar    1  UNL1        0.1998
     17 S           3.0661   -1.6434   19.9289 S.2     1  UNL1        0.0098
     18 C           5.4550   -2.9975   18.2439 C.3     1  UNL1        0.2548
     19 O           5.5294   -2.6567   19.7027 O.3     1  UNL1       -0.4506
     20 C          -0.2245    3.4734   20.6214 C.3     1  UNL1        0.1809
     21 O          -0.3374    2.4089   19.5707 O.3     1  UNL1       -0.3760
     22 H           0.4029    1.7882   19.6583 H       1  UNL1        0.2110
     23 C          -2.2047    4.9263   22.7702 C.3     1  UNL1        0.1333
     24 C          -3.6796    4.7715   22.9948 C.ar    1  UNL1        0.0110
     25 C          -4.3336    5.4384   24.1685 C.ar    1  UNL1       -0.0016
     26 C          -5.8086    5.2837   24.3931 C.ar    1  UNL1       -0.0002
     27 C          -6.6296    4.4620   23.4440 C.ar    1  UNL1        0.0008
     28 C          -5.9756    3.7951   22.2703 C.ar    1  UNL1        0.0111
     29 C          -4.5006    3.9498   22.0457 C.ar    1  UNL1        0.0555
     30 CL         -3.8467    3.2829   20.8720 Cl      1  UNL1       -0.0825
     31 O           0.0605    0.5452   27.8993 O.3     1  UNL1       -0.4045
     32 C          -0.9422    0.2495   28.9749 C.3     1  UNL1        0.5753
     33 F          -1.9450   -0.0464   30.0506 F       1  UNL1       -0.1328
     34 F          -1.4860   -0.8838   28.1564 F       1  UNL1       -0.1328
     35 F          -0.3985    1.3827   29.7934 F       1  UNL1       -0.1328
@<TRIPOS>BOND
     1    18    19    1
     2    19    10    1
     3    10    11   ar
     4    11    12   ar
     5    12    13   ar
     6    13    14   ar
     7    14     1    1
     8     1     2   ar
     9     2    20    1
    10    20    21    1
    11     2     3   ar
    12     3    23    1
    13    23    24    1
    14    24    25   ar
    15    25    26   ar
    16    26    27   ar
    17    27    28   ar
    18    28    29   ar
    19    29    30    1
    20     3     4   ar
    21     4     5   ar
    22     5     6   ar
    23     6     7   ar
    24     7    31    1
    25    31    32    1
    26    32    33    1
    27    32    34    1
    28    32    35    1
    29     7     8   ar
    30     8     9   ar
    31    14    15   ar
    32    15    16   ar
    33    16    17   ar
    34    17    10   ar
    35    16    12   ar
    36     9     1   ar
    37    29    24   ar
    38     9     4   ar
    39    21    22    1
@<TRIPOS>MOLECULE
*****
 35 39 0 0 0
SMALL
GASTEIGER

@<TRIPOS>ATOM
      1 C          -2.0238    3.3724   23.5550 C.ar    1  UNL1        0.0348
      2 C          -1.2982    3.4409   22.2440 C.ar    1  UNL1        0.0686
      3 N           0.0791    2.8824   22.4469 N.ar    1  UNL1       -0.3242
      4 C           0.2046    2.4687   23.8832 C.ar    1  UNL1        0.0602
      5 C           1.3345    1.8554   24.6559 C.ar    1  UNL1        0.0203
      6 C           1.1647    1.5449   26.1135 C.ar    1  UNL1        0.0387
      7 C          -0.1350    1.8477   26.7984 C.ar    1  UNL1        0.1469
      8 C          -1.2649    2.4610   26.0257 C.ar    1  UNL1        0.0387
      9 C          -1.0951    2.7715   24.5681 C.ar    1  UNL1        0.0215
     10 C          -7.7627    5.2190   24.5887 C.ar    1  UNL1        0.2779
     11 N          -6.5635    5.5578   25.4237 N.ar    1  UNL1       -0.1190
     12 N          -5.3670    4.8960   24.8067 N.ar    1  UNL1       -0.2003
     13 C          -3.8865    4.6964   24.9415 C.ar    1  UNL1        0.1218
     14 C          -3.4312    3.8252   23.8085 C.ar    1  UNL1        0.1038
     15 N          -4.6303    3.4864   22.9735 N.ar    1  UNL1       -0.2192
     16 C          -5.8268    4.1482   23.5904 C.ar    1  UNL1        0.1998
     17 S          -7.3074    4.3477   23.4556 S.2     1  UNL1        0.0098
     18 C          -9.5171    7.1283   24.7509 C.3     1  UNL1        0.2548
     19 O          -9.1700    5.6718   24.8422 O.3     1  UNL1       -0.4506
     20 C          -1.8525    3.9743   20.9563 C.3     1  UNL1        0.1809
     21 O          -3.0421    3.3165   20.3222 O.3     1  UNL1       -0.3760
     22 H          -2.8025    2.4208   20.0372 H       1  UNL1        0.2110
     23 C           1.1439    2.7592   21.3976 C.3     1  UNL1        0.1333
     24 C           1.6617    1.4060   21.0097 C.ar    1  UNL1        0.0110
     25 C           0.7685    0.4390   20.2904 C.ar    1  UNL1       -0.0016
     26 C           1.2863   -0.9143   19.9025 C.ar    1  UNL1       -0.0002
     27 C           2.6973   -1.3006   20.2339 C.ar    1  UNL1        0.0008
     28 C           3.5904   -0.3338   20.9531 C.ar    1  UNL1        0.0111
     29 C           3.0727    1.0195   21.3410 C.ar    1  UNL1        0.0555
     30 CL          3.9659    1.9864   22.0603 Cl      1  UNL1       -0.0825
     31 O          -0.3048    1.5372   28.2561 O.3     1  UNL1       -0.4045
     32 C          -0.8219    0.1950   28.6818 C.3     1  UNL1        0.5753
     33 F          -1.3391   -1.1472   29.1074 F       1  UNL1       -0.1328
     34 F           0.5716   -0.3578   28.6318 F       1  UNL1       -0.1328
     35 F          -2.2154    0.7478   28.7317 F       1  UNL1       -0.1328
@<TRIPOS>BOND
     1    18    19    1
     2    19    10    1
     3    10    11   ar
     4    11    12   ar
     5    12    13   ar
     6    13    14   ar
     7    14     1    1
     8     1     2   ar
     9     2    20    1
    10    20    21    1
    11     2     3   ar
    12     3    23    1
    13    23    24    1
    14    24    25   ar
    15    25    26   ar
    16    26    27   ar
    17    27    28   ar
    18    28    29   ar
    19    29    30    1
    20     3     4   ar
    21     4     5   ar
    22     5     6   ar
    23     6     7   ar
    24     7    31    1
    25    31    32    1
    26    32    33    1
    27    32    34    1
    28    32    35    1
    29     7     8   ar
    30     8     9   ar
    31    14    15   ar
    32    15    16   ar
    33    16    17   ar
    34    17    10   ar
    35    16    12   ar
    36     9     1   ar
    37    29    24   ar
    38     9     4   ar
    39    21    22    1
@<TRIPOS>MOLECULE
*****
 35 39 0 0 0
SMALL
GASTEIGER

@<TRIPOS>ATOM
      1 C          -7.5153  -18.4729   21.9851 C.ar    1  UNL1        0.0348
      2 C          -6.9271  -19.3180   20.8943 C.ar    1  UNL1        0.0686
      3 N          -5.4486  -19.0672   20.8600 N.ar    1  UNL1       -0.3242
      4 C          -5.1230  -18.0672   21.9295 C.ar    1  UNL1        0.0602
      5 C          -3.8286  -17.4436   22.3601 C.ar    1  UNL1        0.0203
      6 C          -3.8114  -16.4527   23.4860 C.ar    1  UNL1        0.0387
      7 C          -5.0887  -16.0853   24.1814 C.ar    1  UNL1        0.1469
      8 C          -6.3832  -16.7089   23.7508 C.ar    1  UNL1        0.0387
      9 C          -6.4003  -17.6999   22.6249 C.ar    1  UNL1        0.0215
     10 C         -13.4231  -18.2230   23.5497 C.ar    1  UNL1        0.2779
     11 N         -12.2923  -18.6453   24.4402 N.ar    1  UNL1       -0.1190
     12 N         -11.0210  -18.5561   23.6490 N.ar    1  UNL1       -0.2003
     13 C          -9.5364  -18.7619   23.7103 C.ar    1  UNL1        0.1218
     14 C          -8.9641  -18.4116   22.3688 C.ar    1  UNL1        0.1038
     15 N         -10.0949  -17.9893   21.4784 N.ar    1  UNL1       -0.2192
     16 C         -11.3662  -18.0785   22.2695 C.ar    1  UNL1        0.1998
     17 S         -12.8507  -17.8726   22.2082 S.2     1  UNL1        0.0098
     18 C         -15.3040  -18.5961   25.3026 C.3     1  UNL1        0.2548
     19 O         -14.8719  -18.1617   23.9335 O.3     1  UNL1       -0.4506
     20 C          -7.6844  -20.2502   19.9957 C.3     1  UNL1        0.1809
     21 O          -8.7694  -19.7186   19.1068 O.3     1  UNL1       -0.3760
     22 H          -9.5009  -19.3884   19.6516 H       1  UNL1        0.2110
     23 C          -4.4678  -19.7046   19.9209 C.3     1  UNL1        0.1333
     24 C          -3.1607  -19.0291   19.6296 C.ar    1  UNL1        0.0110
     25 C          -3.0495  -18.0761   18.4765 C.ar    1  UNL1       -0.0016
     26 C          -1.7423  -17.4005   18.1851 C.ar    1  UNL1       -0.0002
     27 C          -0.5463  -17.6780   19.0468 C.ar    1  UNL1        0.0008
     28 C          -0.6574  -18.6309   20.1998 C.ar    1  UNL1        0.0111
     29 C          -1.9646  -19.3065   20.4912 C.ar    1  UNL1        0.0555
     30 CL         -2.0756  -20.2594   21.6443 Cl      1  UNL1       -0.0825
     31 O          -5.0715  -15.0944   25.3073 O.3     1  UNL1       -0.4045
     32 C          -5.8149  -15.3883   26.5765 C.3     1  UNL1        0.5753
     33 F          -6.5584  -15.6822   27.8458 F       1  UNL1       -0.1328
     34 F          -4.8421  -16.4854   26.8923 F       1  UNL1       -0.1328
     35 F          -6.7878  -14.2911   26.2607 F       1  UNL1       -0.1328
@<TRIPOS>BOND
     1    18    19    1
     2    19    10    1
     3    10    11   ar
     4    11    12   ar
     5    12    13   ar
     6    13    14   ar
     7    14     1    1
     8     1     2   ar
     9     2    20    1
    10    20    21    1
    11     2     3   ar
    12     3    23    1
    13    23    24    1
    14    24    25   ar
    15    25    26   ar
    16    26    27   ar
    17    27    28   ar
    18    28    29   ar
    19    29    30    1
    20     3     4   ar
    21     4     5   ar
    22     5     6   ar
    23     6     7   ar
    24     7    31    1
    25    31    32    1
    26    32    33    1
    27    32    34    1
    28    32    35    1
    29     7     8   ar
    30     8     9   ar
    31    14    15   ar
    32    15    16   ar
    33    16    17   ar
    34    17    10   ar
    35    16    12   ar
    36     9     1   ar
    37    29    24   ar
    38     9     4   ar
    39    21    22    1
@<TRIPOS>MOLECULE
*****
 35 39 0 0 0
SMALL
GASTEIGER

@<TRIPOS>ATOM
      1 C           0.3453    1.8857   22.9360 C.ar    1  UNL1        0.0348
      2 C          -0.4319    3.0573   22.4135 C.ar    1  UNL1        0.0686
      3 N          -0.3933    3.0079   20.9148 N.ar    1  UNL1       -0.3242
      4 C           0.4078    1.8056   20.5111 C.ar    1  UNL1        0.0602
      5 C           0.7805    1.2529   19.1675 C.ar    1  UNL1        0.0203
      6 C           1.6097    0.0066   19.0730 C.ar    1  UNL1        0.0387
      7 C           2.0662   -0.6870   20.3222 C.ar    1  UNL1        0.1469
      8 C           1.6935   -0.1343   21.6659 C.ar    1  UNL1        0.0387
      9 C           0.8643    1.1121   21.7603 C.ar    1  UNL1        0.0215
     10 C           1.2414    0.5047   28.8269 C.ar    1  UNL1        0.2779
     11 N           2.2945    0.5388   27.7593 N.ar    1  UNL1       -0.1190
     12 N           1.6339    0.9239   26.4687 N.ar    1  UNL1       -0.2003
     13 C           1.8765    1.1830   25.0113 C.ar    1  UNL1        0.1218
     14 C           0.5650    1.5470   24.3807 C.ar    1  UNL1        0.1038
     15 N          -0.4880    1.5128   25.4483 N.ar    1  UNL1       -0.2192
     16 C           0.1725    1.1278   26.7389 C.ar    1  UNL1        0.1998
     17 S          -0.0700    0.8687   28.1963 S.2     1  UNL1        0.0098
     18 C           2.6636   -0.6324   30.6801 C.3     1  UNL1        0.2548
     19 O           1.4612    0.1660   30.2716 O.3     1  UNL1       -0.4506
     20 C          -1.1259    4.0961   23.2438 C.3     1  UNL1        0.1809
     21 O          -2.2524    3.7006   24.1518 O.3     1  UNL1       -0.3760
     22 H          -3.0022    3.3900   23.6206 H       1  UNL1        0.2110
     23 C          -1.0419    3.9885   19.9833 C.3     1  UNL1        0.1333
     24 C          -2.4775    3.8098   19.5871 C.ar    1  UNL1        0.0110
     25 C          -3.5007    3.4425   20.6206 C.ar    1  UNL1       -0.0016
     26 C          -4.9364    3.2638   20.2245 C.ar    1  UNL1       -0.0002
     27 C          -5.3489    3.4526   18.7947 C.ar    1  UNL1        0.0008
     28 C          -4.3258    3.8199   17.7612 C.ar    1  UNL1        0.0111
     29 C          -2.8901    3.9985   18.1573 C.ar    1  UNL1        0.0555
     30 CL         -1.8670    4.3659   17.1237 Cl      1  UNL1       -0.0825
     31 O           2.8955   -1.9334   20.2278 O.3     1  UNL1       -0.4045
     32 C           3.8194   -2.1331   19.0631 C.3     1  UNL1        0.5753
     33 F           4.7433   -2.3327   17.8983 F       1  UNL1       -0.1328
     34 F           3.1099   -3.4090   18.7189 F       1  UNL1       -0.1328
     35 F           4.5289   -0.8571   19.4072 F       1  UNL1       -0.1328
@<TRIPOS>BOND
     1    18    19    1
     2    19    10    1
     3    10    11   ar
     4    11    12   ar
     5    12    13   ar
     6    13    14   ar
     7    14     1    1
     8     1     2   ar
     9     2    20    1
    10    20    21    1
    11     2     3   ar
    12     3    23    1
    13    23    24    1
    14    24    25   ar
    15    25    26   ar
    16    26    27   ar
    17    27    28   ar
    18    28    29   ar
    19    29    30    1
    20     3     4   ar
    21     4     5   ar
    22     5     6   ar
    23     6     7   ar
    24     7    31    1
    25    31    32    1
    26    32    33    1
    27    32    34    1
    28    32    35    1
    29     7     8   ar
    30     8     9   ar
    31    14    15   ar
    32    15    16   ar
    33    16    17   ar
    34    17    10   ar
    35    16    12   ar
    36     9     1   ar
    37    29    24   ar
    38     9     4   ar
    39    21    22    1
