@<TRIPOS>MOLECULE
*****
 33 36 0 0 0
SMALL
GASTEIGER

@<TRIPOS>ATOM
      1 N           2.7731    1.5215   19.0845 N.pl3   1  UNL1       -0.2931
      2 C           2.7775    2.0426   20.4910 C.3     1  UNL1        0.0926
      3 C           1.5334    2.6481   21.0704 C.3     1  UNL1        0.0306
      4 C           0.2849    2.7325   20.2433 C.3     1  UNL1        0.0802
      5 C           0.2806    2.2114   18.8367 C.3     1  UNL1        0.0306
      6 C           1.5246    1.6059   18.2573 C.3     1  UNL1        0.0926
      7 C           3.8074   -4.2871   19.6087 C.3     1  UNL1        0.0379
      8 C           4.2344   -2.9368   19.1144 C.ar    1  UNL1        0.0052
      9 S           5.4918   -2.6329   18.3551 S.2     1  UNL1       -0.0725
     10 C           5.5135   -1.1615   18.0641 C.ar    1  UNL1        0.1145
     11 N           6.5053   -0.2949   17.3463 N.ar    1  UNL1       -0.2173
     12 C           6.2530    1.1772   17.2079 C.ar    1  UNL1        0.2005
     13 N           5.0089    1.7827   17.7873 N.ar    1  UNL1       -0.2090
     14 C           4.0171    0.9160   18.5051 C.ar    1  UNL1        0.1350
     15 C           4.2694   -0.5561   18.6435 C.ar    1  UNL1        0.0517
     16 C           3.4789   -1.6532   19.2926 C.ar    1  UNL1       -0.0151
     17 C           2.1638   -1.4946   19.9964 C.3     1  UNL1        0.0314
     18 C          -0.9591    3.3379   20.8227 C.2     1  UNL1        0.2257
     19 O          -0.8862    4.6449   21.5551 O.2     1  UNL1       -0.2748
     20 N          -2.2761    2.6365   20.6696 N.am    1  UNL1       -0.2839
     21 H          -2.3240    1.7787   20.1888 H       1  UNL1        0.1549
     22 C          -3.5202    3.2419   21.2490 C.ar    1  UNL1        0.0504
     23 C          -3.7038    3.2992   22.7366 C.ar    1  UNL1        0.0160
     24 C          -4.9478    3.9046   23.3160 C.ar    1  UNL1        0.0212
     25 C          -6.0083    4.4529   22.4078 C.ar    1  UNL1        0.1218
     26 C          -5.8247    4.3956   20.9202 C.ar    1  UNL1        0.0212
     27 C          -4.5806    3.7902   20.3408 C.ar    1  UNL1        0.0160
     28 S          -7.2524    5.0584   22.9872 S.O2    1  UNL1        0.0572
     29 N          -8.4964    5.6638   23.5666 N.3     1  UNL1       -0.2035
     30 O          -6.8157    4.6415   24.3603 O.2     1  UNL1       -0.1532
     31 O          -7.6890    5.4752   21.6140 O.2     1  UNL1       -0.1532
     32 H          -8.4985    5.5338   24.5782 H       1  UNL1        0.1442
     33 H          -9.3155    5.2087   23.1636 H       1  UNL1        0.1442
@<TRIPOS>BOND
     1     7     8    1
     2     8     9   ar
     3     9    10   ar
     4    10    11   ar
     5    11    12   ar
     6    12    13   ar
     7    13    14   ar
     8    14     1    1
     9     1     2    1
    10     2     3    1
    11     3     4    1
    12     4    18    1
    13    18    19    2
    14    18    20   am
    15    20    22    1
    16    22    23   ar
    17    23    24   ar
    18    24    25   ar
    19    25    28    1
    20    28    29    1
    21    28    30    2
    22    28    31    2
    23    25    26   ar
    24    26    27   ar
    25     4     5    1
    26     5     6    1
    27    14    15   ar
    28    15    16   ar
    29    16    17    1
    30    16     8   ar
    31    15    10   ar
    32     6     1    1
    33    27    22   ar
    34    20    21    1
    35    29    32    1
    36    29    33    1
@<TRIPOS>MOLECULE
*****
 33 36 0 0 0
SMALL
GASTEIGER

@<TRIPOS>ATOM
      1 N           5.8221   -1.6890   21.1813 N.pl3   1  UNL1       -0.2931
      2 C           6.4124   -0.7667   22.2064 C.3     1  UNL1        0.0926
      3 C           6.8659   -1.3080   23.5298 C.3     1  UNL1        0.0306
      4 C           6.7290   -2.7717   23.8281 C.3     1  UNL1        0.0802
      5 C           6.1387   -3.6939   22.8030 C.3     1  UNL1        0.0306
      6 C           5.6852   -3.1526   21.4796 C.3     1  UNL1        0.0926
      7 C           0.2833    0.2930   20.4896 C.3     1  UNL1        0.0379
      8 C           1.6437    0.0289   19.9154 C.ar    1  UNL1        0.0052
      9 S           2.0764    0.3116   18.5073 S.2     1  UNL1       -0.0725
     10 C           3.5103   -0.1068   18.3701 C.ar    1  UNL1        0.1145
     11 N           4.4617   -0.0649   17.2112 N.ar    1  UNL1       -0.2173
     12 C           5.8665   -0.5643   17.3757 C.ar    1  UNL1        0.2005
     13 N           6.3199   -1.1056   18.6990 N.ar    1  UNL1       -0.2090
     14 C           5.3686   -1.1476   19.8580 C.ar    1  UNL1        0.1350
     15 C           3.9638   -0.6482   19.6935 C.ar    1  UNL1        0.0517
     16 C           2.8101   -0.5643   20.6485 C.ar    1  UNL1       -0.0151
     17 C           2.8211   -0.9975   22.0845 C.3     1  UNL1        0.0314
     18 C           7.1825   -3.3130   25.1514 C.2     1  UNL1        0.2257
     19 O           8.4276   -2.7775   25.7939 O.2     1  UNL1       -0.2748
     20 N           6.3908   -4.3899   25.8323 N.am    1  UNL1       -0.2839
     21 H           5.5736   -4.7414   25.4106 H       1  UNL1        0.1549
     22 C           6.8443   -4.9312   27.1557 C.ar    1  UNL1        0.0504
     23 C           7.7736   -6.1077   27.2061 C.ar    1  UNL1        0.0160
     24 C           8.2270   -6.6491   28.5294 C.ar    1  UNL1        0.0212
     25 C           7.7512   -6.0139   29.8024 C.ar    1  UNL1        0.1218
     26 C           6.8220   -4.8376   29.7519 C.ar    1  UNL1        0.0212
     27 C           6.3685   -4.2962   28.4286 C.ar    1  UNL1        0.0160
     28 S           8.2047   -6.5553   31.1258 S.O2    1  UNL1        0.0572
     29 N           8.6581   -7.0967   32.4491 N.3     1  UNL1       -0.2035
     30 O           6.8749   -6.2049   31.7248 O.2     1  UNL1       -0.1532
     31 O           9.5345   -6.9057   30.5267 O.2     1  UNL1       -0.1532
     32 H           7.9084   -6.9947   33.1331 H       1  UNL1        0.1442
     33 H           9.4789   -6.5798   32.7647 H       1  UNL1        0.1442
@<TRIPOS>BOND
     1     7     8    1
     2     8     9   ar
     3     9    10   ar
     4    10    11   ar
     5    11    12   ar
     6    12    13   ar
     7    13    14   ar
     8    14     1    1
     9     1     2    1
    10     2     3    1
    11     3     4    1
    12     4    18    1
    13    18    19    2
    14    18    20   am
    15    20    22    1
    16    22    23   ar
    17    23    24   ar
    18    24    25   ar
    19    25    28    1
    20    28    29    1
    21    28    30    2
    22    28    31    2
    23    25    26   ar
    24    26    27   ar
    25     4     5    1
    26     5     6    1
    27    14    15   ar
    28    15    16   ar
    29    16    17    1
    30    16     8   ar
    31    15    10   ar
    32     6     1    1
    33    27    22   ar
    34    20    21    1
    35    29    32    1
    36    29    33    1
@<TRIPOS>MOLECULE
*****
 33 36 0 0 0
SMALL
GASTEIGER

@<TRIPOS>ATOM
      1 N           2.9846    1.2053   19.3585 N.pl3   1  UNL1       -0.2931
      2 C           3.1438    1.6263   20.7893 C.3     1  UNL1        0.0926
      3 C           1.9591    2.1299   21.5592 C.3     1  UNL1        0.0306
      4 C           0.6151    2.2125   20.8983 C.3     1  UNL1        0.0802
      5 C           0.4559    1.7916   19.4674 C.3     1  UNL1        0.0306
      6 C           1.6406    1.2879   18.6975 C.3     1  UNL1        0.0926
      7 C           4.3599   -4.5559   19.3985 C.3     1  UNL1        0.0379
      8 C           4.6519   -3.1597   18.9345 C.ar    1  UNL1        0.0052
      9 S           5.7820   -2.7464   18.0389 S.2     1  UNL1       -0.0725
     10 C           5.6936   -1.2629   17.8355 C.ar    1  UNL1        0.1145
     11 N           6.5388   -0.3056   17.0488 N.ar    1  UNL1       -0.2173
     12 C           6.1993    1.1554   17.0319 C.ar    1  UNL1        0.2005
     13 N           5.0146    1.6590   17.8018 N.ar    1  UNL1       -0.2090
     14 C           4.1693    0.7017   18.5886 C.ar    1  UNL1        0.1350
     15 C           4.5088   -0.7593   18.6054 C.ar    1  UNL1        0.0517
     16 C           3.8650   -1.9316   19.2846 C.ar    1  UNL1       -0.0151
     17 C           2.6480   -1.8840   20.1602 C.3     1  UNL1        0.0314
     18 C          -0.5696    2.7162   21.6682 C.2     1  UNL1        0.2257
     19 O          -1.9408    2.6480   21.0639 O.2     1  UNL1       -0.2748
     20 N          -0.3832    3.2879   23.0423 N.am    1  UNL1       -0.2839
     21 H           0.5168    3.3326   23.4389 H       1  UNL1        0.1549
     22 C          -1.5679    3.7915   23.8122 C.ar    1  UNL1        0.0504
     23 C          -1.9710    3.1208   25.0920 C.ar    1  UNL1        0.0160
     24 C          -3.1557    3.6244   25.8619 C.ar    1  UNL1        0.0212
     25 C          -3.9374    4.7988   25.3520 C.ar    1  UNL1        0.1218
     26 C          -3.5344    5.4694   24.0723 C.ar    1  UNL1        0.0212
     27 C          -2.3496    4.9658   23.3024 C.ar    1  UNL1        0.0160
     28 S          -5.1222    5.3024   26.1219 S.O2    1  UNL1        0.0572
     29 N          -6.3069    5.8060   26.8918 N.3     1  UNL1       -0.2035
     30 O          -5.6432    5.9697   24.8837 O.2     1  UNL1       -0.1532
     31 O          -4.6012    4.6350   27.3601 O.2     1  UNL1       -0.1532
     32 H          -6.9095    6.3480   26.2725 H       1  UNL1        0.1442
     33 H          -5.9875    6.3977   27.6588 H       1  UNL1        0.1442
@<TRIPOS>BOND
     1     7     8    1
     2     8     9   ar
     3     9    10   ar
     4    10    11   ar
     5    11    12   ar
     6    12    13   ar
     7    13    14   ar
     8    14     1    1
     9     1     2    1
    10     2     3    1
    11     3     4    1
    12     4    18    1
    13    18    19    2
    14    18    20   am
    15    20    22    1
    16    22    23   ar
    17    23    24   ar
    18    24    25   ar
    19    25    28    1
    20    28    29    1
    21    28    30    2
    22    28    31    2
    23    25    26   ar
    24    26    27   ar
    25     4     5    1
    26     5     6    1
    27    14    15   ar
    28    15    16   ar
    29    16    17    1
    30    16     8   ar
    31    15    10   ar
    32     6     1    1
    33    27    22   ar
    34    20    21    1
    35    29    32    1
    36    29    33    1
@<TRIPOS>MOLECULE
*****
 33 36 0 0 0
SMALL
GASTEIGER

@<TRIPOS>ATOM
      1 N           5.1308   -0.6611   34.4216 N.pl3   1  UNL1       -0.2931
      2 C           6.4695   -0.4555   33.7769 C.3     1  UNL1        0.0926
      3 C           6.9608   -1.4246   32.7428 C.3     1  UNL1        0.0306
      4 C           6.1133   -2.5994   32.3533 C.3     1  UNL1        0.0802
      5 C           4.7746   -2.8050   32.9980 C.3     1  UNL1        0.0306
      6 C           4.2834   -1.8358   34.0321 C.3     1  UNL1        0.0926
      7 C           1.3547    3.6537   32.9356 C.3     1  UNL1        0.0379
      8 C           2.1752    2.9558   33.9794 C.ar    1  UNL1        0.0052
      9 S           2.2601    3.3295   35.4296 S.2     1  UNL1       -0.0725
     10 C           3.1922    2.3663   36.1029 C.ar    1  UNL1        0.1145
     11 N           3.6571    2.2464   37.5239 N.ar    1  UNL1       -0.2173
     12 C           4.6132    1.1574   37.9109 C.ar    1  UNL1        0.2005
     13 N           5.1045    0.1882   36.8767 N.ar    1  UNL1       -0.2090
     14 C           4.6396    0.3081   35.4557 C.ar    1  UNL1        0.1350
     15 C           3.6834    1.3971   35.0688 C.ar    1  UNL1        0.0517
     16 C           3.0549    1.7614   33.7564 C.ar    1  UNL1       -0.0151
     17 C           3.2686    1.0554   32.4503 C.3     1  UNL1        0.0314
     18 C           6.6046   -3.5685   31.3192 C.2     1  UNL1        0.2257
     19 O           6.9625   -4.9703   31.7151 O.2     1  UNL1       -0.2748
     20 N           6.7378   -3.1359   29.8892 N.am    1  UNL1       -0.2839
     21 H           6.5029   -2.2158   29.6293 H       1  UNL1        0.1549
     22 C           7.2291   -4.1051   28.8550 C.ar    1  UNL1        0.0504
     23 C           8.7018   -4.3225   28.6705 C.ar    1  UNL1        0.0160
     24 C           9.1930   -5.2916   27.6364 C.ar    1  UNL1        0.0212
     25 C           8.2116   -6.0434   26.7868 C.ar    1  UNL1        0.1218
     26 C           6.7390   -5.8259   26.9713 C.ar    1  UNL1        0.0212
     27 C           6.2477   -4.8568   28.0055 C.ar    1  UNL1        0.0160
     28 S           8.7028   -7.0125   25.7527 S.O2    1  UNL1        0.0572
     29 N           9.1941   -7.9817   24.7185 N.3     1  UNL1       -0.2035
     30 O           7.9382   -8.1153   26.4229 O.2     1  UNL1       -0.1532
     31 O           9.4675   -5.9098   25.0824 O.2     1  UNL1       -0.1532
     32 H           8.8152   -8.9084   24.9139 H       1  UNL1        0.1442
     33 H          10.2131   -8.0187   24.7441 H       1  UNL1        0.1442
@<TRIPOS>BOND
     1     7     8    1
     2     8     9   ar
     3     9    10   ar
     4    10    11   ar
     5    11    12   ar
     6    12    13   ar
     7    13    14   ar
     8    14     1    1
     9     1     2    1
    10     2     3    1
    11     3     4    1
    12     4    18    1
    13    18    19    2
    14    18    20   am
    15    20    22    1
    16    22    23   ar
    17    23    24   ar
    18    24    25   ar
    19    25    28    1
    20    28    29    1
    21    28    30    2
    22    28    31    2
    23    25    26   ar
    24    26    27   ar
    25     4     5    1
    26     5     6    1
    27    14    15   ar
    28    15    16   ar
    29    16    17    1
    30    16     8   ar
    31    15    10   ar
    32     6     1    1
    33    27    22   ar
    34    20    21    1
    35    29    32    1
    36    29    33    1
@<TRIPOS>MOLECULE
*****
 33 36 0 0 0
SMALL
GASTEIGER

@<TRIPOS>ATOM
      1 N          -2.1433    4.5784   25.2940 N.pl3   1  UNL1       -0.2931
      2 C          -1.5630    5.2634   24.0923 C.3     1  UNL1        0.0926
      3 C          -0.6017    4.5317   23.2032 C.3     1  UNL1        0.0306
      4 C          -0.2206    3.1150   23.5158 C.3     1  UNL1        0.0802
      5 C          -0.8009    2.4300   24.7175 C.3     1  UNL1        0.0306
      6 C          -1.7622    3.1618   25.6066 C.3     1  UNL1        0.0926
      7 C          -7.9082    4.7876   23.9499 C.3     1  UNL1        0.0379
      8 C          -6.7797    5.1559   24.8669 C.ar    1  UNL1        0.0052
      9 S          -6.8941    5.9644   26.1252 S.2     1  UNL1       -0.0725
     10 C          -5.5238    6.0887   26.7226 C.ar    1  UNL1        0.1145
     11 N          -5.0272    6.7736   27.9612 N.ar    1  UNL1       -0.2173
     12 C          -3.5693    6.7267   28.3108 C.ar    1  UNL1        0.2005
     13 N          -2.6080    5.9950   27.4217 N.ar    1  UNL1       -0.2090
     14 C          -3.1046    5.3101   26.1831 C.ar    1  UNL1        0.1350
     15 C          -4.5625    5.3570   25.8335 C.ar    1  UNL1        0.0517
     16 C          -5.3387    4.7805   24.6867 C.ar    1  UNL1       -0.0151
     17 C          -4.7731    3.9708   23.5577 C.3     1  UNL1        0.0314
     18 C           0.7407    2.3833   22.6267 C.2     1  UNL1        0.2257
     19 O           2.1785    2.8065   22.5677 O.2     1  UNL1       -0.2748
     20 N           0.2642    1.2284   21.7967 N.am    1  UNL1       -0.2839
     21 H          -0.6795    0.9506   21.8354 H       1  UNL1        0.1549
     22 C           1.2255    0.4966   20.9076 C.ar    1  UNL1        0.0504
     23 C           1.3048    0.8361   19.4486 C.ar    1  UNL1        0.0160
     24 C           2.2661    0.1044   18.5596 C.ar    1  UNL1        0.0212
     25 C           3.1482   -0.9668   19.1295 C.ar    1  UNL1        0.1218
     26 C           3.0689   -1.3062   20.5884 C.ar    1  UNL1        0.0212
     27 C           2.1076   -0.5744   21.4775 C.ar    1  UNL1        0.0160
     28 S           4.1095   -1.6985   18.2404 S.O2    1  UNL1        0.0572
     29 N           5.0708   -2.4302   17.3513 N.3     1  UNL1       -0.2035
     30 O           3.7204   -0.8149   17.0924 O.2     1  UNL1       -0.1532
     31 O           4.4986   -2.5821   19.3884 O.2     1  UNL1       -0.1532
     32 H           5.0392   -2.0296   16.4138 H       1  UNL1        0.1442
     33 H           4.8118   -3.4158   17.3088 H       1  UNL1        0.1442
@<TRIPOS>BOND
     1     7     8    1
     2     8     9   ar
     3     9    10   ar
     4    10    11   ar
     5    11    12   ar
     6    12    13   ar
     7    13    14   ar
     8    14     1    1
     9     1     2    1
    10     2     3    1
    11     3     4    1
    12     4    18    1
    13    18    19    2
    14    18    20   am
    15    20    22    1
    16    22    23   ar
    17    23    24   ar
    18    24    25   ar
    19    25    28    1
    20    28    29    1
    21    28    30    2
    22    28    31    2
    23    25    26   ar
    24    26    27   ar
    25     4     5    1
    26     5     6    1
    27    14    15   ar
    28    15    16   ar
    29    16    17    1
    30    16     8   ar
    31    15    10   ar
    32     6     1    1
    33    27    22   ar
    34    20    21    1
    35    29    32    1
    36    29    33    1
@<TRIPOS>MOLECULE
*****
 33 36 0 0 0
SMALL
GASTEIGER

@<TRIPOS>ATOM
      1 N           2.0016    1.0314   19.2716 N.pl3   1  UNL1       -0.2931
      2 C           0.9560    1.6254   18.3752 C.3     1  UNL1        0.0926
      3 C          -0.2324    2.3225   18.9683 C.3     1  UNL1        0.0306
      4 C          -0.3751    2.4255   20.4579 C.3     1  UNL1        0.0802
      5 C           0.6705    1.8315   21.3544 C.3     1  UNL1        0.0306
      6 C           1.8589    1.1344   20.7612 C.3     1  UNL1        0.0926
      7 C           6.5350    4.1591   17.0921 C.3     1  UNL1        0.0379
      8 C           5.9016    2.8311   17.3838 C.ar    1  UNL1        0.0052
      9 S           6.4907    1.4865   17.0754 S.2     1  UNL1       -0.0725
     10 C           5.5211    0.4388   17.5361 C.ar    1  UNL1        0.1145
     11 N           5.5668   -1.0598   17.4921 N.ar    1  UNL1       -0.2173
     12 C           4.4241   -1.8614   18.0413 C.ar    1  UNL1        0.2005
     13 N           3.2357   -1.1643   18.6345 N.ar    1  UNL1       -0.2090
     14 C           3.1900    0.3343   18.6784 C.ar    1  UNL1        0.1350
     15 C           4.3327    1.1359   18.1292 C.ar    1  UNL1        0.0517
     16 C           4.5679    2.6143   18.0351 C.ar    1  UNL1       -0.0151
     17 C           3.6334    3.6877   18.5091 C.3     1  UNL1        0.0314
     18 C          -1.5635    3.1226   21.0511 C.2     1  UNL1        0.2257
     19 O          -1.3656    4.2834   21.9802 O.2     1  UNL1       -0.2748
     20 N          -2.9499    2.6588   20.7151 N.am    1  UNL1       -0.2839
     21 H          -3.0798    1.8970   20.1053 H       1  UNL1        0.1549
     22 C          -4.1383    3.3559   21.3083 C.ar    1  UNL1        0.0504
     23 C          -4.5263    3.0954   22.7337 C.ar    1  UNL1        0.0160
     24 C          -5.7147    3.7924   23.3268 C.ar    1  UNL1        0.0212
     25 C          -6.5150    4.7500   22.4946 C.ar    1  UNL1        0.1218
     26 C          -6.1270    5.0105   21.0693 C.ar    1  UNL1        0.0212
     27 C          -4.9386    4.3135   20.4761 C.ar    1  UNL1        0.0160
     28 S          -7.7034    5.4471   23.0878 S.O2    1  UNL1        0.0572
     29 N          -8.8918    6.1442   23.6809 N.3     1  UNL1       -0.2035
     30 O          -8.0071    6.0639   21.7546 O.2     1  UNL1       -0.1532
     31 O          -7.3998    4.8303   24.4209 O.2     1  UNL1       -0.1532
     32 H          -9.3558    6.6976   22.9607 H       1  UNL1        0.1442
     33 H          -8.5845    6.7575   24.4357 H       1  UNL1        0.1442
@<TRIPOS>BOND
     1     7     8    1
     2     8     9   ar
     3     9    10   ar
     4    10    11   ar
     5    11    12   ar
     6    12    13   ar
     7    13    14   ar
     8    14     1    1
     9     1     2    1
    10     2     3    1
    11     3     4    1
    12     4    18    1
    13    18    19    2
    14    18    20   am
    15    20    22    1
    16    22    23   ar
    17    23    24   ar
    18    24    25   ar
    19    25    28    1
    20    28    29    1
    21    28    30    2
    22    28    31    2
    23    25    26   ar
    24    26    27   ar
    25     4     5    1
    26     5     6    1
    27    14    15   ar
    28    15    16   ar
    29    16    17    1
    30    16     8   ar
    31    15    10   ar
    32     6     1    1
    33    27    22   ar
    34    20    21    1
    35    29    32    1
    36    29    33    1
@<TRIPOS>MOLECULE
*****
 33 36 0 0 0
SMALL
GASTEIGER

@<TRIPOS>ATOM
      1 N           1.3020    1.4282   28.5955 N.pl3   1  UNL1       -0.2931
      2 C           1.5348    2.7870   28.0044 C.3     1  UNL1        0.0926
      3 C           0.4217    3.4952   27.2907 C.3     1  UNL1        0.0306
      4 C          -0.9243    2.8446   27.1680 C.3     1  UNL1        0.0802
      5 C          -1.1571    1.4858   27.7591 C.3     1  UNL1        0.0306
      6 C          -0.0440    0.7776   28.4728 C.3     1  UNL1        0.0926
      7 C           2.2227    2.3451   34.3744 C.3     1  UNL1        0.0379
      8 C           2.6062    1.6598   33.0964 C.ar    1  UNL1        0.0052
      9 S           3.7321    0.6841   32.9225 S.2     1  UNL1       -0.0725
     10 C           3.7528    0.2511   31.4865 C.ar    1  UNL1        0.1145
     11 N           4.6414   -0.6964   30.7366 N.ar    1  UNL1       -0.2173
     12 C           4.4169   -0.9358   29.2730 C.ar    1  UNL1        0.2005
     13 N           3.3038   -0.2276   28.5593 N.ar    1  UNL1       -0.2090
     14 C           2.4151    0.7200   29.3092 C.ar    1  UNL1        0.1350
     15 C           2.6397    0.9593   30.7728 C.ar    1  UNL1        0.0517
     16 C           1.9310    1.8299   31.7677 C.ar    1  UNL1       -0.0151
     17 C           0.7539    2.7152   31.4839 C.3     1  UNL1        0.0314
     18 C          -2.0374    3.5528   26.4543 C.2     1  UNL1        0.2257
     19 O          -1.7279    4.4866   25.3220 O.2     1  UNL1       -0.2748
     20 N          -3.4600    3.3272   26.8729 N.am    1  UNL1       -0.2839
     21 H          -3.6631    2.7143   27.6161 H       1  UNL1        0.1549
     22 C          -4.5731    4.0354   26.1592 C.ar    1  UNL1        0.0504
     23 C          -5.2541    5.2052   26.8058 C.ar    1  UNL1        0.0160
     24 C          -6.3672    5.9134   26.0921 C.ar    1  UNL1        0.0212
     25 C          -6.7994    5.4518   24.7318 C.ar    1  UNL1        0.1218
     26 C          -6.1185    4.2820   24.0854 C.ar    1  UNL1        0.0212
     27 C          -5.0053    3.5738   24.7991 C.ar    1  UNL1        0.0160
     28 S          -7.9125    6.1600   24.0181 S.O2    1  UNL1        0.0572
     29 N          -9.0257    6.8682   23.3044 N.3     1  UNL1       -0.2035
     30 O          -8.4475    4.8413   23.5439 O.2     1  UNL1       -0.1532
     31 O          -7.3776    7.4787   24.4923 O.2     1  UNL1       -0.1532
     32 H          -9.6209    6.1833   22.8386 H       1  UNL1        0.1442
     33 H          -8.6338    7.5055   22.6111 H       1  UNL1        0.1442
@<TRIPOS>BOND
     1     7     8    1
     2     8     9   ar
     3     9    10   ar
     4    10    11   ar
     5    11    12   ar
     6    12    13   ar
     7    13    14   ar
     8    14     1    1
     9     1     2    1
    10     2     3    1
    11     3     4    1
    12     4    18    1
    13    18    19    2
    14    18    20   am
    15    20    22    1
    16    22    23   ar
    17    23    24   ar
    18    24    25   ar
    19    25    28    1
    20    28    29    1
    21    28    30    2
    22    28    31    2
    23    25    26   ar
    24    26    27   ar
    25     4     5    1
    26     5     6    1
    27    14    15   ar
    28    15    16   ar
    29    16    17    1
    30    16     8   ar
    31    15    10   ar
    32     6     1    1
    33    27    22   ar
    34    20    21    1
    35    29    32    1
    36    29    33    1
@<TRIPOS>MOLECULE
*****
 33 36 0 0 0
SMALL
GASTEIGER

@<TRIPOS>ATOM
      1 N           2.5391    0.1028   20.8959 N.pl3   1  UNL1       -0.2931
      2 C           2.6573    1.3654   21.6971 C.3     1  UNL1        0.0926
      3 C           1.4645    2.2582   21.8701 C.3     1  UNL1        0.0306
      4 C           0.1535    1.8885   21.2421 C.3     1  UNL1        0.0802
      5 C           0.0353    0.6259   20.4410 C.3     1  UNL1        0.0306
      6 C           1.2281   -0.2669   20.2679 C.3     1  UNL1        0.0926
      7 C           6.3033    0.9623   16.4041 C.3     1  UNL1        0.0379
      8 C           5.8985    0.1854   17.6217 C.ar    1  UNL1        0.0052
      9 S           6.6255   -0.9936   18.1974 S.2     1  UNL1       -0.0725
     10 C           5.8718   -1.4566   19.4088 C.ar    1  UNL1        0.1145
     11 N           6.1176   -2.5758   20.3767 N.ar    1  UNL1       -0.2173
     12 C           5.1706   -2.8022   21.5177 C.ar    1  UNL1        0.2005
     13 N           3.9777   -1.9093   21.6908 N.ar    1  UNL1       -0.2090
     14 C           3.7320   -0.7901   20.7229 C.ar    1  UNL1        0.1350
     15 C           4.6790   -0.5637   19.5819 C.ar    1  UNL1        0.0517
     16 C           4.6955    0.4510   18.4774 C.ar    1  UNL1       -0.0151
     17 C           3.6861    1.5403   18.2658 C.3     1  UNL1        0.0314
     18 C          -1.0393    2.7814   21.4152 C.2     1  UNL1        0.2257
     19 O          -1.0036    3.8943   22.4202 O.2     1  UNL1       -0.2748
     20 N          -2.2679    2.5614   20.5832 N.am    1  UNL1       -0.2839
     21 H          -2.2913    1.8310   19.9235 H       1  UNL1        0.1549
     22 C          -3.4607    3.4543   20.7563 C.ar    1  UNL1        0.0504
     23 C          -4.5684    3.0543   21.6853 C.ar    1  UNL1        0.0160
     24 C          -5.7612    3.9472   21.8584 C.ar    1  UNL1        0.0212
     25 C          -5.8463    5.2400   21.1024 C.ar    1  UNL1        0.1218
     26 C          -4.7386    5.6399   20.1734 C.ar    1  UNL1        0.0212
     27 C          -3.5458    4.7470   20.0004 C.ar    1  UNL1        0.0160
     28 S          -7.0391    6.1329   21.2755 S.O2    1  UNL1        0.0572
     29 N          -8.2320    7.0258   21.4485 N.3     1  UNL1       -0.2035
     30 O          -7.6241    5.1611   22.2570 O.2     1  UNL1       -0.1532
     31 O          -6.4542    7.1046   20.2939 O.2     1  UNL1       -0.1532
     32 H          -8.8774    6.6051   22.1171 H       1  UNL1        0.1442
     33 H          -8.7015    7.1437   20.5507 H       1  UNL1        0.1442
@<TRIPOS>BOND
     1     7     8    1
     2     8     9   ar
     3     9    10   ar
     4    10    11   ar
     5    11    12   ar
     6    12    13   ar
     7    13    14   ar
     8    14     1    1
     9     1     2    1
    10     2     3    1
    11     3     4    1
    12     4    18    1
    13    18    19    2
    14    18    20   am
    15    20    22    1
    16    22    23   ar
    17    23    24   ar
    18    24    25   ar
    19    25    28    1
    20    28    29    1
    21    28    30    2
    22    28    31    2
    23    25    26   ar
    24    26    27   ar
    25     4     5    1
    26     5     6    1
    27    14    15   ar
    28    15    16   ar
    29    16    17    1
    30    16     8   ar
    31    15    10   ar
    32     6     1    1
    33    27    22   ar
    34    20    21    1
    35    29    32    1
    36    29    33    1
@<TRIPOS>MOLECULE
*****
 33 36 0 0 0
SMALL
GASTEIGER

@<TRIPOS>ATOM
      1 N           2.6038    1.3564   21.4689 N.pl3   1  UNL1       -0.2931
      2 C           2.4626    2.1864   20.2274 C.3     1  UNL1        0.0926
      3 C           1.1703    2.8914   19.9395 C.3     1  UNL1        0.0306
      4 C           0.0192    2.7665   20.8930 C.3     1  UNL1        0.0802
      5 C           0.1603    1.9365   22.1344 C.3     1  UNL1        0.0306
      6 C           1.4526    1.2315   22.4224 C.3     1  UNL1        0.0926
      7 C           3.6400   -4.0349   19.2453 C.3     1  UNL1        0.0379
      8 C           4.0948   -2.8656   20.0675 C.ar    1  UNL1        0.0052
      9 S           5.4075   -2.7487   20.7837 S.2     1  UNL1       -0.0725
     10 C           5.4407   -1.4188   21.4767 C.ar    1  UNL1        0.1145
     11 N           6.4806   -0.7587   22.3327 N.ar    1  UNL1       -0.2173
     12 C           6.2283    0.6064   22.9007 C.ar    1  UNL1        0.2005
     13 N           4.9360    1.3114   22.6128 N.ar    1  UNL1       -0.2090
     14 C           3.8961    0.6514   21.7568 C.ar    1  UNL1        0.1350
     15 C           4.1484   -0.7137   21.1887 C.ar    1  UNL1        0.0517
     16 C           3.3166   -1.6079   20.3178 C.ar    1  UNL1       -0.0151
     17 C           1.9470   -1.2987   19.7899 C.3     1  UNL1        0.0314
     18 C          -1.2731    3.4715   20.6051 C.2     1  UNL1        0.2257
     19 O          -1.2936    4.9623   20.4402 O.2     1  UNL1       -0.2748
     20 N          -2.5449    2.6858   20.4820 N.am    1  UNL1       -0.2839
     21 H          -2.5314    1.7074   20.5902 H       1  UNL1        0.1549
     22 C          -3.8372    3.3909   20.1941 C.ar    1  UNL1        0.0504
     23 C          -4.8265    3.6237   21.2973 C.ar    1  UNL1        0.0160
     24 C          -6.1188    4.3287   21.0094 C.ar    1  UNL1        0.0212
     25 C          -6.4218    4.8010   19.6182 C.ar    1  UNL1        0.1218
     26 C          -5.4324    4.5682   18.5151 C.ar    1  UNL1        0.0212
     27 C          -4.1401    3.8631   18.8030 C.ar    1  UNL1        0.0160
     28 S          -7.7140    5.5060   19.3303 S.O2    1  UNL1        0.0572
     29 N          -9.0063    6.2111   19.0424 N.3     1  UNL1       -0.2035
     30 O          -7.8171    5.9060   20.7723 O.2     1  UNL1       -0.1532
     31 O          -7.6110    5.1060   17.8883 O.2     1  UNL1       -0.1532
     32 H          -9.3653    6.6273   19.9016 H       1  UNL1        0.1442
     33 H          -9.6852    5.5419   18.6793 H       1  UNL1        0.1442
@<TRIPOS>BOND
     1     7     8    1
     2     8     9   ar
     3     9    10   ar
     4    10    11   ar
     5    11    12   ar
     6    12    13   ar
     7    13    14   ar
     8    14     1    1
     9     1     2    1
    10     2     3    1
    11     3     4    1
    12     4    18    1
    13    18    19    2
    14    18    20   am
    15    20    22    1
    16    22    23   ar
    17    23    24   ar
    18    24    25   ar
    19    25    28    1
    20    28    29    1
    21    28    30    2
    22    28    31    2
    23    25    26   ar
    24    26    27   ar
    25     4     5    1
    26     5     6    1
    27    14    15   ar
    28    15    16   ar
    29    16    17    1
    30    16     8   ar
    31    15    10   ar
    32     6     1    1
    33    27    22   ar
    34    20    21    1
    35    29    32    1
    36    29    33    1
