@<TRIPOS>MOLECULE
*****
 31 34 0 0 0
SMALL
GASTEIGER

@<TRIPOS>ATOM
      1 C          -7.6629  -18.8531   20.9489 C.2     1  UNL1        0.2250
      2 O          -7.7933  -17.3836   21.2199 O.2     1  UNL1       -0.2750
      3 N          -8.7024  -19.5599   20.1303 N.am    1  UNL1       -0.3026
      4 H          -8.6168  -20.5244   19.9524 H       1  UNL1        0.1495
      5 C          -6.4932  -19.6158   21.4964 C.3     1  UNL1        0.1154
      6 C          -5.3300  -20.4863   20.1112 C.3     1  UNL1        0.0335
      7 C          -5.1062  -19.3097   21.0143 C.3     1  UNL1        0.1377
      8 C          -3.7660  -19.2496   20.3433 C.3     1  UNL1        0.0613
      9 C          -3.0037  -18.0999   20.9325 C.3     1  UNL1        0.1290
     10 C          -2.3671  -16.9240   21.6123 C.3     1  UNL1        0.0305
     11 C          -0.9794  -16.4993   21.2330 C.3     1  UNL1        0.0025
     12 C          -0.2283  -17.2504   20.1739 C.3     1  UNL1        0.0002
     13 C          -0.8650  -18.4263   19.4941 C.3     1  UNL1        0.0025
     14 C          -2.2527  -18.8510   19.8734 C.3     1  UNL1        0.0305
     15 O          -3.8729  -17.4494   21.9677 O.3     1  UNL1       -0.2256
     16 O          -5.1723  -18.1972   22.0182 O.3     1  UNL1       -0.2251
     17 C          -9.8722  -18.7972   19.5827 C.3     1  UNL1        0.1106
     18 C         -11.0623  -18.5224   20.4534 C.3     1  UNL1        0.1086
     19 N         -10.9060  -17.7047   21.7011 N.pl3   1  UNL1       -0.3312
     20 H         -11.0481  -16.7309   21.6725 H       1  UNL1        0.1469
     21 C         -10.5331  -18.3706   22.9925 C.ar    1  UNL1        0.0477
     22 C         -10.8111  -19.8312   23.1907 C.ar    1  UNL1        0.0350
     23 C         -10.4382  -20.4970   24.4821 C.ar    1  UNL1        0.1001
     24 N          -9.7875  -19.7023   25.5752 N.ar    1  UNL1       -0.2437
     25 C          -9.5095  -18.2416   25.3769 C.ar    1  UNL1        0.0833
     26 C          -8.8588  -17.4469   26.4700 C.ar    1  UNL1        0.0305
     27 C          -8.5809  -15.9863   26.2718 C.ar    1  UNL1        0.0592
     28 CL         -7.9301  -15.1915   27.3649 Cl      1  UNL1       -0.0822
     29 C          -8.9537  -15.3204   24.9804 C.ar    1  UNL1        0.0115
     30 C          -9.6045  -16.1151   23.8873 C.ar    1  UNL1        0.0036
     31 C          -9.8824  -17.5758   24.0856 C.ar    1  UNL1        0.0309
@<TRIPOS>BOND
     1     6     7    1
     2     7     5    1
     3     5     1    1
     4     1     2    2
     5     1     3   am
     6     3    17    1
     7    17    18    1
     8    18    19    1
     9    19    21    1
    10    21    22   ar
    11    22    23   ar
    12    23    24   ar
    13    24    25   ar
    14    25    26   ar
    15    26    27   ar
    16    27    28    1
    17    27    29   ar
    18    29    30   ar
    19    30    31   ar
    20     7     8    1
    21     8     9    1
    22     9    10    1
    23    10    11    1
    24    11    12    1
    25    12    13    1
    26    13    14    1
    27     9    15    1
    28    15    16    1
    29    16     7    1
    30    31    21   ar
    31    14     9    1
    32    31    25   ar
    33     3     4    1
    34    19    20    1
@<TRIPOS>MOLECULE
*****
 31 34 0 0 0
SMALL
GASTEIGER

@<TRIPOS>ATOM
      1 C          -8.0603  -19.6310   21.8380 C.2     1  UNL1        0.2250
      2 O          -8.1738  -18.5939   20.7603 O.2     1  UNL1       -0.2750
      3 N          -9.2871  -20.0905   22.5689 N.am    1  UNL1       -0.3026
      4 H          -9.2126  -20.7711   23.2762 H       1  UNL1        0.1495
      5 C          -6.7202  -20.2087   22.1849 C.3     1  UNL1        0.1154
      6 C          -5.8247  -20.7874   20.4842 C.3     1  UNL1        0.0335
      7 C          -5.4882  -19.7198   21.4827 C.3     1  UNL1        0.1377
      8 C          -4.3266  -19.4542   20.5716 C.3     1  UNL1        0.0613
      9 C          -3.5297  -18.3246   21.1539 C.3     1  UNL1        0.1290
     10 C          -2.8378  -17.1920   21.8529 C.3     1  UNL1        0.0305
     11 C          -1.5907  -16.5990   21.2672 C.3     1  UNL1        0.0025
     12 C          -1.0355  -17.1386   19.9825 C.3     1  UNL1        0.0002
     13 C          -1.7274  -18.2712   19.2835 C.3     1  UNL1        0.0025
     14 C          -2.9745  -18.8642   19.8692 C.3     1  UNL1        0.0305
     15 O          -4.1989  -17.8921   22.4248 O.3     1  UNL1       -0.2256
     16 O          -5.4094  -18.7545   22.6280 O.3     1  UNL1       -0.2251
     17 C         -10.6272  -19.5128   22.2220 C.3     1  UNL1        0.1106
     18 C         -11.4644  -18.8681   23.2866 C.3     1  UNL1        0.1086
     19 N         -11.4151  -17.3817   23.4820 N.pl3   1  UNL1       -0.3312
     20 H         -12.1105  -16.9319   24.0144 H       1  UNL1        0.1469
     21 C         -10.3064  -16.5807   22.8663 C.ar    1  UNL1        0.0477
     22 C         -10.4114  -16.1268   21.4405 C.ar    1  UNL1        0.0350
     23 C          -9.3027  -15.3258   20.8249 C.ar    1  UNL1        0.1001
     24 N          -8.0890  -14.9786   21.6350 N.ar    1  UNL1       -0.2437
     25 C          -7.9840  -15.4324   23.0608 C.ar    1  UNL1        0.0833
     26 C          -6.7703  -15.0852   23.8710 C.ar    1  UNL1        0.0305
     27 C          -6.6653  -15.5390   25.2968 C.ar    1  UNL1        0.0592
     28 CL         -5.4516  -15.1918   26.1069 Cl      1  UNL1       -0.0822
     29 C          -7.7740  -16.3401   25.9125 C.ar    1  UNL1        0.0115
     30 C          -8.9877  -16.6873   25.1024 C.ar    1  UNL1        0.0036
     31 C          -9.0927  -16.2334   23.6765 C.ar    1  UNL1        0.0309
@<TRIPOS>BOND
     1     6     7    1
     2     7     5    1
     3     5     1    1
     4     1     2    2
     5     1     3   am
     6     3    17    1
     7    17    18    1
     8    18    19    1
     9    19    21    1
    10    21    22   ar
    11    22    23   ar
    12    23    24   ar
    13    24    25   ar
    14    25    26   ar
    15    26    27   ar
    16    27    28    1
    17    27    29   ar
    18    29    30   ar
    19    30    31   ar
    20     7     8    1
    21     8     9    1
    22     9    10    1
    23    10    11    1
    24    11    12    1
    25    12    13    1
    26    13    14    1
    27     9    15    1
    28    15    16    1
    29    16     7    1
    30    31    21   ar
    31    14     9    1
    32    31    25   ar
    33     3     4    1
    34    19    20    1
@<TRIPOS>MOLECULE
*****
 31 34 0 0 0
SMALL
GASTEIGER

@<TRIPOS>ATOM
      1 C          -5.2635  -19.3589   20.7051 C.2     1  UNL1        0.2250
      2 O          -4.7057  -18.4957   19.6126 O.2     1  UNL1       -0.2750
      3 N          -4.6713  -19.3022   22.0821 N.am    1  UNL1       -0.3026
      4 H          -5.0374  -19.8688   22.7992 H       1  UNL1        0.1495
      5 C          -6.4135  -20.2790   20.4206 C.3     1  UNL1        0.1154
      6 C          -8.0241  -19.7161   19.3630 C.3     1  UNL1        0.0335
      7 C          -7.8025  -19.8940   20.8358 C.3     1  UNL1        0.1377
      8 C          -9.2379  -19.4718   20.9431 C.3     1  UNL1        0.0613
      9 C          -9.6129  -19.4692   22.3954 C.3     1  UNL1        0.1290
     10 C          -9.8409  -19.5129   23.8774 C.3     1  UNL1        0.0305
     11 C         -11.1837  -19.1529   24.4406 C.3     1  UNL1        0.0025
     12 C         -12.2986  -18.7492   23.5218 C.3     1  UNL1        0.0002
     13 C         -12.0706  -18.7055   22.0399 C.3     1  UNL1        0.0025
     14 C         -10.7278  -19.0654   21.4767 C.3     1  UNL1        0.0305
     15 O          -8.4094  -19.8898   23.1858 O.3     1  UNL1       -0.2256
     16 O          -7.2904  -20.1523   22.2218 O.3     1  UNL1       -0.2251
     17 C          -3.5213  -18.3821   22.3666 C.3     1  UNL1        0.1106
     18 C          -3.6031  -17.4092   23.5053 C.3     1  UNL1        0.1086
     19 N          -4.4845  -16.2004   23.3972 N.pl3   1  UNL1       -0.3312
     20 H          -4.3605  -15.5655   22.6551 H       1  UNL1        0.1469
     21 C          -5.5551  -15.9589   24.4199 C.ar    1  UNL1        0.0477
     22 C          -5.1858  -15.7644   25.8606 C.ar    1  UNL1        0.0350
     23 C          -6.2563  -15.5229   26.8832 C.ar    1  UNL1        0.1001
     24 N          -7.6960  -15.4759   26.4650 N.ar    1  UNL1       -0.2437
     25 C          -8.0653  -15.6705   25.0243 C.ar    1  UNL1        0.0833
     26 C          -9.5051  -15.6235   24.6061 C.ar    1  UNL1        0.0305
     27 C          -9.8744  -15.8180   23.1654 C.ar    1  UNL1        0.0592
     28 CL        -11.3141  -15.7710   22.7472 Cl      1  UNL1       -0.0822
     29 C          -8.8039  -16.0595   22.1427 C.ar    1  UNL1        0.0115
     30 C          -7.3641  -16.1065   22.5609 C.ar    1  UNL1        0.0036
     31 C          -6.9948  -15.9119   24.0017 C.ar    1  UNL1        0.0309
@<TRIPOS>BOND
     1     6     7    1
     2     7     5    1
     3     5     1    1
     4     1     2    2
     5     1     3   am
     6     3    17    1
     7    17    18    1
     8    18    19    1
     9    19    21    1
    10    21    22   ar
    11    22    23   ar
    12    23    24   ar
    13    24    25   ar
    14    25    26   ar
    15    26    27   ar
    16    27    28    1
    17    27    29   ar
    18    29    30   ar
    19    30    31   ar
    20     7     8    1
    21     8     9    1
    22     9    10    1
    23    10    11    1
    24    11    12    1
    25    12    13    1
    26    13    14    1
    27     9    15    1
    28    15    16    1
    29    16     7    1
    30    31    21   ar
    31    14     9    1
    32    31    25   ar
    33     3     4    1
    34    19    20    1
@<TRIPOS>MOLECULE
*****
 31 34 0 0 0
SMALL
GASTEIGER

@<TRIPOS>ATOM
      1 C          -5.5001  -15.6837   24.9650 C.2     1  UNL1        0.2250
      2 O          -6.3023  -14.5476   24.4031 O.2     1  UNL1       -0.2750
      3 N          -5.8128  -16.2193   26.3308 N.am    1  UNL1       -0.3026
      4 H          -5.2863  -16.9649   26.6996 H       1  UNL1        0.1495
      5 C          -4.3851  -16.2842   24.1611 C.3     1  UNL1        0.1154
      6 C          -3.2619  -17.8315   23.5499 C.3     1  UNL1        0.0335
      7 C          -4.6654  -17.4178   23.2197 C.3     1  UNL1        0.1377
      8 C          -4.6522  -18.6379   22.3472 C.3     1  UNL1        0.0613
      9 C          -5.9890  -18.7412   21.6746 C.3     1  UNL1        0.1290
     10 C          -7.3652  -18.7133   21.0787 C.3     1  UNL1        0.0305
     11 C          -7.7884  -19.7847   20.1180 C.3     1  UNL1        0.0025
     12 C          -6.8353  -20.8840   19.7532 C.3     1  UNL1        0.0002
     13 C          -5.4590  -20.9119   20.3491 C.3     1  UNL1        0.0025
     14 C          -5.0358  -19.8405   21.3098 C.3     1  UNL1        0.0305
     15 O          -6.8283  -17.5849   22.1313 O.3     1  UNL1       -0.2256
     16 O          -6.0102  -16.7670   23.0863 O.3     1  UNL1       -0.2251
     17 C          -6.9278  -15.6188   27.1347 C.3     1  UNL1        0.1106
     18 C          -8.3517  -15.9746   26.8250 C.3     1  UNL1        0.1086
     19 N          -8.8258  -16.0005   25.4021 N.pl3   1  UNL1       -0.3312
     20 H          -8.7251  -15.2020   24.8351 H       1  UNL1        0.1469
     21 C          -9.4533  -17.2430   24.8431 C.ar    1  UNL1        0.0477
     22 C          -9.5545  -18.4777   25.6888 C.ar    1  UNL1        0.0350
     23 C         -10.1820  -19.7202   25.1298 C.ar    1  UNL1        0.1001
     24 N         -10.7083  -19.7280   23.7252 N.ar    1  UNL1       -0.2437
     25 C         -10.6071  -18.4933   22.8796 C.ar    1  UNL1        0.0833
     26 C         -11.1334  -18.5010   21.4750 C.ar    1  UNL1        0.0305
     27 C         -11.0322  -17.2663   20.6293 C.ar    1  UNL1        0.0592
     28 CL        -11.5585  -17.2740   19.2247 Cl      1  UNL1       -0.0822
     29 C         -10.4047  -16.0237   21.1883 C.ar    1  UNL1        0.0115
     30 C          -9.8784  -16.0160   22.5929 C.ar    1  UNL1        0.0036
     31 C          -9.9796  -17.2508   23.4385 C.ar    1  UNL1        0.0309
@<TRIPOS>BOND
     1     6     7    1
     2     7     5    1
     3     5     1    1
     4     1     2    2
     5     1     3   am
     6     3    17    1
     7    17    18    1
     8    18    19    1
     9    19    21    1
    10    21    22   ar
    11    22    23   ar
    12    23    24   ar
    13    24    25   ar
    14    25    26   ar
    15    26    27   ar
    16    27    28    1
    17    27    29   ar
    18    29    30   ar
    19    30    31   ar
    20     7     8    1
    21     8     9    1
    22     9    10    1
    23    10    11    1
    24    11    12    1
    25    12    13    1
    26    13    14    1
    27     9    15    1
    28    15    16    1
    29    16     7    1
    30    31    21   ar
    31    14     9    1
    32    31    25   ar
    33     3     4    1
    34    19    20    1
@<TRIPOS>MOLECULE
*****
 31 34 0 0 0
SMALL
GASTEIGER

@<TRIPOS>ATOM
      1 C          -5.4148  -19.6686   20.5568 C.2     1  UNL1        0.2250
      2 O          -5.6383  -21.1432   20.7160 O.2     1  UNL1       -0.2750
      3 N          -6.3146  -18.8657   19.6647 N.am    1  UNL1       -0.3026
      4 H          -6.1679  -17.8978   19.5602 H       1  UNL1        0.1495
      5 C          -4.2916  -18.9968   21.2896 C.3     1  UNL1        0.1154
      6 C          -3.1184  -18.1799   22.6989 C.3     1  UNL1        0.0335
      7 C          -4.5892  -18.0655   22.4272 C.3     1  UNL1        0.1377
      8 C          -4.5792  -17.1580   23.6215 C.3     1  UNL1        0.0613
      9 C          -5.9817  -16.6775   23.8501 C.3     1  UNL1        0.1290
     10 C          -7.4251  -16.2829   23.9540 C.3     1  UNL1        0.0305
     11 C          -7.8724  -15.3549   25.0443 C.3     1  UNL1        0.0025
     12 C          -6.8763  -14.8214   26.0307 C.3     1  UNL1        0.0002
     13 C          -5.4328  -15.2159   25.9268 C.3     1  UNL1        0.0025
     14 C          -4.9855  -16.1440   24.8365 C.3     1  UNL1        0.0305
     15 O          -6.8584  -17.2878   22.7971 O.3     1  UNL1       -0.2256
     16 O          -5.9977  -18.1457   21.9176 O.3     1  UNL1       -0.2251
     17 C          -7.4378  -19.5375   18.9319 C.3     1  UNL1        0.1106
     18 C          -8.8258  -19.5110   19.4999 C.3     1  UNL1        0.1086
     19 N          -9.1186  -18.6998   20.7272 N.pl3   1  UNL1       -0.3312
     20 H          -8.4708  -18.6768   21.4682 H       1  UNL1        0.1469
     21 C         -10.3985  -17.9237   20.8256 C.ar    1  UNL1        0.0477
     22 C         -10.7950  -16.9883   19.7221 C.ar    1  UNL1        0.0350
     23 C         -12.0749  -16.2122   19.8205 C.ar    1  UNL1        0.1001
     24 N         -12.9582  -16.3716   21.0223 N.ar    1  UNL1       -0.2437
     25 C         -12.5616  -17.3070   22.1258 C.ar    1  UNL1        0.0833
     26 C         -13.4449  -17.4664   23.3276 C.ar    1  UNL1        0.0305
     27 C         -13.0484  -18.4019   24.4311 C.ar    1  UNL1        0.0592
     28 CL        -13.9316  -18.5612   25.6329 Cl      1  UNL1       -0.0822
     29 C         -11.7685  -19.1780   24.3327 C.ar    1  UNL1        0.0115
     30 C         -10.8852  -19.0186   23.1309 C.ar    1  UNL1        0.0036
     31 C         -11.2818  -18.0831   22.0274 C.ar    1  UNL1        0.0309
@<TRIPOS>BOND
     1     6     7    1
     2     7     5    1
     3     5     1    1
     4     1     2    2
     5     1     3   am
     6     3    17    1
     7    17    18    1
     8    18    19    1
     9    19    21    1
    10    21    22   ar
    11    22    23   ar
    12    23    24   ar
    13    24    25   ar
    14    25    26   ar
    15    26    27   ar
    16    27    28    1
    17    27    29   ar
    18    29    30   ar
    19    30    31   ar
    20     7     8    1
    21     8     9    1
    22     9    10    1
    23    10    11    1
    24    11    12    1
    25    12    13    1
    26    13    14    1
    27     9    15    1
    28    15    16    1
    29    16     7    1
    30    31    21   ar
    31    14     9    1
    32    31    25   ar
    33     3     4    1
    34    19    20    1
@<TRIPOS>MOLECULE
*****
 31 34 0 0 0
SMALL
GASTEIGER

@<TRIPOS>ATOM
      1 C          -5.5771  -15.6493   24.1478 C.2     1  UNL1        0.2250
      2 O          -5.9102  -14.6938   23.0406 O.2     1  UNL1       -0.2750
      3 N          -6.5353  -15.8422   25.2856 N.am    1  UNL1       -0.3026
      4 H          -6.3167  -16.4694   26.0123 H       1  UNL1        0.1495
      5 C          -4.2858  -16.4120   24.1171 C.3     1  UNL1        0.1154
      6 C          -2.7515  -16.5732   22.8329 C.3     1  UNL1        0.0335
      7 C          -4.0090  -17.3736   22.9997 C.3     1  UNL1        0.1377
      8 C          -3.4693  -18.1679   21.8474 C.3     1  UNL1        0.0613
      9 C          -4.4512  -19.2582   21.5357 C.3     1  UNL1        0.1290
     10 C          -5.5203  -20.2922   21.3417 C.3     1  UNL1        0.0305
     11 C          -5.3803  -21.3221   20.2602 C.3     1  UNL1        0.0025
     12 C          -4.1711  -21.3180   19.3727 C.3     1  UNL1        0.0002
     13 C          -3.1019  -20.2839   19.5667 C.3     1  UNL1        0.0025
     14 C          -3.2419  -19.2540   20.6481 C.3     1  UNL1        0.0305
     15 O          -5.5978  -19.1378   22.4953 O.3     1  UNL1       -0.2256
     16 O          -5.3245  -17.9730   23.4002 O.3     1  UNL1       -0.2251
     17 C          -7.8266  -15.0796   25.3162 C.3     1  UNL1        0.1106
     18 C          -9.0682  -15.6831   24.7296 C.3     1  UNL1        0.1086
     19 N          -8.9602  -16.7387   23.6694 N.pl3   1  UNL1       -0.3312
     20 H          -8.1467  -17.2894   23.6041 H       1  UNL1        0.1469
     21 C         -10.0917  -16.9554   22.7088 C.ar    1  UNL1        0.0477
     22 C         -11.4006  -16.2543   22.9212 C.ar    1  UNL1        0.0350
     23 C         -12.5321  -16.4710   21.9606 C.ar    1  UNL1        0.1001
     24 N         -12.3546  -17.3887   20.7875 N.ar    1  UNL1       -0.2437
     25 C         -11.0457  -18.0898   20.5750 C.ar    1  UNL1        0.0833
     26 C         -10.8683  -19.0076   19.4019 C.ar    1  UNL1        0.0305
     27 C          -9.5594  -19.7087   19.1894 C.ar    1  UNL1        0.0592
     28 CL         -9.3819  -20.6265   18.0163 Cl      1  UNL1       -0.0822
     29 C          -8.4278  -19.4921   20.1501 C.ar    1  UNL1        0.0115
     30 C          -8.6053  -18.5743   21.3232 C.ar    1  UNL1        0.0036
     31 C          -9.9143  -17.8732   21.5357 C.ar    1  UNL1        0.0309
@<TRIPOS>BOND
     1     6     7    1
     2     7     5    1
     3     5     1    1
     4     1     2    2
     5     1     3   am
     6     3    17    1
     7    17    18    1
     8    18    19    1
     9    19    21    1
    10    21    22   ar
    11    22    23   ar
    12    23    24   ar
    13    24    25   ar
    14    25    26   ar
    15    26    27   ar
    16    27    28    1
    17    27    29   ar
    18    29    30   ar
    19    30    31   ar
    20     7     8    1
    21     8     9    1
    22     9    10    1
    23    10    11    1
    24    11    12    1
    25    12    13    1
    26    13    14    1
    27     9    15    1
    28    15    16    1
    29    16     7    1
    30    31    21   ar
    31    14     9    1
    32    31    25   ar
    33     3     4    1
    34    19    20    1
@<TRIPOS>MOLECULE
*****
 31 34 0 0 0
SMALL
GASTEIGER

@<TRIPOS>ATOM
      1 C          -4.6805  -15.8019   24.6077 C.2     1  UNL1        0.2250
      2 O          -5.0793  -14.6652   23.7139 O.2     1  UNL1       -0.2750
      3 N          -5.3359  -15.9689   25.9466 N.am    1  UNL1       -0.3026
      4 H          -5.0742  -16.7149   26.5332 H       1  UNL1        0.1495
      5 C          -3.6262  -16.7717   24.1627 C.3     1  UNL1        0.1154
      6 C          -2.4763  -18.0882   23.1758 C.3     1  UNL1        0.0335
      7 C          -3.9488  -17.8067   23.1261 C.3     1  UNL1        0.1377
      8 C          -3.9635  -18.9007   22.0999 C.3     1  UNL1        0.0613
      9 C          -5.3777  -19.0789   21.6327 C.3     1  UNL1        0.1290
     10 C          -6.8306  -19.1420   21.2649 C.3     1  UNL1        0.0305
     11 C          -7.3026  -20.1305   20.2402 C.3     1  UNL1        0.0025
     12 C          -6.3218  -21.0558   19.5832 C.3     1  UNL1        0.0002
     13 C          -4.8690  -20.9928   19.9510 C.3     1  UNL1        0.0025
     14 C          -4.3969  -20.0043   20.9757 C.3     1  UNL1        0.0305
     15 O          -6.2371  -18.0951   22.3701 O.3     1  UNL1       -0.2256
     16 O          -5.3539  -17.3089   23.2931 O.3     1  UNL1       -0.2251
     17 C          -6.3902  -14.9991   26.3917 C.3     1  UNL1        0.1106
     18 C          -7.7786  -15.4839   26.6869 C.3     1  UNL1        0.1086
     19 N          -8.3595  -16.6206   25.8992 N.pl3   1  UNL1       -0.3312
     20 H          -8.5655  -17.4739   26.3450 H       1  UNL1        0.1469
     21 C          -8.6264  -16.4573   24.4321 C.ar    1  UNL1        0.0477
     22 C          -8.1582  -15.2245   23.7173 C.ar    1  UNL1        0.0350
     23 C          -8.4251  -15.0612   22.2504 C.ar    1  UNL1        0.1001
     24 N          -9.1602  -16.1307   21.4982 N.ar    1  UNL1       -0.2437
     25 C          -9.6283  -17.3636   22.2129 C.ar    1  UNL1        0.0833
     26 C         -10.3634  -18.4331   21.4608 C.ar    1  UNL1        0.0305
     27 C         -10.8315  -19.6659   22.1755 C.ar    1  UNL1        0.0592
     28 CL        -11.5666  -20.7354   21.4234 Cl      1  UNL1       -0.0822
     29 C         -10.5646  -19.8292   23.6426 C.ar    1  UNL1        0.0115
     30 C          -9.8296  -18.7597   24.3948 C.ar    1  UNL1        0.0036
     31 C          -9.3614  -17.5268   23.6799 C.ar    1  UNL1        0.0309
@<TRIPOS>BOND
     1     6     7    1
     2     7     5    1
     3     5     1    1
     4     1     2    2
     5     1     3   am
     6     3    17    1
     7    17    18    1
     8    18    19    1
     9    19    21    1
    10    21    22   ar
    11    22    23   ar
    12    23    24   ar
    13    24    25   ar
    14    25    26   ar
    15    26    27   ar
    16    27    28    1
    17    27    29   ar
    18    29    30   ar
    19    30    31   ar
    20     7     8    1
    21     8     9    1
    22     9    10    1
    23    10    11    1
    24    11    12    1
    25    12    13    1
    26    13    14    1
    27     9    15    1
    28    15    16    1
    29    16     7    1
    30    31    21   ar
    31    14     9    1
    32    31    25   ar
    33     3     4    1
    34    19    20    1
@<TRIPOS>MOLECULE
*****
 31 34 0 0 0
SMALL
GASTEIGER

@<TRIPOS>ATOM
      1 C          -6.6707  -19.6086   21.4042 C.2     1  UNL1        0.2250
      2 O          -6.7338  -20.9993   21.9625 O.2     1  UNL1       -0.2750
      3 N          -7.3753  -19.2829   20.1206 N.am    1  UNL1       -0.3026
      4 H          -7.3339  -18.3701   19.7542 H       1  UNL1        0.1495
      5 C          -5.9031  -18.5434   22.1295 C.3     1  UNL1        0.1154
      6 C          -4.2979  -18.1448   23.2670 C.3     1  UNL1        0.0335
      7 C          -4.4663  -18.2869   21.7833 C.3     1  UNL1        0.1377
      8 C          -2.9943  -18.0007   21.7473 C.3     1  UNL1        0.0613
      9 C          -2.5534  -18.0196   20.3137 C.3     1  UNL1        0.1290
     10 C          -2.2617  -18.0704   18.8432 C.3     1  UNL1        0.0305
     11 C          -0.8663  -17.8331   18.3467 C.3     1  UNL1        0.0025
     12 C           0.2374  -17.5450   19.3208 C.3     1  UNL1        0.0002
     13 C          -0.0543  -17.4941   20.7913 C.3     1  UNL1        0.0025
     14 C          -1.4497  -17.7314   21.2878 C.3     1  UNL1        0.0305
     15 O          -3.7529  -18.3174   19.4636 O.3     1  UNL1       -0.2256
     16 O          -4.9352  -18.4826   20.3720 O.3     1  UNL1       -0.2251
     17 C          -8.1430  -20.3482   19.3953 C.3     1  UNL1        0.1106
     18 C          -9.5025  -20.0455   18.8387 C.3     1  UNL1        0.1086
     19 N         -10.6523  -19.7864   19.7666 N.pl3   1  UNL1       -0.3312
     20 H         -11.3223  -20.4893   19.9284 H       1  UNL1        0.1469
     21 C         -10.7810  -18.4563   20.4481 C.ar    1  UNL1        0.0477
     22 C         -11.2680  -17.2638   19.6794 C.ar    1  UNL1        0.0350
     23 C         -11.3967  -15.9338   20.3609 C.ar    1  UNL1        0.1001
     24 N         -11.0385  -15.7962   21.8110 N.ar    1  UNL1       -0.2437
     25 C         -10.5515  -16.9887   22.5796 C.ar    1  UNL1        0.0833
     26 C         -10.1933  -16.8512   24.0297 C.ar    1  UNL1        0.0305
     27 C          -9.7063  -18.0436   24.7983 C.ar    1  UNL1        0.0592
     28 CL         -9.3480  -17.9061   26.2484 Cl      1  UNL1       -0.0822
     29 C          -9.5775  -19.3737   24.1169 C.ar    1  UNL1        0.0115
     30 C          -9.9358  -19.5113   22.6668 C.ar    1  UNL1        0.0036
     31 C         -10.4228  -18.3187   21.8981 C.ar    1  UNL1        0.0309
@<TRIPOS>BOND
     1     6     7    1
     2     7     5    1
     3     5     1    1
     4     1     2    2
     5     1     3   am
     6     3    17    1
     7    17    18    1
     8    18    19    1
     9    19    21    1
    10    21    22   ar
    11    22    23   ar
    12    23    24   ar
    13    24    25   ar
    14    25    26   ar
    15    26    27   ar
    16    27    28    1
    17    27    29   ar
    18    29    30   ar
    19    30    31   ar
    20     7     8    1
    21     8     9    1
    22     9    10    1
    23    10    11    1
    24    11    12    1
    25    12    13    1
    26    13    14    1
    27     9    15    1
    28    15    16    1
    29    16     7    1
    30    31    21   ar
    31    14     9    1
    32    31    25   ar
    33     3     4    1
    34    19    20    1
@<TRIPOS>MOLECULE
*****
 31 34 0 0 0
SMALL
GASTEIGER

@<TRIPOS>ATOM
      1 C           5.6497   -2.6017   18.9215 C.2     1  UNL1        0.2250
      2 O           4.5274   -3.5951   18.9803 O.2     1  UNL1       -0.2750
      3 N           6.7934   -2.7042   19.8867 N.am    1  UNL1       -0.3026
      4 H           7.5300   -2.0521   19.8481 H       1  UNL1        0.1495
      5 C           5.6284   -1.5058   17.8975 C.3     1  UNL1        0.1154
      6 C           4.2134   -0.5882   16.8089 C.3     1  UNL1        0.0335
      7 C           4.8201   -0.2662   18.1423 C.3     1  UNL1        0.1377
      8 C           3.8849    0.9061   18.1083 C.3     1  UNL1        0.0613
      9 C           4.0827    1.6935   19.3696 C.3     1  UNL1        0.1290
     10 C           4.3889    2.3745   20.6706 C.3     1  UNL1        0.0305
     11 C           3.6577    3.6276   21.0516 C.3     1  UNL1        0.0025
     12 C           2.6203    4.1996   20.1316 C.3     1  UNL1        0.0002
     13 C           2.3141    3.5187   18.8306 C.3     1  UNL1        0.0025
     14 C           3.0453    2.2656   18.4496 C.3     1  UNL1        0.0305
     15 O           5.1401    1.0079   20.1832 O.3     1  UNL1       -0.2256
     16 O           5.5959   -0.2033   19.4246 O.3     1  UNL1       -0.2251
     17 C           6.8147   -3.8001   20.9107 C.3     1  UNL1        0.1106
     18 C           5.9422   -3.7069   22.1272 C.3     1  UNL1        0.1086
     19 N           4.5212   -3.2443   21.9974 N.pl3   1  UNL1       -0.3312
     20 H           3.9041   -3.7140   21.3909 H       1  UNL1        0.1469
     21 C           4.0404   -2.0661   22.7917 C.ar    1  UNL1        0.0477
     22 C           4.6030   -1.8020   24.1568 C.ar    1  UNL1        0.0350
     23 C           4.1223   -0.6238   24.9510 C.ar    1  UNL1        0.1001
     24 N           3.0790    0.2903   24.3800 N.ar    1  UNL1       -0.2437
     25 C           2.5164    0.0261   23.0148 C.ar    1  UNL1        0.0833
     26 C           1.4731    0.9402   22.4438 C.ar    1  UNL1        0.0305
     27 C           0.9106    0.6761   21.0787 C.ar    1  UNL1        0.0592
     28 CL         -0.1327    1.5902   20.5077 Cl      1  UNL1       -0.0822
     29 C           1.3913   -0.5021   20.2844 C.ar    1  UNL1        0.0115
     30 C           2.4346   -1.4162   20.8554 C.ar    1  UNL1        0.0036
     31 C           2.9971   -1.1520   22.2207 C.ar    1  UNL1        0.0309
@<TRIPOS>BOND
     1     6     7    1
     2     7     5    1
     3     5     1    1
     4     1     2    2
     5     1     3   am
     6     3    17    1
     7    17    18    1
     8    18    19    1
     9    19    21    1
    10    21    22   ar
    11    22    23   ar
    12    23    24   ar
    13    24    25   ar
    14    25    26   ar
    15    26    27   ar
    16    27    28    1
    17    27    29   ar
    18    29    30   ar
    19    30    31   ar
    20     7     8    1
    21     8     9    1
    22     9    10    1
    23    10    11    1
    24    11    12    1
    25    12    13    1
    26    13    14    1
    27     9    15    1
    28    15    16    1
    29    16     7    1
    30    31    21   ar
    31    14     9    1
    32    31    25   ar
    33     3     4    1
    34    19    20    1
