@<TRIPOS>MOLECULE
*****
 46 51 0 0 0
SMALL
GASTEIGER

@<TRIPOS>ATOM
      1 C          -2.7420    4.4385   25.0375 C.ar    1  UNL1        0.0500
      2 C          -1.9870    3.8331   26.1835 C.ar    1  UNL1        0.0146
      3 C          -0.8234    2.9244   25.9185 C.ar    1  UNL1        0.0025
      4 C          -0.4149    2.6211   24.5074 C.ar    1  UNL1        0.0043
      5 C          -1.1699    3.2265   23.3614 C.ar    1  UNL1        0.0506
      6 C          -2.3335    4.1352   23.6264 C.ar    1  UNL1       -0.0038
      7 C          -3.0885    4.7406   22.4804 C.3     1  UNL1        0.0325
      8 C          -0.0684    2.3190   27.0645 C.ar    1  UNL1        0.0137
      9 C          -0.5452    1.0388   27.6840 C.ar    1  UNL1        0.0040
     10 C           0.2098    0.4334   28.8300 C.ar    1  UNL1        0.0343
     11 C           1.4417    1.1081   29.3566 C.ar    1  UNL1        0.1313
     12 N           1.9186    2.3883   28.7371 N.ar    1  UNL1       -0.2350
     13 C           1.1635    2.9937   27.5910 C.ar    1  UNL1        0.0607
     14 C           1.6403    4.2739   26.9715 C.3     1  UNL1        0.0521
     15 N           2.1967    0.5027   30.5026 N.pl3   1  UNL1       -0.2904
     16 C           2.8239   -0.8520   30.3554 C.3     1  UNL1        0.1095
     17 C           3.5789   -1.4574   31.5014 C.3     1  UNL1        0.0939
     18 N           3.7068   -0.7082   32.7947 N.3     1  UNL1       -0.2698
     19 C           3.0796    0.6464   32.9419 C.3     1  UNL1        0.0939
     20 C           2.3246    1.2518   31.7958 C.3     1  UNL1        0.1095
     21 C           4.4618   -1.3137   33.9407 C.3     1  UNL1        0.0721
     22 C           4.8211   -0.4729   35.1298 C.3     1  UNL1        0.0160
     23 C           4.4650    0.1054   36.4672 C.3     1  UNL1        0.0014
     24 C           5.7997    0.4051   35.8519 C.3     1  UNL1        0.0014
     25 C          -0.7613    2.9232   21.9504 C.2     1  UNL1        0.2456
     26 O          -1.8050    2.6275   20.9144 O.2     1  UNL1       -0.2702
     27 N           0.6910    2.9155   21.5752 N.am    1  UNL1       -0.3001
     28 H           1.3760    3.1096   22.2552 H       1  UNL1        0.1498
     29 C           1.0996    2.6122   20.1642 C.3     1  UNL1        0.1029
     30 C           1.8552    1.3535   19.8563 C.3     1  UNL1        0.1164
     31 C           3.2128    1.4295   19.2232 C.2     1  UNL1       -0.0330
     32 C           3.8150    2.7643   18.8980 C.3     1  UNL1        0.0269
     33 C           3.9684    0.1708   18.9153 C.2     1  UNL1        0.0042
     34 C           3.3662   -1.1640   19.2405 C.2     1  UNL1        0.0508
     35 C           4.1217   -2.4227   18.9326 C.3     1  UNL1        0.0493
     36 N           2.0084   -1.2400   19.8736 N.am    1  UNL1       -0.1833
     37 C           1.2530    0.0187   20.1815 C.2     1  UNL1        0.2503
     38 O          -0.1048   -0.0573   20.8146 O.2     1  UNL1       -0.2726
     39 N          -3.9057    5.3472   25.3025 N.am    1  UNL1       -0.2590
     40 C          -5.2908    4.7811   25.4073 C.2     1  UNL1        0.2288
     41 O          -5.5122    3.3062   25.2472 O.2     1  UNL1       -0.2745
     42 C          -6.4544    5.6898   25.6723 C.3     1  UNL1        0.0771
     43 C          -7.6989    6.3792   25.1969 C.3     1  UNL1        0.0096
     44 C          -7.2254    6.5745   26.6067 C.3     1  UNL1        0.0096
     45 C          -3.2744    7.3789   26.7937 C.3     1  UNL1        0.0237
     46 C          -3.6842    6.8221   25.4626 C.3     1  UNL1        0.0982
@<TRIPOS>BOND
     1    45    46    1
     2    46    39    1
     3    39    40   am
     4    40    41    2
     5    40    42    1
     6    42    43    1
     7    43    44    1
     8    39     1    1
     9     1     2   ar
    10     2     3   ar
    11     3     8    1
    12     8     9   ar
    13     9    10   ar
    14    10    11   ar
    15    11    15    1
    16    15    16    1
    17    16    17    1
    18    17    18    1
    19    18    21    1
    20    21    22    1
    21    22    23    1
    22    23    24    1
    23    18    19    1
    24    19    20    1
    25    11    12   ar
    26    12    13   ar
    27    13    14    1
    28     3     4   ar
    29     4     5   ar
    30     5    25    1
    31    25    26    2
    32    25    27   am
    33    27    29    1
    34    29    30    1
    35    30    31    1
    36    31    32    1
    37    31    33    2
    38    33    34    1
    39    34    35    1
    40    34    36    2
    41    36    37    1
    42    37    38    2
    43     5     6   ar
    44     6     7    1
    45    44    42    1
    46     6     1   ar
    47    13     8   ar
    48    37    30    1
    49    20    15    1
    50    24    22    1
    51    27    28    1
@<TRIPOS>MOLECULE
*****
 46 51 0 0 0
SMALL
GASTEIGER

@<TRIPOS>ATOM
      1 C          -1.7596    3.4876   25.3170 C.ar    1  UNL1        0.0500
      2 C          -1.1176    3.1413   26.6276 C.ar    1  UNL1        0.0146
      3 C           0.1452    2.3323   26.6536 C.ar    1  UNL1        0.0025
      4 C           0.7660    1.8695   25.3689 C.ar    1  UNL1        0.0043
      5 C           0.1240    2.2158   24.0583 C.ar    1  UNL1        0.0506
      6 C          -1.1388    3.0249   24.0323 C.ar    1  UNL1       -0.0038
      7 C          -1.7808    3.3712   22.7215 C.3     1  UNL1        0.0325
      8 C           0.7872    1.9859   27.9643 C.ar    1  UNL1        0.0137
      9 C           1.9991    2.7385   28.4279 C.ar    1  UNL1        0.0040
     10 C           2.6411    2.3922   29.7385 C.ar    1  UNL1        0.0343
     11 C           2.0713    1.2933   30.5857 C.ar    1  UNL1        0.1313
     12 N           0.8593    0.5407   30.1222 N.ar    1  UNL1       -0.2350
     13 C           0.2173    0.8871   28.8114 C.ar    1  UNL1        0.0607
     14 C          -0.9946    0.1345   28.3479 C.3     1  UNL1        0.0521
     15 N           2.7133    0.9470   31.8963 N.pl3   1  UNL1       -0.2904
     16 C           3.4700   -0.3397   32.0441 C.3     1  UNL1        0.1095
     17 C           4.1120   -0.6860   33.3547 C.3     1  UNL1        0.0939
     18 N           3.9974    0.2545   34.5177 N.3     1  UNL1       -0.2698
     19 C           3.2407    1.5411   34.3700 C.3     1  UNL1        0.0939
     20 C           2.5986    1.8874   33.0593 C.3     1  UNL1        0.1095
     21 C           4.6394   -0.0918   35.8284 C.3     1  UNL1        0.0721
     22 C           4.2073    0.6074   37.0831 C.3     1  UNL1        0.0160
     23 C           3.1257    0.9963   38.0468 C.3     1  UNL1        0.0014
     24 C           4.5406    1.4294   38.2927 C.3     1  UNL1        0.0014
     25 C           0.7449    1.7531   22.7736 C.2     1  UNL1        0.2456
     26 O           0.0004    0.8069   21.8789 O.2     1  UNL1       -0.2702
     27 N           2.1102    2.2365   22.3835 N.am    1  UNL1       -0.3001
     28 H           2.5988    2.8576   22.9707 H       1  UNL1        0.1498
     29 C           2.7310    1.7738   21.0988 C.3     1  UNL1        0.1029
     30 C           3.1596    0.3445   20.9451 C.3     1  UNL1        0.1164
     31 C           2.8426   -0.4019   19.6832 C.2     1  UNL1       -0.0330
     32 C           2.0971    0.2808   18.5750 C.3     1  UNL1        0.0269
     33 C           3.2712   -1.8312   19.5294 C.2     1  UNL1        0.0042
     34 C           4.0167   -2.5140   20.6376 C.2     1  UNL1        0.0508
     35 C           4.4452   -3.9432   20.4839 C.3     1  UNL1        0.0493
     36 N           4.3336   -1.7675   21.8995 N.am    1  UNL1       -0.1833
     37 C           3.9050   -0.3383   22.0532 C.2     1  UNL1        0.2503
     38 O           4.2220    0.4082   23.3152 O.2     1  UNL1       -0.2726
     39 N          -3.0225    4.2967   25.2909 N.am    1  UNL1       -0.2590
     40 C          -2.9529    5.7948   25.2617 C.2     1  UNL1        0.2288
     41 O          -1.6206    6.4839   25.2585 O.2     1  UNL1       -0.2745
     42 C          -4.2158    6.6039   25.2357 C.3     1  UNL1        0.0771
     43 C          -5.4251    7.1473   25.9373 C.3     1  UNL1        0.0096
     44 C          -5.1938    7.4619   24.4890 C.3     1  UNL1        0.0096
     45 C          -5.1462    3.4994   24.0245 C.3     1  UNL1        0.0237
     46 C          -4.3548    3.6077   25.2941 C.3     1  UNL1        0.0982
@<TRIPOS>BOND
     1    45    46    1
     2    46    39    1
     3    39    40   am
     4    40    41    2
     5    40    42    1
     6    42    43    1
     7    43    44    1
     8    39     1    1
     9     1     2   ar
    10     2     3   ar
    11     3     8    1
    12     8     9   ar
    13     9    10   ar
    14    10    11   ar
    15    11    15    1
    16    15    16    1
    17    16    17    1
    18    17    18    1
    19    18    21    1
    20    21    22    1
    21    22    23    1
    22    23    24    1
    23    18    19    1
    24    19    20    1
    25    11    12   ar
    26    12    13   ar
    27    13    14    1
    28     3     4   ar
    29     4     5   ar
    30     5    25    1
    31    25    26    2
    32    25    27   am
    33    27    29    1
    34    29    30    1
    35    30    31    1
    36    31    32    1
    37    31    33    2
    38    33    34    1
    39    34    35    1
    40    34    36    2
    41    36    37    1
    42    37    38    2
    43     5     6   ar
    44     6     7    1
    45    44    42    1
    46     6     1   ar
    47    13     8   ar
    48    37    30    1
    49    20    15    1
    50    24    22    1
    51    27    28    1
@<TRIPOS>MOLECULE
*****
 46 51 0 0 0
SMALL
GASTEIGER

@<TRIPOS>ATOM
      1 C           1.2930    1.9403   20.7919 C.ar    1  UNL1        0.0500
      2 C           1.5147    1.8804   22.2742 C.ar    1  UNL1        0.0146
      3 C           0.4627    2.3953   23.2112 C.ar    1  UNL1        0.0025
      4 C          -0.8110    2.9701   22.6660 C.ar    1  UNL1        0.0043
      5 C          -1.0327    3.0300   21.1837 C.ar    1  UNL1        0.0506
      6 C           0.0193    2.5151   20.2467 C.ar    1  UNL1       -0.0038
      7 C          -0.2023    2.5749   18.7643 C.3     1  UNL1        0.0325
      8 C           0.6844    2.3355   24.6936 C.ar    1  UNL1        0.0137
      9 C          -0.0222    1.2991   25.5163 C.ar    1  UNL1        0.0040
     10 C           0.1995    1.2392   26.9986 C.ar    1  UNL1        0.0343
     11 C           1.1276    2.2157   27.6583 C.ar    1  UNL1        0.1313
     12 N           1.8341    3.2520   26.8356 N.ar    1  UNL1       -0.2350
     13 C           1.6125    3.3119   25.3532 C.ar    1  UNL1        0.0607
     14 C           2.3190    4.3482   24.5305 C.3     1  UNL1        0.0521
     15 N           1.3492    2.1558   29.1406 N.pl3   1  UNL1       -0.2904
     16 C           0.6927    3.1623   30.0384 C.3     1  UNL1        0.1095
     17 C           0.9143    3.1024   31.5207 C.3     1  UNL1        0.0939
     18 N           1.7925    2.0359   32.1053 N.3     1  UNL1       -0.2698
     19 C           2.4490    1.0295   31.2075 C.3     1  UNL1        0.0939
     20 C           2.2273    1.0894   29.7251 C.3     1  UNL1        0.1095
     21 C           2.0141    1.9760   33.5875 C.3     1  UNL1        0.0721
     22 C           2.1232    3.2441   34.3814 C.3     1  UNL1        0.0160
     23 C           2.9428    4.1995   35.1970 C.3     1  UNL1        0.0014
     24 C           1.4927    4.4848   34.9408 C.3     1  UNL1        0.0014
     25 C          -2.3064    3.6048   20.6384 C.2     1  UNL1        0.2456
     26 O          -2.3129    4.9806   20.0408 O.2     1  UNL1       -0.2702
     27 N          -3.5735    2.8039   20.6908 N.am    1  UNL1       -0.3001
     28 H          -3.5692    1.9009   21.0831 H       1  UNL1        0.1498
     29 C          -4.8472    3.3787   20.1456 C.3     1  UNL1        0.1029
     30 C          -5.7396    4.1977   21.0304 C.3     1  UNL1        0.1164
     31 C          -6.5448    5.3219   20.4492 C.2     1  UNL1       -0.0330
     32 C          -6.4576    5.6272   18.9832 C.3     1  UNL1        0.0269
     33 C          -7.4372    6.1410   21.3340 C.2     1  UNL1        0.0042
     34 C          -7.5244    5.8358   22.8000 C.2     1  UNL1        0.0508
     35 C          -8.4167    6.6548   23.6849 C.3     1  UNL1        0.0493
     36 N          -6.7192    4.7115   23.3813 N.am    1  UNL1       -0.1833
     37 C          -5.8268    3.8925   22.4964 C.2     1  UNL1        0.2503
     38 O          -5.0216    2.7682   23.0776 O.2     1  UNL1       -0.2726
     39 N           2.3450    1.4253   19.8548 N.am    1  UNL1       -0.2590
     40 C           2.3089   -0.0031   19.3986 C.2     1  UNL1        0.2288
     41 O           1.2207   -0.9167   19.8795 O.2     1  UNL1       -0.2745
     42 C           3.3609   -0.5181   18.4615 C.3     1  UNL1        0.0771
     43 C           4.6918   -1.1720   18.2356 C.3     1  UNL1        0.0096
     44 C           3.8522   -0.7560   17.0643 C.3     1  UNL1        0.0096
     45 C           4.6951    2.4869   20.1711 C.3     1  UNL1        0.0237
     46 C           3.4332    2.3389   19.3739 C.3     1  UNL1        0.0982
@<TRIPOS>BOND
     1    45    46    1
     2    46    39    1
     3    39    40   am
     4    40    41    2
     5    40    42    1
     6    42    43    1
     7    43    44    1
     8    39     1    1
     9     1     2   ar
    10     2     3   ar
    11     3     8    1
    12     8     9   ar
    13     9    10   ar
    14    10    11   ar
    15    11    15    1
    16    15    16    1
    17    16    17    1
    18    17    18    1
    19    18    21    1
    20    21    22    1
    21    22    23    1
    22    23    24    1
    23    18    19    1
    24    19    20    1
    25    11    12   ar
    26    12    13   ar
    27    13    14    1
    28     3     4   ar
    29     4     5   ar
    30     5    25    1
    31    25    26    2
    32    25    27   am
    33    27    29    1
    34    29    30    1
    35    30    31    1
    36    31    32    1
    37    31    33    2
    38    33    34    1
    39    34    35    1
    40    34    36    2
    41    36    37    1
    42    37    38    2
    43     5     6   ar
    44     6     7    1
    45    44    42    1
    46     6     1   ar
    47    13     8   ar
    48    37    30    1
    49    20    15    1
    50    24    22    1
    51    27    28    1
@<TRIPOS>MOLECULE
*****
 46 51 0 0 0
SMALL
GASTEIGER

@<TRIPOS>ATOM
      1 C           2.9544    0.0649   23.0673 C.ar    1  UNL1        0.0500
      2 C           2.8184    0.4635   24.5069 C.ar    1  UNL1        0.0146
      3 C           3.4555   -0.3696   25.5792 C.ar    1  UNL1        0.0025
      4 C           4.2286   -1.6015   25.2119 C.ar    1  UNL1        0.0043
      5 C           4.3645   -2.0002   23.7723 C.ar    1  UNL1        0.0506
      6 C           3.7274   -1.1670   22.7000 C.ar    1  UNL1       -0.0038
      7 C           3.8634   -1.5656   21.2603 C.3     1  UNL1        0.0325
      8 C           3.3196    0.0290   27.0189 C.ar    1  UNL1        0.0137
      9 C           2.3687   -0.7081   27.9146 C.ar    1  UNL1        0.0040
     10 C           2.2327   -0.3095   29.3543 C.ar    1  UNL1        0.0343
     11 C           3.0477    0.8262   29.8983 C.ar    1  UNL1        0.1313
     12 N           3.9987    1.5634   29.0025 N.ar    1  UNL1       -0.2350
     13 C           4.1346    1.1647   27.5628 C.ar    1  UNL1        0.0607
     14 C           5.0856    1.9018   26.6671 C.3     1  UNL1        0.0521
     15 N           2.9118    1.2248   31.3379 N.pl3   1  UNL1       -0.2904
     16 C           1.9051    2.2628   31.7369 C.3     1  UNL1        0.1095
     17 C           1.7692    2.6614   33.1765 C.3     1  UNL1        0.0939
     18 N           2.6399    2.0220   34.2173 N.3     1  UNL1       -0.2698
     19 C           3.6466    0.9840   33.8183 C.3     1  UNL1        0.0939
     20 C           3.7825    0.5854   32.3785 C.3     1  UNL1        0.1095
     21 C           2.5040    2.4206   35.6569 C.3     1  UNL1        0.0721
     22 C           3.4327    1.8459   36.6851 C.3     1  UNL1        0.0160
     23 C           4.7860    1.7964   37.3301 C.3     1  UNL1        0.0014
     24 C           3.6879    0.9002   37.8211 C.3     1  UNL1        0.0014
     25 C           5.1376   -3.2320   23.4049 C.2     1  UNL1        0.2456
     26 O           4.5097   -4.2797   22.5342 O.2     1  UNL1       -0.2702
     27 N           6.5385   -3.4162   23.9083 N.am    1  UNL1       -0.3001
     28 H           6.9506   -2.7286   24.4798 H       1  UNL1        0.1498
     29 C           7.3116   -4.6480   23.5410 C.3     1  UNL1        0.1029
     30 C           7.6203   -5.6791   24.5858 C.3     1  UNL1        0.1164
     31 C           8.3546   -6.9318   24.2094 C.2     1  UNL1       -0.0330
     32 C           8.7802   -7.1534   22.7883 C.3     1  UNL1        0.0269
     33 C           8.6633   -7.9628   25.2543 C.2     1  UNL1        0.0042
     34 C           8.2378   -7.7412   26.6755 C.2     1  UNL1        0.0508
     35 C           8.5465   -8.7722   27.7203 C.3     1  UNL1        0.0493
     36 N           7.5035   -6.4885   27.0518 N.am    1  UNL1       -0.1833
     37 C           7.1948   -5.4575   26.0070 C.2     1  UNL1        0.2503
     38 O           6.4605   -4.2047   26.3833 O.2     1  UNL1       -0.2726
     39 N           2.3172    0.8981   21.9949 N.am    1  UNL1       -0.2590
     40 C           3.1146    1.9597   21.2970 C.2     1  UNL1        0.2288
     41 O           4.5490    2.1882   21.6713 O.2     1  UNL1       -0.2745
     42 C           2.4774    2.7929   20.2246 C.3     1  UNL1        0.0771
     43 C           2.2640    3.0983   18.7716 C.3     1  UNL1        0.0096
     44 C           1.5874    3.9306   19.8202 C.3     1  UNL1        0.0096
     45 C           0.5447   -0.1540   20.4134 C.3     1  UNL1        0.0237
     46 C           0.8828    0.6696   21.6206 C.3     1  UNL1        0.0982
@<TRIPOS>BOND
     1    45    46    1
     2    46    39    1
     3    39    40   am
     4    40    41    2
     5    40    42    1
     6    42    43    1
     7    43    44    1
     8    39     1    1
     9     1     2   ar
    10     2     3   ar
    11     3     8    1
    12     8     9   ar
    13     9    10   ar
    14    10    11   ar
    15    11    15    1
    16    15    16    1
    17    16    17    1
    18    17    18    1
    19    18    21    1
    20    21    22    1
    21    22    23    1
    22    23    24    1
    23    18    19    1
    24    19    20    1
    25    11    12   ar
    26    12    13   ar
    27    13    14    1
    28     3     4   ar
    29     4     5   ar
    30     5    25    1
    31    25    26    2
    32    25    27   am
    33    27    29    1
    34    29    30    1
    35    30    31    1
    36    31    32    1
    37    31    33    2
    38    33    34    1
    39    34    35    1
    40    34    36    2
    41    36    37    1
    42    37    38    2
    43     5     6   ar
    44     6     7    1
    45    44    42    1
    46     6     1   ar
    47    13     8   ar
    48    37    30    1
    49    20    15    1
    50    24    22    1
    51    27    28    1
@<TRIPOS>MOLECULE
*****
 46 51 0 0 0
SMALL
GASTEIGER

@<TRIPOS>ATOM
      1 C          -2.4457    4.2317   25.5079 C.ar    1  UNL1        0.0500
      2 C          -1.8067    3.9829   26.8420 C.ar    1  UNL1        0.0146
      3 C          -0.5667    3.1441   26.9348 C.ar    1  UNL1        0.0025
      4 C           0.0343    2.5540   25.6935 C.ar    1  UNL1        0.0043
      5 C          -0.6047    2.8028   24.3595 C.ar    1  UNL1        0.0506
      6 C          -1.8447    3.6416   24.2667 C.ar    1  UNL1       -0.0038
      7 C          -2.4838    3.8905   22.9326 C.3     1  UNL1        0.0325
      8 C           0.0724    2.8952   28.2689 C.ar    1  UNL1        0.0137
      9 C           0.9294    3.9529   28.8989 C.ar    1  UNL1        0.0040
     10 C           1.5685    3.7041   30.2329 C.ar    1  UNL1        0.0343
     11 C           1.3506    2.3976   30.9370 C.ar    1  UNL1        0.1313
     12 N           0.4936    1.3400   30.3070 N.ar    1  UNL1       -0.2350
     13 C          -0.1455    1.5888   28.9729 C.ar    1  UNL1        0.0607
     14 C          -1.0025    0.5311   28.3429 C.3     1  UNL1        0.0521
     15 N           1.9897    2.1489   32.2710 N.pl3   1  UNL1       -0.2904
     16 C           1.7039    3.0668   33.4224 C.3     1  UNL1        0.1095
     17 C           2.3430    2.8180   34.7564 C.3     1  UNL1        0.0939
     18 N           3.2679    1.6513   34.9391 N.3     1  UNL1       -0.2698
     19 C           3.5537    0.7334   33.7877 C.3     1  UNL1        0.0939
     20 C           2.9146    0.9822   32.4536 C.3     1  UNL1        0.1095
     21 C           3.9070    1.4025   36.2731 C.3     1  UNL1        0.0721
     22 C           3.0923    1.5143   37.5276 C.3     1  UNL1        0.0160
     23 C           2.6323    0.9373   38.8335 C.3     1  UNL1        0.0014
     24 C           2.1411    2.2848   38.3944 C.3     1  UNL1        0.0014
     25 C          -0.0037    2.2128   23.1183 C.2     1  UNL1        0.2456
     26 O          -0.4817    2.6590   21.7684 O.2     1  UNL1       -0.2702
     27 N           1.0753    1.1765   23.2270 N.am    1  UNL1       -0.3001
     28 H           1.3890    0.8836   24.1130 H       1  UNL1        0.1498
     29 C           1.6763    0.5864   21.9857 C.3     1  UNL1        0.1029
     30 C           2.6707   -0.5315   22.0923 C.3     1  UNL1        0.1164
     31 C           3.0783   -1.2923   20.8655 C.2     1  UNL1       -0.0330
     32 C           2.4915   -0.9351   19.5321 C.3     1  UNL1        0.0269
     33 C           4.0727   -2.4103   20.9721 C.2     1  UNL1        0.0042
     34 C           4.6595   -2.7675   22.3056 C.2     1  UNL1        0.0508
     35 C           5.6539   -3.8854   22.4122 C.3     1  UNL1        0.0493
     36 N           4.2519   -2.0066   23.5324 N.am    1  UNL1       -0.1833
     37 C           3.2575   -0.8887   23.4258 C.2     1  UNL1        0.2503
     38 O           2.8499   -0.1279   24.6526 O.2     1  UNL1       -0.2726
     39 N          -3.6858    5.0706   25.4151 N.am    1  UNL1       -0.2590
     40 C          -5.0293    4.4131   25.3029 C.2     1  UNL1        0.2288
     41 O          -5.1329    2.9168   25.2837 O.2     1  UNL1       -0.2745
     42 C          -6.2694    5.2520   25.2101 C.3     1  UNL1        0.0771
     43 C          -7.4183    5.7878   24.4082 C.3     1  UNL1        0.0096
     44 C          -7.2684    6.1692   25.8511 C.3     1  UNL1        0.0096
     45 C          -3.3904    7.3219   24.1526 C.3     1  UNL1        0.0237
     46 C          -3.5822    6.5669   25.4343 C.3     1  UNL1        0.0982
@<TRIPOS>BOND
     1    45    46    1
     2    46    39    1
     3    39    40   am
     4    40    41    2
     5    40    42    1
     6    42    43    1
     7    43    44    1
     8    39     1    1
     9     1     2   ar
    10     2     3   ar
    11     3     8    1
    12     8     9   ar
    13     9    10   ar
    14    10    11   ar
    15    11    15    1
    16    15    16    1
    17    16    17    1
    18    17    18    1
    19    18    21    1
    20    21    22    1
    21    22    23    1
    22    23    24    1
    23    18    19    1
    24    19    20    1
    25    11    12   ar
    26    12    13   ar
    27    13    14    1
    28     3     4   ar
    29     4     5   ar
    30     5    25    1
    31    25    26    2
    32    25    27   am
    33    27    29    1
    34    29    30    1
    35    30    31    1
    36    31    32    1
    37    31    33    2
    38    33    34    1
    39    34    35    1
    40    34    36    2
    41    36    37    1
    42    37    38    2
    43     5     6   ar
    44     6     7    1
    45    44    42    1
    46     6     1   ar
    47    13     8   ar
    48    37    30    1
    49    20    15    1
    50    24    22    1
    51    27    28    1
@<TRIPOS>MOLECULE
*****
 46 51 0 0 0
SMALL
GASTEIGER

@<TRIPOS>ATOM
      1 C           4.1508    0.8135   31.7271 C.ar    1  UNL1        0.0500
      2 C           3.1845    1.0895   30.6136 C.ar    1  UNL1        0.0146
      3 C           2.1192    2.1313   30.7862 C.ar    1  UNL1        0.0025
      4 C           2.0202    2.8969   32.0723 C.ar    1  UNL1        0.0043
      5 C           2.9866    2.6208   33.1858 C.ar    1  UNL1        0.0506
      6 C           4.0519    1.5791   33.0132 C.ar    1  UNL1       -0.0038
      7 C           5.0183    1.3030   34.1267 C.3     1  UNL1        0.0325
      8 C           1.1527    2.4074   29.6727 C.ar    1  UNL1        0.0137
      9 C           0.1902    1.3439   29.2341 C.ar    1  UNL1        0.0040
     10 C          -0.7762    1.6199   28.1206 C.ar    1  UNL1        0.0343
     11 C          -0.7801    2.9596   27.4458 C.ar    1  UNL1        0.1313
     12 N           0.1824    4.0231   27.8844 N.ar    1  UNL1       -0.2350
     13 C           1.1489    3.7470   28.9979 C.ar    1  UNL1        0.0607
     14 C           2.1114    4.8105   29.4365 C.3     1  UNL1        0.0521
     15 N          -1.7465    3.2357   26.3323 N.pl3   1  UNL1       -0.2904
     16 C          -3.1716    3.5840   26.6452 C.3     1  UNL1        0.1095
     17 C          -4.1380    3.8601   25.5317 C.3     1  UNL1        0.0939
     18 N          -3.6794    3.7878   24.1053 N.3     1  UNL1       -0.2698
     19 C          -2.2543    3.4394   23.7925 C.3     1  UNL1        0.0939
     20 C          -1.2879    3.1634   24.9060 C.3     1  UNL1        0.1095
     21 C          -4.6458    4.0639   22.9919 C.3     1  UNL1        0.0721
     22 C          -6.0395    4.5219   23.3047 C.3     1  UNL1        0.0160
     23 C          -6.9692    5.5077   23.9478 C.3     1  UNL1        0.0014
     24 C          -7.5236    4.3294   23.2034 C.3     1  UNL1        0.0014
     25 C           2.8876    3.3865   34.4718 C.2     1  UNL1        0.2456
     26 O           3.6439    4.6708   34.6402 O.2     1  UNL1       -0.2702
     27 N           2.0323    2.8678   35.5896 N.am    1  UNL1       -0.3001
     28 H           1.5359    2.0248   35.4791 H       1  UNL1        0.1498
     29 C           1.9334    3.6334   36.8756 C.3     1  UNL1        0.1029
     30 C           3.0465    3.5619   37.8786 C.3     1  UNL1        0.1164
     31 C           3.7544    4.8141   38.3040 C.2     1  UNL1       -0.0330
     32 C           3.3491    6.1378   37.7264 C.3     1  UNL1        0.0269
     33 C           4.8675    4.7426   39.3070 C.2     1  UNL1        0.0042
     34 C           5.2727    3.4189   39.8845 C.2     1  UNL1        0.0508
     35 C           6.3858    3.3473   40.8874 C.3     1  UNL1        0.0493
     36 N           4.5648    2.1667   39.4591 N.am    1  UNL1       -0.1833
     37 C           3.4517    2.2382   38.4562 C.2     1  UNL1        0.2503
     38 O           2.7438    0.9860   38.0308 O.2     1  UNL1       -0.2726
     39 N           5.2162   -0.2283   31.5545 N.am    1  UNL1       -0.2590
     40 C           4.9626   -1.6402   31.9928 C.2     1  UNL1        0.2288
     41 O           3.6436   -2.0105   32.6036 O.2     1  UNL1       -0.2745
     42 C           6.0280   -2.6820   31.8202 C.3     1  UNL1        0.0771
     43 C           6.5395   -3.9164   31.1387 C.3     1  UNL1        0.0096
     44 C           7.3617   -3.2520   32.2028 C.3     1  UNL1        0.0096
     45 C           6.6987    0.1383   29.4526 C.3     1  UNL1        0.0237
     46 C           6.5353    0.1419   30.9437 C.3     1  UNL1        0.0982
@<TRIPOS>BOND
     1    45    46    1
     2    46    39    1
     3    39    40   am
     4    40    41    2
     5    40    42    1
     6    42    43    1
     7    43    44    1
     8    39     1    1
     9     1     2   ar
    10     2     3   ar
    11     3     8    1
    12     8     9   ar
    13     9    10   ar
    14    10    11   ar
    15    11    15    1
    16    15    16    1
    17    16    17    1
    18    17    18    1
    19    18    21    1
    20    21    22    1
    21    22    23    1
    22    23    24    1
    23    18    19    1
    24    19    20    1
    25    11    12   ar
    26    12    13   ar
    27    13    14    1
    28     3     4   ar
    29     4     5   ar
    30     5    25    1
    31    25    26    2
    32    25    27   am
    33    27    29    1
    34    29    30    1
    35    30    31    1
    36    31    32    1
    37    31    33    2
    38    33    34    1
    39    34    35    1
    40    34    36    2
    41    36    37    1
    42    37    38    2
    43     5     6   ar
    44     6     7    1
    45    44    42    1
    46     6     1   ar
    47    13     8   ar
    48    37    30    1
    49    20    15    1
    50    24    22    1
    51    27    28    1
@<TRIPOS>MOLECULE
*****
 46 51 0 0 0
SMALL
GASTEIGER

@<TRIPOS>ATOM
      1 C           4.0940   -1.0132   22.7647 C.ar    1  UNL1        0.0500
      2 C           2.8303   -0.2348   22.9813 C.ar    1  UNL1        0.0146
      3 C           2.5352    0.3568   24.3277 C.ar    1  UNL1        0.0025
      4 C           3.5040    0.1700   25.4576 C.ar    1  UNL1        0.0043
      5 C           4.7678   -0.6084   25.2410 C.ar    1  UNL1        0.0506
      6 C           5.0628   -1.2000   23.8946 C.ar    1  UNL1       -0.0038
      7 C           6.3266   -1.9784   23.6780 C.3     1  UNL1        0.0325
      8 C           1.2714    1.1352   24.5443 C.ar    1  UNL1        0.0137
      9 C           0.4810    0.9463   25.8051 C.ar    1  UNL1        0.0040
     10 C          -0.7828    1.7247   26.0217 C.ar    1  UNL1        0.0343
     11 C          -1.2562    2.6920   24.9776 C.ar    1  UNL1        0.1313
     12 N          -0.4658    2.8810   23.7168 N.ar    1  UNL1       -0.2350
     13 C           0.7981    2.1025   23.5002 C.ar    1  UNL1        0.0607
     14 C           1.5885    2.2915   22.2395 C.3     1  UNL1        0.0521
     15 N          -2.5200    3.4704   25.1942 N.pl3   1  UNL1       -0.2904
     16 C          -3.0755    3.6285   26.5786 C.3     1  UNL1        0.1095
     17 C          -4.3392    4.4069   26.7952 C.3     1  UNL1        0.0939
     18 N          -5.0476    5.0272   25.6275 N.3     1  UNL1       -0.2698
     19 C          -4.4921    4.8690   24.2431 C.3     1  UNL1        0.0939
     20 C          -3.2283    4.0906   24.0265 C.3     1  UNL1        0.1095
     21 C          -6.3114    5.8055   25.8441 C.3     1  UNL1        0.0721
     22 C          -7.5098    5.5456   24.9802 C.3     1  UNL1        0.0160
     23 C          -8.9315    5.8444   24.6071 C.3     1  UNL1        0.0014
     24 C          -8.1636    4.7965   23.8572 C.3     1  UNL1        0.0014
     25 C           5.7365   -0.7951   26.3709 C.2     1  UNL1        0.2456
     26 O           6.9320    0.1029   26.4900 O.2     1  UNL1       -0.2702
     27 N           5.5098   -1.8799   27.3817 N.am    1  UNL1       -0.3001
     28 H           4.7251   -2.4694   27.3035 H       1  UNL1        0.1498
     29 C           6.4785   -2.0667   28.5116 C.3     1  UNL1        0.1029
     30 C           6.0038   -1.9660   29.9310 C.3     1  UNL1        0.1164
     31 C           6.2607   -3.0909   30.8893 C.2     1  UNL1       -0.0330
     32 C           6.9924   -4.3166   30.4284 C.3     1  UNL1        0.0269
     33 C           5.7860   -2.9902   32.3087 C.2     1  UNL1        0.0042
     34 C           5.0543   -1.7646   32.7696 C.2     1  UNL1        0.0508
     35 C           4.5796   -1.6639   34.1889 C.3     1  UNL1        0.0493
     36 N           4.7974   -0.6397   31.8112 N.am    1  UNL1       -0.1833
     37 C           5.2721   -0.7404   30.3919 C.2     1  UNL1        0.2503
     38 O           5.0152    0.3845   29.4334 O.2     1  UNL1       -0.2726
     39 N           4.3891   -1.6048   21.4183 N.am    1  UNL1       -0.2590
     40 C           4.2977   -3.0881   21.2144 C.2     1  UNL1        0.2288
     41 O           3.9111   -3.9797   22.3570 O.2     1  UNL1       -0.2745
     42 C           4.5927   -3.6797   19.8679 C.3     1  UNL1        0.0771
     43 C           5.1267   -3.5341   18.4738 C.3     1  UNL1        0.0096
     44 C           4.5699   -4.8501   18.9300 C.3     1  UNL1        0.0096
     45 C           3.7153   -0.1130   19.4007 C.3     1  UNL1        0.0237
     46 C           4.7756   -0.7132   20.2756 C.3     1  UNL1        0.0982
@<TRIPOS>BOND
     1    45    46    1
     2    46    39    1
     3    39    40   am
     4    40    41    2
     5    40    42    1
     6    42    43    1
     7    43    44    1
     8    39     1    1
     9     1     2   ar
    10     2     3   ar
    11     3     8    1
    12     8     9   ar
    13     9    10   ar
    14    10    11   ar
    15    11    15    1
    16    15    16    1
    17    16    17    1
    18    17    18    1
    19    18    21    1
    20    21    22    1
    21    22    23    1
    22    23    24    1
    23    18    19    1
    24    19    20    1
    25    11    12   ar
    26    12    13   ar
    27    13    14    1
    28     3     4   ar
    29     4     5   ar
    30     5    25    1
    31    25    26    2
    32    25    27   am
    33    27    29    1
    34    29    30    1
    35    30    31    1
    36    31    32    1
    37    31    33    2
    38    33    34    1
    39    34    35    1
    40    34    36    2
    41    36    37    1
    42    37    38    2
    43     5     6   ar
    44     6     7    1
    45    44    42    1
    46     6     1   ar
    47    13     8   ar
    48    37    30    1
    49    20    15    1
    50    24    22    1
    51    27    28    1
@<TRIPOS>MOLECULE
*****
 46 51 0 0 0
SMALL
GASTEIGER

@<TRIPOS>ATOM
      1 C           4.9182   -0.2206   19.7592 C.ar    1  UNL1        0.0500
      2 C           3.8324    0.5147   20.4874 C.ar    1  UNL1        0.0146
      3 C           3.2726   -0.0442   21.7618 C.ar    1  UNL1        0.0025
      4 C           3.7986   -1.3383   22.3081 C.ar    1  UNL1        0.0043
      5 C           4.8844   -2.0736   21.5799 C.ar    1  UNL1        0.0506
      6 C           5.4442   -1.5148   20.3055 C.ar    1  UNL1       -0.0038
      7 C           6.5301   -2.2501   19.5773 C.3     1  UNL1        0.0325
      8 C           2.1867    0.6911   22.4901 C.ar    1  UNL1        0.0137
      9 C           2.4528    1.2686   23.8487 C.ar    1  UNL1        0.0040
     10 C           1.3670    2.0039   24.5769 C.ar    1  UNL1        0.0343
     11 C           0.0150    2.1617   23.9466 C.ar    1  UNL1        0.1313
     12 N          -0.2511    1.5843   22.5880 N.ar    1  UNL1       -0.2350
     13 C           0.8348    0.8490   21.8597 C.ar    1  UNL1        0.0607
     14 C           0.5687    0.2715   20.5011 C.3     1  UNL1        0.0521
     15 N          -1.0708    2.8970   24.6748 N.pl3   1  UNL1       -0.2904
     16 C          -2.3602    3.2139   23.9771 C.3     1  UNL1        0.1095
     17 C          -3.4460    3.9492   24.7053 C.3     1  UNL1        0.0939
     18 N          -3.2424    4.3676   26.1313 N.3     1  UNL1       -0.2698
     19 C          -1.9529    4.0507   26.8291 C.3     1  UNL1        0.0939
     20 C          -0.8671    3.3154   26.1008 C.3     1  UNL1        0.1095
     21 C          -4.3282    5.1029   26.8596 C.3     1  UNL1        0.0721
     22 C          -5.4201    5.7838   26.0889 C.3     1  UNL1        0.0160
     23 C          -6.8791    5.9810   25.8019 C.3     1  UNL1        0.0014
     24 C          -5.8522    6.7661   25.0409 C.3     1  UNL1        0.0014
     25 C           5.4105   -3.3678   22.1262 C.2     1  UNL1        0.2456
     26 O           4.7597   -4.6636   21.7424 O.2     1  UNL1       -0.2702
     27 N           6.5872   -3.3662   23.0563 N.am    1  UNL1       -0.3001
     28 H           7.0144   -2.5157   23.3083 H       1  UNL1        0.1498
     29 C           7.1133   -4.6603   23.6026 C.3     1  UNL1        0.1029
     30 C           7.0744   -4.9222   25.0791 C.3     1  UNL1        0.1164
     31 C           7.5356   -6.2435   25.6189 C.2     1  UNL1       -0.0330
     32 C           8.0358   -7.3030   24.6822 C.3     1  UNL1        0.0269
     33 C           7.4967   -6.5053   27.0954 C.2     1  UNL1        0.0042
     34 C           6.9965   -5.4459   28.0321 C.2     1  UNL1        0.0508
     35 C           6.9575   -5.7077   29.5085 C.3     1  UNL1        0.0493
     36 N           6.5352   -4.1245   27.4922 N.am    1  UNL1       -0.1833
     37 C           6.5742   -3.8627   26.0158 C.2     1  UNL1        0.2503
     38 O           6.1129   -2.5414   25.4759 O.2     1  UNL1       -0.2726
     39 N           5.4781    0.3383   18.4847 N.am    1  UNL1       -0.2590
     40 C           6.6042    1.3280   18.5307 C.2     1  UNL1        0.2288
     41 O           7.1706    1.7589   19.8511 O.2     1  UNL1       -0.2745
     42 C           7.1641    1.8868   17.2561 C.3     1  UNL1        0.0771
     43 C           6.9789    2.6644   15.9869 C.3     1  UNL1        0.0096
     44 C           8.3189    2.0773   16.3180 C.3     1  UNL1        0.0096
     45 C           3.5643   -0.7491   17.1044 C.3     1  UNL1        0.0237
     46 C           4.9117   -0.0927   17.1643 C.3     1  UNL1        0.0982
@<TRIPOS>BOND
     1    45    46    1
     2    46    39    1
     3    39    40   am
     4    40    41    2
     5    40    42    1
     6    42    43    1
     7    43    44    1
     8    39     1    1
     9     1     2   ar
    10     2     3   ar
    11     3     8    1
    12     8     9   ar
    13     9    10   ar
    14    10    11   ar
    15    11    15    1
    16    15    16    1
    17    16    17    1
    18    17    18    1
    19    18    21    1
    20    21    22    1
    21    22    23    1
    22    23    24    1
    23    18    19    1
    24    19    20    1
    25    11    12   ar
    26    12    13   ar
    27    13    14    1
    28     3     4   ar
    29     4     5   ar
    30     5    25    1
    31    25    26    2
    32    25    27   am
    33    27    29    1
    34    29    30    1
    35    30    31    1
    36    31    32    1
    37    31    33    2
    38    33    34    1
    39    34    35    1
    40    34    36    2
    41    36    37    1
    42    37    38    2
    43     5     6   ar
    44     6     7    1
    45    44    42    1
    46     6     1   ar
    47    13     8   ar
    48    37    30    1
    49    20    15    1
    50    24    22    1
    51    27    28    1
@<TRIPOS>MOLECULE
*****
 46 51 0 0 0
SMALL
GASTEIGER

@<TRIPOS>ATOM
      1 C           3.0170   -0.0314   21.3090 C.ar    1  UNL1        0.0500
      2 C           3.1794    0.0252   22.7991 C.ar    1  UNL1        0.0146
      3 C           2.3210    0.9480   23.6125 C.ar    1  UNL1        0.0025
      4 C           1.3003    1.8142   22.9359 C.ar    1  UNL1        0.0043
      5 C           1.1380    1.7576   21.4458 C.ar    1  UNL1        0.0506
      6 C           1.9963    0.8348   20.6324 C.ar    1  UNL1       -0.0038
      7 C           1.8340    0.7782   19.1422 C.3     1  UNL1        0.0325
      8 C           2.4833    1.0046   25.1027 C.ar    1  UNL1        0.0137
      9 C           3.8478    0.8823   25.7136 C.ar    1  UNL1        0.0040
     10 C           4.0102    0.9389   27.2037 C.ar    1  UNL1        0.0343
     11 C           2.8080    1.1178   28.0829 C.ar    1  UNL1        0.1313
     12 N           1.4436    1.2400   27.4720 N.ar    1  UNL1       -0.2350
     13 C           1.2812    1.1834   25.9818 C.ar    1  UNL1        0.0607
     14 C          -0.0832    1.3056   25.3709 C.3     1  UNL1        0.0521
     15 N           2.9704    1.1743   29.5730 N.pl3   1  UNL1       -0.2904
     16 C           1.7812    1.4411   30.4475 C.3     1  UNL1        0.1095
     17 C           1.9436    1.4976   31.9375 C.3     1  UNL1        0.0939
     18 N           3.2952    1.2875   32.5533 N.3     1  UNL1       -0.2698
     19 C           4.4844    1.0208   31.6788 C.3     1  UNL1        0.0939
     20 C           4.3220    0.9642   30.1887 C.3     1  UNL1        0.1095
     21 C           3.4576    1.3441   34.0433 C.3     1  UNL1        0.0721
     22 C           4.3038    0.3235   34.7449 C.3     1  UNL1        0.0160
     23 C           5.0134   -0.1490   35.9791 C.3     1  UNL1        0.0014
     24 C           5.0599   -0.9718   34.7258 C.3     1  UNL1        0.0014
     25 C           0.1173    2.6238   20.7691 C.2     1  UNL1        0.2456
     26 O           0.5588    3.7458   19.8768 O.2     1  UNL1       -0.2702
     27 N          -1.3449    2.3681   20.9848 N.am    1  UNL1       -0.3001
     28 H          -1.6347    1.6318   21.5705 H       1  UNL1        0.1498
     29 C          -2.3656    3.2343   20.3081 C.3     1  UNL1        0.1029
     30 C          -3.6553    3.5564   21.0032 C.3     1  UNL1        0.1164
     31 C          -4.9137    3.7312   20.2059 C.2     1  UNL1       -0.0330
     32 C          -4.8825    3.5839   18.7135 C.3     1  UNL1        0.0269
     33 C          -6.2034    4.0533   20.9010 C.2     1  UNL1        0.0042
     34 C          -6.2345    4.2006   22.3934 C.2     1  UNL1        0.0508
     35 C          -7.5241    4.5227   23.0886 C.3     1  UNL1        0.0493
     36 N          -4.9760    4.0258   23.1908 N.am    1  UNL1       -0.1833
     37 C          -3.6864    3.7037   22.4957 C.2     1  UNL1        0.2503
     38 O          -2.4279    3.5290   23.2930 O.2     1  UNL1       -0.2726
     39 N           3.8754   -0.9542   20.4955 N.am    1  UNL1       -0.2590
     40 C           5.0669   -0.4165   19.7599 C.2     1  UNL1        0.2288
     41 O           5.4001    1.0439   19.8378 O.2     1  UNL1       -0.2745
     42 C           5.9253   -1.3393   18.9464 C.3     1  UNL1        0.0771
     43 C           7.2698   -1.9285   18.6381 C.3     1  UNL1        0.0096
     44 C           6.0674   -2.3485   17.8457 C.3     1  UNL1        0.0096
     45 C           4.2535   -3.3945   21.3029 C.3     1  UNL1        0.0237
     46 C           3.5421   -2.4146   20.4177 C.3     1  UNL1        0.0982
@<TRIPOS>BOND
     1    45    46    1
     2    46    39    1
     3    39    40   am
     4    40    41    2
     5    40    42    1
     6    42    43    1
     7    43    44    1
     8    39     1    1
     9     1     2   ar
    10     2     3   ar
    11     3     8    1
    12     8     9   ar
    13     9    10   ar
    14    10    11   ar
    15    11    15    1
    16    15    16    1
    17    16    17    1
    18    17    18    1
    19    18    21    1
    20    21    22    1
    21    22    23    1
    22    23    24    1
    23    18    19    1
    24    19    20    1
    25    11    12   ar
    26    12    13   ar
    27    13    14    1
    28     3     4   ar
    29     4     5   ar
    30     5    25    1
    31    25    26    2
    32    25    27   am
    33    27    29    1
    34    29    30    1
    35    30    31    1
    36    31    32    1
    37    31    33    2
    38    33    34    1
    39    34    35    1
    40    34    36    2
    41    36    37    1
    42    37    38    2
    43     5     6   ar
    44     6     7    1
    45    44    42    1
    46     6     1   ar
    47    13     8   ar
    48    37    30    1
    49    20    15    1
    50    24    22    1
    51    27    28    1
