@<TRIPOS>MOLECULE
*****
 41 46 0 0 0
SMALL
GASTEIGER

@<TRIPOS>ATOM
      1 C           2.3949    3.8975   21.1657 C.3     1  UNL1        0.0972
      2 C           2.6691    4.9559   22.1927 C.3     1  UNL1        0.0431
      3 C           4.1542    5.1513   22.2720 C.3     1  UNL1        0.0968
      4 N           4.7978    4.2136   21.2939 N.am    1  UNL1       -0.2623
      5 C           6.2703    4.0752   21.0435 C.2     1  UNL1        0.3073
      6 O           7.2440    4.9225   21.8077 O.2     1  UNL1       -0.2523
      7 N           6.7691    3.0894   20.0289 N.am    1  UNL1       -0.2626
      8 C           8.2049    2.8410   19.6725 C.3     1  UNL1        0.0964
      9 C           8.2429    1.7770   18.6159 C.3     1  UNL1        0.0390
     10 C           6.8305    1.3678   18.3193 C.3     1  UNL1        0.0758
     11 C           5.9198    2.1789   19.1926 C.3     1  UNL1        0.1106
     12 C           3.7105    3.4388   20.6102 C.3     1  UNL1        0.1147
     13 C           0.1020    4.2740   20.0034 C.3     1  UNL1        0.1152
     14 N           1.0425    3.3875   20.7647 N.am    1  UNL1       -0.2738
     15 C           0.6306    1.9909   21.1250 C.2     1  UNL1        0.2551
     16 O          -0.7218    1.4808   20.7241 O.2     1  UNL1       -0.2694
     17 C           1.5711    1.1044   21.8863 C.ar    1  UNL1        0.0830
     18 C           1.6652    0.9945   23.3794 C.ar    1  UNL1        0.0115
     19 C           2.7348   -0.0057   23.7040 C.ar    1  UNL1        0.0071
     20 C           3.3018   -0.5139   22.4117 C.ar    1  UNL1        0.0297
     21 S           2.5826    0.1721   21.2882 S.2     1  UNL1       -0.0824
     22 C           4.3960   -1.5299   22.2680 C.ar    1  UNL1        0.0092
     23 C           4.1733   -2.9416   22.7237 C.ar    1  UNL1        0.0038
     24 C           5.2674   -3.9575   22.5800 C.ar    1  UNL1        0.0401
     25 C           6.5843   -3.5619   21.9805 C.ar    1  UNL1        0.1724
     26 C           6.8070   -2.1503   21.5247 C.ar    1  UNL1        0.1724
     27 C           5.7128   -1.1343   21.6685 C.ar    1  UNL1        0.0405
     28 O           8.1238   -1.7546   20.9253 O.3     1  UNL1       -0.4684
     29 C           9.2179   -2.7706   20.7815 C.3     1  UNL1        0.2526
     30 C           8.9952   -4.1822   21.2373 C.3     1  UNL1        0.2526
     31 O           7.6784   -4.5779   21.8368 O.3     1  UNL1       -0.4684
     32 N           6.4039    0.3297   17.3241 N.3     1  UNL1       -0.2982
     33 H           7.2383    0.0619   16.8020 H       1  UNL1        0.1232
     34 C           5.7612   -0.9413   17.7949 C.3     1  UNL1        0.0540
     35 C           4.3110   -0.9511   18.1782 C.3     1  UNL1        0.0157
     36 C           3.6684   -2.2220   18.6490 C.3     1  UNL1        0.0014
     37 C           4.4758   -3.4831   18.7365 C.3     1  UNL1        0.0001
     38 C           4.8213   -4.9211   18.9874 C.3     1  UNL1        0.0000
     39 C           3.1456   -3.9924   19.2070 C.3     1  UNL1        0.0000
     40 C           5.9259   -3.4733   18.3532 C.3     1  UNL1        0.0014
     41 C           6.5687   -2.2024   17.8824 C.3     1  UNL1        0.0157
@<TRIPOS>BOND
     1    13    14    1
     2    14    15   am
     3    15    16    2
     4    15    17    1
     5    17    18   ar
     6    18    19   ar
     7    19    20   ar
     8    20    22    1
     9    22    23   ar
    10    23    24   ar
    11    24    25   ar
    12    25    26   ar
    13    26    27   ar
    14    26    28    1
    15    28    29    1
    16    29    30    1
    17    30    31    1
    18    20    21   ar
    19     1    14    1
    20     1     2    1
    21     2     3    1
    22     3     4    1
    23     4     5   am
    24     5     6    2
    25     5     7   am
    26     7     8    1
    27     8     9    1
    28     9    10    1
    29    10    32    1
    30    32    34    1
    31    34    35    1
    32    35    36    1
    33    36    37    1
    34    37    38    1
    35    37    39    1
    36    37    40    1
    37    40    41    1
    38    10    11    1
    39     4    12    1
    40    21    17   ar
    41    12     1    1
    42    27    22   ar
    43    11     7    1
    44    31    25    1
    45    41    34    1
    46    32    33    1
@<TRIPOS>MOLECULE
*****
 41 46 0 0 0
SMALL
GASTEIGER

@<TRIPOS>ATOM
      1 C           7.2638   -2.0577   28.3381 C.3     1  UNL1        0.0972
      2 C           6.7087   -3.0091   29.3563 C.3     1  UNL1        0.0431
      3 C           6.6521   -4.3728   28.7342 C.3     1  UNL1        0.0968
      4 N           7.1723   -4.2641   27.3314 N.am    1  UNL1       -0.2623
      5 C           7.2932   -5.3889   26.3463 C.2     1  UNL1        0.3073
      6 O           6.8729   -6.7752   26.7356 O.2     1  UNL1       -0.2523
      7 N           7.8344   -5.1273   24.9721 N.am    1  UNL1       -0.2626
      8 C           8.0127   -6.1465   23.8860 C.3     1  UNL1        0.0964
      9 C           8.5808   -5.4498   22.6852 C.3     1  UNL1        0.0390
     10 C           8.7537   -4.0000   23.0293 C.3     1  UNL1        0.0758
     11 C           8.2924   -3.8007   24.4426 C.3     1  UNL1        0.1106
     12 C           7.5503   -2.8333   27.0867 C.3     1  UNL1        0.1147
     13 C           8.5739   -0.1160   29.4622 C.3     1  UNL1        0.1152
     14 N           7.4923   -0.5885   28.5367 N.am    1  UNL1       -0.2738
     15 C           6.6389    0.4081   27.8096 C.2     1  UNL1        0.2551
     16 O           6.8673    1.8772   28.0081 O.2     1  UNL1       -0.2694
     17 C           5.5573   -0.0645   26.8841 C.ar    1  UNL1        0.0830
     18 C           4.1082   -0.2315   27.2339 C.ar    1  UNL1        0.0115
     19 C           3.3901   -0.7232   26.0122 C.ar    1  UNL1        0.0071
     20 C           4.3953   -0.8601   24.9073 C.ar    1  UNL1        0.0297
     21 S           5.7347   -0.4531   25.4461 S.2     1  UNL1       -0.0824
     22 C           4.1111   -1.3230   23.5091 C.ar    1  UNL1        0.0092
     23 C           3.1704   -0.5443   22.6380 C.ar    1  UNL1        0.0038
     24 C           2.8861   -1.0071   21.2398 C.ar    1  UNL1        0.0401
     25 C           3.5426   -2.2485   20.7126 C.ar    1  UNL1        0.1724
     26 C           4.4834   -3.0272   21.5836 C.ar    1  UNL1        0.1724
     27 C           4.7676   -2.5644   22.9819 C.ar    1  UNL1        0.0405
     28 O           5.1398   -4.2686   21.0565 O.3     1  UNL1       -0.4684
     29 C           4.8556   -4.7313   19.6583 C.3     1  UNL1        0.2526
     30 C           3.9149   -3.9527   18.7872 C.3     1  UNL1        0.2526
     31 O           3.2584   -2.7113   19.3144 O.3     1  UNL1       -0.4684
     32 N           9.2931   -2.9362   22.1196 N.3     1  UNL1       -0.2982
     33 H          10.0258   -3.3716   21.5593 H       1  UNL1        0.1232
     34 C           8.3770   -2.2321   21.1629 C.3     1  UNL1        0.0540
     35 C           8.1430   -2.7990   19.7940 C.3     1  UNL1        0.0157
     36 C           7.2270   -2.0950   18.8373 C.3     1  UNL1        0.0014
     37 C           6.5450   -0.8242   19.2496 C.3     1  UNL1        0.0001
     38 C           5.6770    0.3971   19.1777 C.3     1  UNL1        0.0000
     39 C           6.0095   -0.9669   17.8556 C.3     1  UNL1        0.0000
     40 C           6.7790   -0.2574   20.6184 C.3     1  UNL1        0.0014
     41 C           7.6950   -0.9614   21.5751 C.3     1  UNL1        0.0157
@<TRIPOS>BOND
     1    13    14    1
     2    14    15   am
     3    15    16    2
     4    15    17    1
     5    17    18   ar
     6    18    19   ar
     7    19    20   ar
     8    20    22    1
     9    22    23   ar
    10    23    24   ar
    11    24    25   ar
    12    25    26   ar
    13    26    27   ar
    14    26    28    1
    15    28    29    1
    16    29    30    1
    17    30    31    1
    18    20    21   ar
    19     1    14    1
    20     1     2    1
    21     2     3    1
    22     3     4    1
    23     4     5   am
    24     5     6    2
    25     5     7   am
    26     7     8    1
    27     8     9    1
    28     9    10    1
    29    10    32    1
    30    32    34    1
    31    34    35    1
    32    35    36    1
    33    36    37    1
    34    37    38    1
    35    37    39    1
    36    37    40    1
    37    40    41    1
    38    10    11    1
    39     4    12    1
    40    21    17   ar
    41    12     1    1
    42    27    22   ar
    43    11     7    1
    44    31    25    1
    45    41    34    1
    46    32    33    1
@<TRIPOS>MOLECULE
*****
 41 46 0 0 0
SMALL
GASTEIGER

@<TRIPOS>ATOM
      1 C           7.5558   -3.0457   21.3751 C.3     1  UNL1        0.0972
      2 C           7.5725   -4.3443   22.1258 C.3     1  UNL1        0.0431
      3 C           7.0853   -4.0803   23.5196 C.3     1  UNL1        0.0968
      4 N           6.7675   -2.6185   23.6304 N.am    1  UNL1       -0.2623
      5 C           6.2498   -1.9189   24.8522 C.2     1  UNL1        0.3073
      6 O           6.0054   -2.6938   26.1131 O.2     1  UNL1       -0.2523
      7 N           5.9766   -0.4446   24.8130 N.am    1  UNL1       -0.2626
      8 C           5.4600    0.3869   25.9495 C.3     1  UNL1        0.0964
      9 C           5.3360    1.8025   25.4694 C.3     1  UNL1        0.0390
     10 C           5.7760    1.8459   24.0360 C.3     1  UNL1        0.0758
     11 C           6.1719    0.4571   23.6303 C.3     1  UNL1        0.1106
     12 C           7.0584   -1.9792   22.3051 C.3     1  UNL1        0.1147
     13 C           9.4067   -2.9793   19.5530 C.3     1  UNL1        0.1152
     14 N           7.9649   -2.8485   19.9455 N.am    1  UNL1       -0.2738
     15 C           6.9320   -2.5204   18.9084 C.2     1  UNL1        0.2551
     16 O           7.3410   -2.3232   17.4788 O.2     1  UNL1       -0.2694
     17 C           5.4903   -2.3896   19.3009 C.ar    1  UNL1        0.0830
     18 C           4.4651   -3.4842   19.2696 C.ar    1  UNL1        0.0115
     19 C           3.1617   -2.9123   19.7430 C.ar    1  UNL1        0.0071
     20 C           3.3813   -1.4643   20.0669 C.ar    1  UNL1        0.0297
     21 S           4.8204   -1.1411   19.7937 S.2     1  UNL1       -0.0824
     22 C           2.3439   -0.5072   20.5749 C.ar    1  UNL1        0.0092
     23 C           1.1576   -0.1655   19.7229 C.ar    1  UNL1        0.0038
     24 C           0.1202    0.7915   20.2307 C.ar    1  UNL1        0.0401
     25 C           0.2691    1.4068   21.5907 C.ar    1  UNL1        0.1724
     26 C           1.4554    1.0650   22.4427 C.ar    1  UNL1        0.1724
     27 C           2.4928    0.1080   21.9347 C.ar    1  UNL1        0.0405
     28 O           1.6043    1.6802   23.8025 O.3     1  UNL1       -0.4684
     29 C           0.5670    2.6372   24.3104 C.3     1  UNL1        0.2526
     30 C          -0.6193    2.9790   23.4584 C.3     1  UNL1        0.2526
     31 O          -0.7683    2.3638   22.0986 O.3     1  UNL1       -0.4684
     32 N           5.8136    3.0643   23.1617 N.3     1  UNL1       -0.2982
     33 H           6.7282    3.0747   22.7104 H       1  UNL1        0.1232
     34 C           4.7931    3.2404   22.0764 C.3     1  UNL1        0.0540
     35 C           4.9768    2.5535   20.7556 C.3     1  UNL1        0.0157
     36 C           3.9564    2.7296   19.6705 C.3     1  UNL1        0.0014
     37 C           2.7523    3.5925   19.9060 C.3     1  UNL1        0.0001
     38 C           1.4556    4.3026   19.6522 C.3     1  UNL1        0.0000
     39 C           2.4856    3.1523   18.4971 C.3     1  UNL1        0.0000
     40 C           2.5686    4.2794   21.2268 C.3     1  UNL1        0.0014
     41 C           3.5890    4.1033   22.3120 C.3     1  UNL1        0.0157
@<TRIPOS>BOND
     1    13    14    1
     2    14    15   am
     3    15    16    2
     4    15    17    1
     5    17    18   ar
     6    18    19   ar
     7    19    20   ar
     8    20    22    1
     9    22    23   ar
    10    23    24   ar
    11    24    25   ar
    12    25    26   ar
    13    26    27   ar
    14    26    28    1
    15    28    29    1
    16    29    30    1
    17    30    31    1
    18    20    21   ar
    19     1    14    1
    20     1     2    1
    21     2     3    1
    22     3     4    1
    23     4     5   am
    24     5     6    2
    25     5     7   am
    26     7     8    1
    27     8     9    1
    28     9    10    1
    29    10    32    1
    30    32    34    1
    31    34    35    1
    32    35    36    1
    33    36    37    1
    34    37    38    1
    35    37    39    1
    36    37    40    1
    37    40    41    1
    38    10    11    1
    39     4    12    1
    40    21    17   ar
    41    12     1    1
    42    27    22   ar
    43    11     7    1
    44    31    25    1
    45    41    34    1
    46    32    33    1
@<TRIPOS>MOLECULE
*****
 41 46 0 0 0
SMALL
GASTEIGER

@<TRIPOS>ATOM
      1 C           0.7322    4.0801   25.4018 C.3     1  UNL1        0.0972
      2 C           1.6277    5.0030   26.1739 C.3     1  UNL1        0.0431
      3 C           0.7601    5.9369   26.9644 C.3     1  UNL1        0.0968
      4 N          -0.6718    5.5911   26.6809 N.am    1  UNL1       -0.2623
      5 C          -1.8751    6.2731   27.2612 C.2     1  UNL1        0.3073
      6 O          -1.7012    7.4135   28.2201 O.2     1  UNL1       -0.2523
      7 N          -3.2523    5.8148   26.8827 N.am    1  UNL1       -0.2626
      8 C          -4.5427    6.3966   27.3792 C.3     1  UNL1        0.0964
      9 C          -5.6688    5.6356   26.7446 C.3     1  UNL1        0.0390
     10 C          -5.0744    4.5835   25.8559 C.3     1  UNL1        0.0758
     11 C          -3.5809    4.6942   25.9413 C.3     1  UNL1        0.1106
     12 C          -0.6889    4.4435   25.7151 C.3     1  UNL1        0.1147
     13 C           1.4495    3.2868   23.0340 C.3     1  UNL1        0.1152
     14 N           1.1794    2.9858   24.4784 N.am    1  UNL1       -0.2738
     15 C           1.3567    1.5904   24.9997 C.2     1  UNL1        0.2551
     16 O           1.8039    0.4961   24.0765 O.2     1  UNL1       -0.2694
     17 C           1.0867    1.2895   26.4441 C.ar    1  UNL1        0.0830
     18 C          -0.2554    1.0001   27.0486 C.ar    1  UNL1        0.0115
     19 C          -0.0602    0.7568   28.5158 C.ar    1  UNL1        0.0071
     20 C           1.4024    0.8957   28.8182 C.ar    1  UNL1        0.0297
     21 S           2.1113    1.2249   27.5379 S.2     1  UNL1       -0.0824
     22 C           2.0437    0.7339   30.1645 C.ar    1  UNL1        0.0092
     23 C           2.0453    1.8762   31.1367 C.ar    1  UNL1        0.0038
     24 C           2.6865    1.7144   32.4830 C.ar    1  UNL1        0.0401
     25 C           3.3263    0.4103   32.8572 C.ar    1  UNL1        0.1724
     26 C           3.3247   -0.7321   31.8850 C.ar    1  UNL1        0.1724
     27 C           2.6834   -0.5702   30.5387 C.ar    1  UNL1        0.0405
     28 O           3.9644   -2.0362   32.2592 O.3     1  UNL1       -0.4684
     29 C           4.6056   -2.1980   33.6055 C.3     1  UNL1        0.2526
     30 C           4.6072   -1.0556   34.5776 C.3     1  UNL1        0.2526
     31 O           3.9675    0.2485   34.2035 O.3     1  UNL1       -0.4684
     32 N          -5.8392    3.5942   25.0274 N.3     1  UNL1       -0.2982
     33 H          -6.8103    3.6399   25.3362 H       1  UNL1        0.1232
     34 C          -5.8537    3.7201   23.5327 C.3     1  UNL1        0.0540
     35 C          -6.9395    4.5036   22.8565 C.3     1  UNL1        0.0157
     36 C          -6.9540    4.6295   21.3619 C.3     1  UNL1        0.0014
     37 C          -5.8827    3.9718   20.5435 C.3     1  UNL1        0.0001
     38 C          -5.0933    3.5335   19.3456 C.3     1  UNL1        0.0000
     39 C          -6.6944    4.6031   19.4513 C.3     1  UNL1        0.0000
     40 C          -4.7970    3.1884   21.2196 C.3     1  UNL1        0.0014
     41 C          -4.7824    3.0625   22.7142 C.3     1  UNL1        0.0157
@<TRIPOS>BOND
     1    13    14    1
     2    14    15   am
     3    15    16    2
     4    15    17    1
     5    17    18   ar
     6    18    19   ar
     7    19    20   ar
     8    20    22    1
     9    22    23   ar
    10    23    24   ar
    11    24    25   ar
    12    25    26   ar
    13    26    27   ar
    14    26    28    1
    15    28    29    1
    16    29    30    1
    17    30    31    1
    18    20    21   ar
    19     1    14    1
    20     1     2    1
    21     2     3    1
    22     3     4    1
    23     4     5   am
    24     5     6    2
    25     5     7   am
    26     7     8    1
    27     8     9    1
    28     9    10    1
    29    10    32    1
    30    32    34    1
    31    34    35    1
    32    35    36    1
    33    36    37    1
    34    37    38    1
    35    37    39    1
    36    37    40    1
    37    40    41    1
    38    10    11    1
    39     4    12    1
    40    21    17   ar
    41    12     1    1
    42    27    22   ar
    43    11     7    1
    44    31    25    1
    45    41    34    1
    46    32    33    1
@<TRIPOS>MOLECULE
*****
 41 46 0 0 0
SMALL
GASTEIGER

@<TRIPOS>ATOM
      1 C           2.4986    0.9803   26.4124 C.3     1  UNL1        0.0972
      2 C           3.2215    1.5243   27.6088 C.3     1  UNL1        0.0431
      3 C           4.5434    0.8229   27.7103 C.3     1  UNL1        0.0968
      4 N           4.6376   -0.1547   26.5764 N.am    1  UNL1       -0.2623
      5 C           5.7927   -1.0690   26.2942 C.2     1  UNL1        0.3073
      6 O           6.9963   -1.0550   27.1893 O.2     1  UNL1       -0.2523
      7 N           5.7442   -1.9973   25.1170 N.am    1  UNL1       -0.2626
      8 C           6.8175   -2.9635   24.7113 C.3     1  UNL1        0.0964
      9 C           6.3506   -3.6857   23.4823 C.3     1  UNL1        0.0390
     10 C           4.9887   -3.1659   23.1285 C.3     1  UNL1        0.0758
     11 C           4.6140   -2.1224   24.1388 C.3     1  UNL1        0.1106
     12 C           3.3737   -0.0573   25.7743 C.3     1  UNL1        0.1147
     13 C          -0.0783    1.0432   26.7377 C.3     1  UNL1        0.1152
     14 N           1.1391    1.4003   25.9375 N.am    1  UNL1       -0.2738
     15 C           0.9972    2.1775   24.6624 C.2     1  UNL1        0.2551
     16 O          -0.3622    2.5975   24.1874 O.2     1  UNL1       -0.2694
     17 C           2.2147    2.5346   23.8623 C.ar    1  UNL1        0.0830
     18 C           3.0607    3.7600   24.0434 C.ar    1  UNL1        0.0115
     19 C           4.1688    3.7117   23.0336 C.ar    1  UNL1        0.0071
     20 C           4.0076    2.4565   22.2283 C.ar    1  UNL1        0.0297
     21 S           2.8000    1.7290   22.7404 S.2     1  UNL1       -0.0824
     22 C           4.8979    2.0076   21.1075 C.ar    1  UNL1        0.0092
     23 C           5.8067    0.8294   21.2976 C.ar    1  UNL1        0.0038
     24 C           6.6969    0.3805   20.1769 C.ar    1  UNL1        0.0401
     25 C           6.6784    1.1097   18.8662 C.ar    1  UNL1        0.1724
     26 C           5.7696    2.2879   18.6762 C.ar    1  UNL1        0.1724
     27 C           4.8794    2.7368   19.7969 C.ar    1  UNL1        0.0405
     28 O           5.7511    3.0171   17.3655 O.3     1  UNL1       -0.4684
     29 C           6.6413    2.5682   16.2449 C.3     1  UNL1        0.2526
     30 C           7.5501    1.3900   16.4349 C.3     1  UNL1        0.2526
     31 O           7.5686    0.6608   17.7455 O.3     1  UNL1       -0.4684
     32 N           4.1491   -3.6114   21.9681 N.3     1  UNL1       -0.2982
     33 H           3.2167   -3.8020   22.3353 H       1  UNL1        0.1232
     34 C           3.9713   -2.7110   20.7815 C.3     1  UNL1        0.0540
     35 C           2.9903   -1.5778   20.8402 C.3     1  UNL1        0.0157
     36 C           2.8126   -0.6775   19.6538 C.3     1  UNL1        0.0014
     37 C           3.6159   -0.9103   18.4086 C.3     1  UNL1        0.0001
     38 C           4.1419   -0.7275   17.0157 C.3     1  UNL1        0.0000
     39 C           2.8175    0.2864   17.9836 C.3     1  UNL1        0.0000
     40 C           4.5969   -2.0434   18.3499 C.3     1  UNL1        0.0014
     41 C           4.7746   -2.9438   19.5364 C.3     1  UNL1        0.0157
@<TRIPOS>BOND
     1    13    14    1
     2    14    15   am
     3    15    16    2
     4    15    17    1
     5    17    18   ar
     6    18    19   ar
     7    19    20   ar
     8    20    22    1
     9    22    23   ar
    10    23    24   ar
    11    24    25   ar
    12    25    26   ar
    13    26    27   ar
    14    26    28    1
    15    28    29    1
    16    29    30    1
    17    30    31    1
    18    20    21   ar
    19     1    14    1
    20     1     2    1
    21     2     3    1
    22     3     4    1
    23     4     5   am
    24     5     6    2
    25     5     7   am
    26     7     8    1
    27     8     9    1
    28     9    10    1
    29    10    32    1
    30    32    34    1
    31    34    35    1
    32    35    36    1
    33    36    37    1
    34    37    38    1
    35    37    39    1
    36    37    40    1
    37    40    41    1
    38    10    11    1
    39     4    12    1
    40    21    17   ar
    41    12     1    1
    42    27    22   ar
    43    11     7    1
    44    31    25    1
    45    41    34    1
    46    32    33    1
@<TRIPOS>MOLECULE
*****
 41 46 0 0 0
SMALL
GASTEIGER

@<TRIPOS>ATOM
      1 C          -2.9769    4.7748   26.1605 C.3     1  UNL1        0.0972
      2 C          -4.3334    4.1946   26.4312 C.3     1  UNL1        0.0431
      3 C          -4.8815    3.6731   25.1361 C.3     1  UNL1        0.0968
      4 N          -3.8637    3.9311   24.0647 N.am    1  UNL1       -0.2623
      5 C          -3.9992    3.5713   22.6148 C.2     1  UNL1        0.3073
      6 O          -5.2418    2.8890   22.1244 O.2     1  UNL1       -0.2523
      7 N          -2.8923    3.8939   21.6554 N.am    1  UNL1       -0.2626
      8 C          -2.8853    3.5968   20.1851 C.3     1  UNL1        0.0964
      9 C          -1.5866    4.0895   19.6188 C.3     1  UNL1        0.0390
     10 C          -0.7910    4.6912   20.7391 C.3     1  UNL1        0.0758
     11 C          -1.5980    4.5703   21.9978 C.3     1  UNL1        0.1106
     12 C          -2.6866    4.6119   24.6979 C.3     1  UNL1        0.1147
     13 C          -2.4405    6.7204   27.7966 C.3     1  UNL1        0.1152
     14 N          -2.0700    5.4068   27.1744 N.am    1  UNL1       -0.2738
     15 C          -0.7925    4.7252   27.5661 C.2     1  UNL1        0.2551
     16 O           0.1145    5.3572   28.5800 O.2     1  UNL1       -0.2694
     17 C          -0.4219    3.4116   26.9439 C.ar    1  UNL1        0.0830
     18 C          -0.6935    2.0543   27.5220 C.ar    1  UNL1        0.0115
     19 C          -0.1542    1.0285   26.5697 C.ar    1  UNL1        0.0071
     20 C           0.4506    1.7517   25.4030 C.ar    1  UNL1        0.0297
     21 S           0.2852    3.2246   25.6342 S.2     1  UNL1       -0.0824
     22 C           1.1059    1.1141   24.2138 C.ar    1  UNL1        0.0092
     23 C           2.3197    0.2525   24.3987 C.ar    1  UNL1        0.0038
     24 C           2.9750   -0.3851   23.2096 C.ar    1  UNL1        0.0401
     25 C           2.4165   -0.1611   21.8355 C.ar    1  UNL1        0.1724
     26 C           1.2027    0.7005   21.6507 C.ar    1  UNL1        0.1724
     27 C           0.5474    1.3382   22.8399 C.ar    1  UNL1        0.0405
     28 O           0.6441    0.9246   20.2767 O.3     1  UNL1       -0.4684
     29 C           1.2994    0.2870   19.0876 C.3     1  UNL1        0.2526
     30 C           2.5133   -0.5747   19.2725 C.3     1  UNL1        0.2526
     31 O           3.0718   -0.7987   20.6464 O.3     1  UNL1       -0.4684
     32 N           0.5722    5.3058   20.6214 N.3     1  UNL1       -0.2982
     33 H           0.5394    6.1933   21.1230 H       1  UNL1        0.1232
     34 C           1.7748    4.5661   21.1284 C.3     1  UNL1        0.0540
     35 C           2.1201    4.6066   22.5875 C.3     1  UNL1        0.0157
     36 C           3.3225    3.8670   23.0944 C.3     1  UNL1        0.0014
     37 C           4.1797    3.0869   22.1423 C.3     1  UNL1        0.0001
     38 C           5.2908    2.2157   21.6357 C.3     1  UNL1        0.0000
     39 C           4.9109    2.8249   23.4255 C.3     1  UNL1        0.0000
     40 C           3.8344    3.0464   20.6832 C.3     1  UNL1        0.0014
     41 C           2.6319    3.7860   20.1762 C.3     1  UNL1        0.0157
@<TRIPOS>BOND
     1    13    14    1
     2    14    15   am
     3    15    16    2
     4    15    17    1
     5    17    18   ar
     6    18    19   ar
     7    19    20   ar
     8    20    22    1
     9    22    23   ar
    10    23    24   ar
    11    24    25   ar
    12    25    26   ar
    13    26    27   ar
    14    26    28    1
    15    28    29    1
    16    29    30    1
    17    30    31    1
    18    20    21   ar
    19     1    14    1
    20     1     2    1
    21     2     3    1
    22     3     4    1
    23     4     5   am
    24     5     6    2
    25     5     7   am
    26     7     8    1
    27     8     9    1
    28     9    10    1
    29    10    32    1
    30    32    34    1
    31    34    35    1
    32    35    36    1
    33    36    37    1
    34    37    38    1
    35    37    39    1
    36    37    40    1
    37    40    41    1
    38    10    11    1
    39     4    12    1
    40    21    17   ar
    41    12     1    1
    42    27    22   ar
    43    11     7    1
    44    31    25    1
    45    41    34    1
    46    32    33    1
@<TRIPOS>MOLECULE
*****
 41 46 0 0 0
SMALL
GASTEIGER

@<TRIPOS>ATOM
      1 C           1.6240    4.4424   20.6463 C.3     1  UNL1        0.0972
      2 C           1.8390    5.5651   21.6175 C.3     1  UNL1        0.0431
      3 C           3.3158    5.8006   21.7343 C.3     1  UNL1        0.0968
      4 N           4.0134    4.8232   20.8352 N.am    1  UNL1       -0.2623
      5 C           5.4964    4.7059   20.6425 C.2     1  UNL1        0.3073
      6 O           6.4241    5.6196   21.3872 O.2     1  UNL1       -0.2523
      7 N           6.0516    3.6750   19.7050 N.am    1  UNL1       -0.2626
      8 C           7.5039    3.4409   19.4118 C.3     1  UNL1        0.0964
      9 C           7.6019    2.3183   18.4217 C.3     1  UNL1        0.0390
     10 C           6.2100    1.8586   18.1031 C.3     1  UNL1        0.0758
     11 C           5.2519    2.6970   18.8962 C.3     1  UNL1        0.1106
     12 C           2.9678    3.9839   20.1629 C.3     1  UNL1        0.1147
     13 C          -0.5083    4.5602   19.1666 C.3     1  UNL1        0.1152
     14 N           0.2978    3.8775   20.2315 N.am    1  UNL1       -0.2738
     15 C          -0.2223    2.6297   20.8817 C.2     1  UNL1        0.2551
     16 O          -1.5485    2.0647   20.4669 O.2     1  UNL1       -0.2694
     17 C           0.5838    1.9470   21.9466 C.ar    1  UNL1        0.0830
     18 C           0.5825    2.2871   23.4076 C.ar    1  UNL1        0.0115
     19 C           1.5306    1.3547   24.1014 C.ar    1  UNL1        0.0071
     20 C           2.1180    0.4383   23.0694 C.ar    1  UNL1        0.0297
     21 S           1.5329    0.8043   21.7376 S.2     1  UNL1       -0.0824
     22 C           3.1154   -0.6528   23.3243 C.ar    1  UNL1        0.0092
     23 C           3.4530   -1.6293   22.2368 C.ar    1  UNL1        0.0038
     24 C           4.4504   -2.7203   22.4917 C.ar    1  UNL1        0.0401
     25 C           5.1102   -2.8348   23.8340 C.ar    1  UNL1        0.1724
     26 C           4.7725   -1.8583   24.9214 C.ar    1  UNL1        0.1724
     27 C           3.7751   -0.7673   24.6665 C.ar    1  UNL1        0.0405
     28 O           5.4322   -1.9728   26.2636 O.3     1  UNL1       -0.4684
     29 C           6.4296   -3.0638   26.5184 C.3     1  UNL1        0.2526
     30 C           6.7672   -4.0402   25.4310 C.3     1  UNL1        0.2526
     31 O           6.1075   -3.9258   24.0888 O.3     1  UNL1       -0.4684
     32 N           5.8411    0.7543   17.1574 N.3     1  UNL1       -0.2982
     33 H           6.6598    0.5798   16.5746 H       1  UNL1        0.1232
     34 C           5.3995   -0.5756   17.6929 C.3     1  UNL1        0.0540
     35 C           6.4027   -1.6712   17.9004 C.3     1  UNL1        0.0157
     36 C           5.9611   -3.0009   18.4358 C.3     1  UNL1        0.0014
     37 C           4.5163   -3.2350   18.7638 C.3     1  UNL1        0.0001
     38 C           3.2695   -3.9340   19.2188 C.3     1  UNL1        0.0000
     39 C           5.0866   -4.5734   19.1293 C.3     1  UNL1        0.0000
     40 C           3.5131   -2.1395   18.5563 C.3     1  UNL1        0.0014
     41 C           3.9546   -0.8097   18.0208 C.3     1  UNL1        0.0157
@<TRIPOS>BOND
     1    13    14    1
     2    14    15   am
     3    15    16    2
     4    15    17    1
     5    17    18   ar
     6    18    19   ar
     7    19    20   ar
     8    20    22    1
     9    22    23   ar
    10    23    24   ar
    11    24    25   ar
    12    25    26   ar
    13    26    27   ar
    14    26    28    1
    15    28    29    1
    16    29    30    1
    17    30    31    1
    18    20    21   ar
    19     1    14    1
    20     1     2    1
    21     2     3    1
    22     3     4    1
    23     4     5   am
    24     5     6    2
    25     5     7   am
    26     7     8    1
    27     8     9    1
    28     9    10    1
    29    10    32    1
    30    32    34    1
    31    34    35    1
    32    35    36    1
    33    36    37    1
    34    37    38    1
    35    37    39    1
    36    37    40    1
    37    40    41    1
    38    10    11    1
    39     4    12    1
    40    21    17   ar
    41    12     1    1
    42    27    22   ar
    43    11     7    1
    44    31    25    1
    45    41    34    1
    46    32    33    1
@<TRIPOS>MOLECULE
*****
 41 46 0 0 0
SMALL
GASTEIGER

@<TRIPOS>ATOM
      1 C           7.5728   -2.1011   20.4631 C.3     1  UNL1        0.0972
      2 C           8.5716   -1.4464   19.5555 C.3     1  UNL1        0.0431
      3 C           8.7666   -0.0344   20.0224 C.3     1  UNL1        0.0968
      4 N           7.8883    0.1835   21.2188 N.am    1  UNL1       -0.2623
      5 C           7.7689    1.4555   22.0048 C.2     1  UNL1        0.3073
      6 O           8.5741    2.6585   21.6118 O.2     1  UNL1       -0.2523
      7 N           6.8442    1.5245   23.1839 N.am    1  UNL1       -0.2626
      8 C           6.6210    2.7210   24.0605 C.3     1  UNL1        0.0964
      9 C           5.6192    2.3451   25.1117 C.3     1  UNL1        0.0390
     10 C           5.2233    0.9162   24.8848 C.3     1  UNL1        0.0758
     11 C           5.9804    0.4090   23.6933 C.3     1  UNL1        0.1106
     12 C           7.1506   -1.0938   21.4911 C.3     1  UNL1        0.1147
     13 C           7.9343   -4.6427   20.8635 C.3     1  UNL1        0.1152
     14 N           7.0825   -3.5151   20.3606 N.am    1  UNL1       -0.2738
     15 C           5.7403   -3.8013   19.7552 C.2     1  UNL1        0.2551
     16 O           5.2498   -5.2151   19.6527 O.2     1  UNL1       -0.2694
     17 C           4.8884   -2.6737   19.2524 C.ar    1  UNL1        0.0830
     18 C           4.9822   -2.0334   17.8991 C.ar    1  UNL1        0.0115
     19 C           3.9450   -0.9523   17.8249 C.ar    1  UNL1        0.0071
     20 C           3.2102   -0.9244   19.1323 C.ar    1  UNL1        0.0297
     21 S           3.7932   -1.9882   20.0146 S.2     1  UNL1       -0.0824
     22 C           2.0891    0.0043   19.4940 C.ar    1  UNL1        0.0092
     23 C           1.4781   -0.0549   20.8626 C.ar    1  UNL1        0.0038
     24 C           0.3571    0.8737   21.2243 C.ar    1  UNL1        0.0401
     25 C          -0.1531    1.8616   20.2174 C.ar    1  UNL1        0.1724
     26 C           0.4579    1.9208   18.8487 C.ar    1  UNL1        0.1724
     27 C           1.5790    0.9921   18.4870 C.ar    1  UNL1        0.0405
     28 O          -0.0522    2.9086   17.8418 O.3     1  UNL1       -0.4684
     29 C          -1.1732    3.8372   18.2035 C.3     1  UNL1        0.2526
     30 C          -1.7842    3.7780   19.5722 C.3     1  UNL1        0.2526
     31 O          -1.2741    2.7902   20.5791 O.3     1  UNL1       -0.4684
     32 N           4.2425    0.1321   25.7053 N.3     1  UNL1       -0.2982
     33 H           4.6501    0.0317   26.6349 H       1  UNL1        0.1232
     34 C           2.8462    0.6453   25.8978 C.3     1  UNL1        0.0540
     35 C           2.0659    1.1554   24.7226 C.3     1  UNL1        0.0157
     36 C           0.6697    1.6686   24.9151 C.3     1  UNL1        0.0014
     37 C           0.0537    1.6718   26.2827 C.3     1  UNL1        0.0001
     38 C          -0.9550    1.8769   27.3739 C.3     1  UNL1        0.0000
     39 C          -1.0769    2.2531   25.4865 C.3     1  UNL1        0.0000
     40 C           0.8339    1.1618   27.4579 C.3     1  UNL1        0.0014
     41 C           2.2301    0.6485   27.2655 C.3     1  UNL1        0.0157
@<TRIPOS>BOND
     1    13    14    1
     2    14    15   am
     3    15    16    2
     4    15    17    1
     5    17    18   ar
     6    18    19   ar
     7    19    20   ar
     8    20    22    1
     9    22    23   ar
    10    23    24   ar
    11    24    25   ar
    12    25    26   ar
    13    26    27   ar
    14    26    28    1
    15    28    29    1
    16    29    30    1
    17    30    31    1
    18    20    21   ar
    19     1    14    1
    20     1     2    1
    21     2     3    1
    22     3     4    1
    23     4     5   am
    24     5     6    2
    25     5     7   am
    26     7     8    1
    27     8     9    1
    28     9    10    1
    29    10    32    1
    30    32    34    1
    31    34    35    1
    32    35    36    1
    33    36    37    1
    34    37    38    1
    35    37    39    1
    36    37    40    1
    37    40    41    1
    38    10    11    1
    39     4    12    1
    40    21    17   ar
    41    12     1    1
    42    27    22   ar
    43    11     7    1
    44    31    25    1
    45    41    34    1
    46    32    33    1
@<TRIPOS>MOLECULE
*****
 41 46 0 0 0
SMALL
GASTEIGER

@<TRIPOS>ATOM
      1 C           2.0223    3.5409   37.4697 C.3     1  UNL1        0.0972
      2 C           2.1558    5.0123   37.7287 C.3     1  UNL1        0.0431
      3 C           2.4489    5.6883   36.4221 C.3     1  UNL1        0.0968
      4 N           2.4966    4.6345   35.3556 N.am    1  UNL1       -0.2623
      5 C           2.7614    4.8670   33.8976 C.2     1  UNL1        0.3073
      6 O           3.0094    6.2577   33.3929 O.2     1  UNL1       -0.2523
      7 N           2.7782    3.7090   32.9444 N.am    1  UNL1       -0.2626
      8 C           3.0276    3.7865   31.4673 C.3     1  UNL1        0.0964
      9 C           2.9521    2.3956   30.9108 C.3     1  UNL1        0.0390
     10 C           2.6560    1.4585   32.0441 C.3     1  UNL1        0.0758
     11 C           2.5485    2.2702   33.3008 C.3     1  UNL1        0.1106
     12 C           2.2329    3.3074   36.0032 C.3     1  UNL1        0.1147
     13 C           0.3919    2.4527   39.1750 C.3     1  UNL1        0.1152
     14 N           1.7296    2.4880   38.4972 N.am    1  UNL1       -0.2738
     15 C           2.7746    1.4703   38.8468 C.2     1  UNL1        0.2551
     16 O           2.4820    0.4173   39.8742 O.2     1  UNL1       -0.2694
     17 C           4.1122    1.5056   38.1690 C.ar    1  UNL1        0.0830
     18 C           5.3724    2.0900   38.7351 C.ar    1  UNL1        0.0115
     19 C           6.4636    1.9083   37.7221 C.ar    1  UNL1        0.0071
     20 C           5.8779    1.2115   36.5299 C.ar    1  UNL1        0.0297
     21 S           4.4247    0.9626   36.8060 S.2     1  UNL1       -0.0824
     22 C           6.6158    0.8305   35.2807 C.ar    1  UNL1        0.0092
     23 C           7.7395   -0.1610   35.3463 C.ar    1  UNL1        0.0038
     24 C           8.4774   -0.5421   34.0972 C.ar    1  UNL1        0.0401
     25 C           8.0916    0.0684   32.7824 C.ar    1  UNL1        0.1724
     26 C           6.9679    1.0598   32.7168 C.ar    1  UNL1        0.1724
     27 C           6.2300    1.4409   33.9660 C.ar    1  UNL1        0.0405
     28 O           6.5821    1.6703   31.4021 O.3     1  UNL1       -0.4684
     29 C           7.3200    1.2892   30.1530 C.3     1  UNL1        0.2526
     30 C           8.4437    0.2977   30.2186 C.3     1  UNL1        0.2526
     31 O           8.8295   -0.3127   31.5333 O.3     1  UNL1       -0.4684
     32 N           2.4955   -0.0292   31.9390 N.3     1  UNL1       -0.2982
     33 H           1.8851   -0.2039   31.1406 H       1  UNL1        0.1232
     34 C           3.7018   -0.9030   31.7611 C.3     1  UNL1        0.0540
     35 C           4.3530   -1.0175   30.4147 C.3     1  UNL1        0.0157
     36 C           5.5592   -1.8912   30.2369 C.3     1  UNL1        0.0014
     37 C           6.1142   -2.6504   31.4055 C.3     1  UNL1        0.0001
     38 C           7.0026   -3.5590   32.2026 C.3     1  UNL1        0.0000
     39 C           7.0739   -3.0805   30.3358 C.3     1  UNL1        0.0000
     40 C           5.4631   -2.5359   32.7518 C.3     1  UNL1        0.0014
     41 C           4.2568   -1.6622   32.9297 C.3     1  UNL1        0.0157
@<TRIPOS>BOND
     1    13    14    1
     2    14    15   am
     3    15    16    2
     4    15    17    1
     5    17    18   ar
     6    18    19   ar
     7    19    20   ar
     8    20    22    1
     9    22    23   ar
    10    23    24   ar
    11    24    25   ar
    12    25    26   ar
    13    26    27   ar
    14    26    28    1
    15    28    29    1
    16    29    30    1
    17    30    31    1
    18    20    21   ar
    19     1    14    1
    20     1     2    1
    21     2     3    1
    22     3     4    1
    23     4     5   am
    24     5     6    2
    25     5     7   am
    26     7     8    1
    27     8     9    1
    28     9    10    1
    29    10    32    1
    30    32    34    1
    31    34    35    1
    32    35    36    1
    33    36    37    1
    34    37    38    1
    35    37    39    1
    36    37    40    1
    37    40    41    1
    38    10    11    1
    39     4    12    1
    40    21    17   ar
    41    12     1    1
    42    27    22   ar
    43    11     7    1
    44    31    25    1
    45    41    34    1
    46    32    33    1
