@<TRIPOS>MOLECULE
*****
 43 46 0 0 0
SMALL
GASTEIGER

@<TRIPOS>ATOM
      1 C           0.9714    1.7085   26.8427 C.ar    1  UNL1        0.0053
      2 C          -0.2064    2.0181   25.9670 C.ar    1  UNL1        0.0033
      3 C          -0.1621    1.6848   24.5052 C.ar    1  UNL1        0.0382
      4 C           1.0599    1.0421   23.9191 C.ar    1  UNL1        0.1529
      5 C           2.2377    0.7325   24.7949 C.ar    1  UNL1        0.0882
      6 C           2.1935    1.0658   26.2567 C.ar    1  UNL1        0.0181
      7 N           3.4597    0.0898   24.2088 N.am    1  UNL1       -0.2512
      8 C           3.5040   -0.2435   22.7470 C.2     1  UNL1        0.2698
      9 O           4.7260   -0.8863   22.1609 O.2     1  UNL1       -0.2704
     10 C           2.3262    0.0660   21.8711 C.3     1  UNL1        0.2197
     11 C           1.4694    0.1642   20.6438 C.3     1  UNL1        0.0579
     12 O           1.1041    0.7088   22.4572 O.3     1  UNL1       -0.4686
     13 C           0.3923    1.0414   29.2860 C.ar    1  UNL1        0.0645
     14 N           0.3481    1.3746   30.7479 N.ar    1  UNL1       -0.2183
     15 C           0.8388    2.7082   31.2284 C.ar    1  UNL1        0.2145
     16 N           0.7946    3.0414   32.6902 N.pl3   1  UNL1       -0.3274
     17 N           1.3737    3.7086   30.2469 N.ar    1  UNL1       -0.1995
     18 C           1.4179    3.3754   28.7850 C.ar    1  UNL1        0.1293
     19 N           1.9527    4.3757   27.8036 N.pl3   1  UNL1       -0.3425
     20 C           0.9272    2.0418   28.3046 C.ar    1  UNL1        0.0449
     21 H           0.4435    2.3848   33.3343 H       1  UNL1        0.1452
     22 H           1.1166    3.9167   33.0055 H       1  UNL1        0.1452
     23 H           2.2748    5.2510   28.1190 H       1  UNL1        0.1437
     24 H           1.9818    4.1570   26.8442 H       1  UNL1        0.1437
     25 C          -1.5632   -0.6122   28.8483 C.3     1  UNL1        0.0067
     26 C          -0.0983   -0.2922   28.8056 C.3     1  UNL1        0.0460
     27 C           3.2506   -0.5426   20.8589 C.ar    1  UNL1        0.0219
     28 C           4.1718    0.3330   20.0623 C.ar    1  UNL1       -0.0005
     29 C           5.0964   -0.2757   19.0500 C.ar    1  UNL1       -0.0003
     30 C           5.0997   -1.7600   18.8342 C.ar    1  UNL1        0.0038
     31 C           4.1785   -2.6357   19.6308 C.ar    1  UNL1        0.0712
     32 C           3.2539   -2.0271   20.6431 C.ar    1  UNL1        0.0034
     33 C           4.1818   -4.1201   19.4150 C.3     1  UNL1        0.4186
     34 F           4.1851   -5.6046   19.1992 F       1  UNL1       -0.1659
     35 F           2.7411   -4.0633   19.0014 F       1  UNL1       -0.1659
     36 F           5.6225   -4.1770   19.8286 F       1  UNL1       -0.1659
     37 C           4.6375   -0.2198   25.0845 C.3     1  UNL1        0.1196
     38 C           4.8311   -1.6082   25.6181 C.3     1  UNL1        0.1113
     39 N           5.0714   -2.7481   24.6731 N.am    1  UNL1       -0.3026
     40 C           6.4721   -3.1157   24.2821 C.2     1  UNL1        0.2230
     41 C           6.7124   -4.2555   23.3372 C.3     1  UNL1        0.0946
     42 O           7.6326   -2.3433   24.8362 O.2     1  UNL1       -0.2751
     43 H           4.3097   -3.2550   24.3095 H       1  UNL1        0.1495
@<TRIPOS>BOND
     1    25    26    1
     2    26    13    1
     3    13    14   ar
     4    14    15   ar
     5    15    16    1
     6    15    17   ar
     7    17    18   ar
     8    18    19    1
     9    18    20   ar
    10    20     1    1
    11     1     2   ar
    12     2     3   ar
    13     3     4   ar
    14     4     5   ar
    15     5     6   ar
    16     5     7    1
    17     7    37    1
    18    37    38    1
    19    38    39    1
    20    39    40   am
    21    40    41    1
    22    40    42    2
    23     7     8   am
    24     8     9    2
    25     8    10    1
    26    10    11    1
    27    10    27    1
    28    27    28   ar
    29    28    29   ar
    30    29    30   ar
    31    30    31   ar
    32    31    33    1
    33    33    34    1
    34    33    35    1
    35    33    36    1
    36    31    32   ar
    37    10    12    1
    38    20    13   ar
    39     6     1   ar
    40    32    27   ar
    41    12     4    1
    42    16    21    1
    43    16    22    1
    44    19    23    1
    45    19    24    1
    46    39    43    1
@<TRIPOS>MOLECULE
*****
 43 46 0 0 0
SMALL
GASTEIGER

@<TRIPOS>ATOM
      1 C           0.9081    1.5389   26.5320 C.ar    1  UNL1        0.0053
      2 C          -0.2923    1.9137   25.7145 C.ar    1  UNL1        0.0033
      3 C          -0.2813    1.7091   24.2286 C.ar    1  UNL1        0.0382
      4 C           0.9302    1.1297   23.5602 C.ar    1  UNL1        0.1529
      5 C           2.1306    0.7549   24.3778 C.ar    1  UNL1        0.0882
      6 C           2.1196    0.9595   25.8637 C.ar    1  UNL1        0.0181
      7 N           3.3420    0.1754   23.7094 N.am    1  UNL1       -0.2512
      8 C           3.3530   -0.0291   22.2235 C.2     1  UNL1        0.2698
      9 O           4.5645   -0.6086   21.5551 O.2     1  UNL1       -0.2704
     10 C           2.1526    0.3457   21.4059 C.3     1  UNL1        0.2197
     11 C           1.2659    0.5431   20.2122 C.3     1  UNL1        0.0579
     12 O           0.9411    0.9251   22.0742 O.3     1  UNL1       -0.4686
     13 C           1.5110    2.9776   28.6097 C.ar    1  UNL1        0.0645
     14 N           1.5001    3.1822   30.0956 N.ar    1  UNL1       -0.2183
     15 C           0.8753    2.1527   30.9899 C.ar    1  UNL1        0.2145
     16 N           0.8643    2.3573   32.4758 N.pl3   1  UNL1       -0.3274
     17 N           0.2614    0.9185   30.3982 N.ar    1  UNL1       -0.1995
     18 C           0.2724    0.7140   28.9122 C.ar    1  UNL1        0.1293
     19 N          -0.3415   -0.5202   28.3205 N.pl3   1  UNL1       -0.3425
     20 C           0.8972    1.7435   28.0180 C.ar    1  UNL1        0.0449
     21 H           1.2672    3.1673   32.8642 H       1  UNL1        0.1452
     22 H           0.4542    1.6816   33.0628 H       1  UNL1        0.1452
     23 H          -0.7516   -1.1959   28.9075 H       1  UNL1        0.1437
     24 H          -0.3343   -0.6545   27.3453 H       1  UNL1        0.1437
     25 C           1.3301    5.1828   27.2479 C.3     1  UNL1        0.0067
     26 C           2.1359    4.0071   27.7154 C.3     1  UNL1        0.0460
     27 C           3.0560   -0.1651   20.3230 C.ar    1  UNL1        0.0219
     28 C           3.8257    0.8000   19.4709 C.ar    1  UNL1       -0.0005
     29 C           4.7293    0.2891   18.3880 C.ar    1  UNL1       -0.0003
     30 C           4.8631   -1.1868   18.1571 C.ar    1  UNL1        0.0038
     31 C           4.0934   -2.1520   19.0092 C.ar    1  UNL1        0.0712
     32 C           3.1899   -1.6413   20.0921 C.ar    1  UNL1        0.0034
     33 C           4.2273   -3.6281   18.7783 C.3     1  UNL1        0.4186
     34 F           4.3611   -5.1042   18.5474 F       1  UNL1       -0.1659
     35 F           2.8488   -3.8396   19.3306 F       1  UNL1       -0.1659
     36 F           5.6058   -3.4167   18.2260 F       1  UNL1       -0.1659
     37 C           4.5424   -0.1994   24.5270 C.3     1  UNL1        0.1196
     38 C           4.9278   -1.6413   24.6760 C.3     1  UNL1        0.1113
     39 N           6.0040   -2.2236   23.8083 N.am    1  UNL1       -0.3026
     40 C           5.6662   -3.2889   22.8077 C.2     1  UNL1        0.2230
     41 C           6.7423   -3.8711   21.9400 C.3     1  UNL1        0.0946
     42 O           4.2523   -3.7718   22.6749 O.2     1  UNL1       -0.2751
     43 H           6.9320   -1.9066   23.8955 H       1  UNL1        0.1495
@<TRIPOS>BOND
     1    25    26    1
     2    26    13    1
     3    13    14   ar
     4    14    15   ar
     5    15    16    1
     6    15    17   ar
     7    17    18   ar
     8    18    19    1
     9    18    20   ar
    10    20     1    1
    11     1     2   ar
    12     2     3   ar
    13     3     4   ar
    14     4     5   ar
    15     5     6   ar
    16     5     7    1
    17     7    37    1
    18    37    38    1
    19    38    39    1
    20    39    40   am
    21    40    41    1
    22    40    42    2
    23     7     8   am
    24     8     9    2
    25     8    10    1
    26    10    11    1
    27    10    27    1
    28    27    28   ar
    29    28    29   ar
    30    29    30   ar
    31    30    31   ar
    32    31    33    1
    33    33    34    1
    34    33    35    1
    35    33    36    1
    36    31    32   ar
    37    10    12    1
    38    20    13   ar
    39     6     1   ar
    40    32    27   ar
    41    12     4    1
    42    16    21    1
    43    16    22    1
    44    19    23    1
    45    19    24    1
    46    39    43    1
@<TRIPOS>MOLECULE
*****
 43 46 0 0 0
SMALL
GASTEIGER

@<TRIPOS>ATOM
      1 C           0.9354    1.6891   26.7378 C.ar    1  UNL1        0.0053
      2 C          -0.2712    1.9804   25.8956 C.ar    1  UNL1        0.0033
      3 C          -0.2611    1.6524   24.4320 C.ar    1  UNL1        0.0382
      4 C           0.9556    1.0331   23.8106 C.ar    1  UNL1        0.1529
      5 C           2.1622    0.7418   24.6528 C.ar    1  UNL1        0.0882
      6 C           2.1520    1.0698   26.1164 C.ar    1  UNL1        0.0181
      7 N           3.3788    0.1225   24.0314 N.am    1  UNL1       -0.2512
      8 C           3.3889   -0.2056   22.5678 C.2     1  UNL1        0.2698
      9 O           4.6056   -0.8249   21.9463 O.2     1  UNL1       -0.2704
     10 C           2.1824    0.0857   21.7255 C.3     1  UNL1        0.2197
     11 C           1.2908    0.1724   20.5223 C.3     1  UNL1        0.0579
     12 O           0.9657    0.7050   22.3469 O.3     1  UNL1       -0.4686
     13 C           0.4139    1.0131   29.1917 C.ar    1  UNL1        0.0645
     14 N           0.4038    1.3410   30.6553 N.ar    1  UNL1       -0.2183
     15 C           0.9051    2.6731   31.1289 C.ar    1  UNL1        0.2145
     16 N           0.8950    3.0011   32.5926 N.pl3   1  UNL1       -0.3274
     17 N           1.4165    3.6772   30.1388 N.ar    1  UNL1       -0.1995
     18 C           1.4266    3.3492   28.6751 C.ar    1  UNL1        0.1293
     19 N           1.9379    4.3533   27.6850 N.pl3   1  UNL1       -0.3425
     20 C           0.9253    2.0172   28.2016 C.ar    1  UNL1        0.0449
     21 H           0.5594    2.3421   33.2424 H       1  UNL1        0.1452
     22 H           1.2240    3.8754   32.9034 H       1  UNL1        0.1452
     23 H           2.2670    5.2276   27.9958 H       1  UNL1        0.1437
     24 H           1.9446    4.1380   26.7244 H       1  UNL1        0.1437
     25 C          -1.5453   -0.6543   28.8288 C.3     1  UNL1        0.0067
     26 C          -0.0874   -0.3191   28.7180 C.3     1  UNL1        0.0460
     27 C           3.0894   -0.5035   20.6862 C.ar    1  UNL1        0.0219
     28 C           3.9210    0.3954   19.8199 C.ar    1  UNL1       -0.0005
     29 C           4.8281   -0.1939   18.7806 C.ar    1  UNL1       -0.0003
     30 C           4.9035   -1.6819   18.6076 C.ar    1  UNL1        0.0038
     31 C           4.0719   -2.5807   19.4739 C.ar    1  UNL1        0.0712
     32 C           3.1648   -1.9916   20.5132 C.ar    1  UNL1        0.0034
     33 C           4.1473   -4.0688   19.3009 C.3     1  UNL1        0.4186
     34 F           4.2228   -5.5570   19.1279 F       1  UNL1       -0.1659
     35 F           5.6119   -4.0320   19.6225 F       1  UNL1       -0.1659
     36 F           2.6826   -4.1057   18.9793 F       1  UNL1       -0.1659
     37 C           4.5854   -0.1688   24.8736 C.3     1  UNL1        0.1196
     38 C           4.8452   -1.5659   25.3539 C.3     1  UNL1        0.1113
     39 N           5.6342   -1.7928   26.6094 N.am    1  UNL1       -0.3026
     40 C           4.9505   -1.7453   27.9436 C.2     1  UNL1        0.2230
     41 C           5.7393   -1.9722   29.1991 C.3     1  UNL1        0.0946
     42 O           3.4778   -1.4710   28.0224 O.2     1  UNL1       -0.2751
     43 H           6.6007   -1.9728   26.5576 H       1  UNL1        0.1495
@<TRIPOS>BOND
     1    25    26    1
     2    26    13    1
     3    13    14   ar
     4    14    15   ar
     5    15    16    1
     6    15    17   ar
     7    17    18   ar
     8    18    19    1
     9    18    20   ar
    10    20     1    1
    11     1     2   ar
    12     2     3   ar
    13     3     4   ar
    14     4     5   ar
    15     5     6   ar
    16     5     7    1
    17     7    37    1
    18    37    38    1
    19    38    39    1
    20    39    40   am
    21    40    41    1
    22    40    42    2
    23     7     8   am
    24     8     9    2
    25     8    10    1
    26    10    11    1
    27    10    27    1
    28    27    28   ar
    29    28    29   ar
    30    29    30   ar
    31    30    31   ar
    32    31    33    1
    33    33    34    1
    34    33    35    1
    35    33    36    1
    36    31    32   ar
    37    10    12    1
    38    20    13   ar
    39     6     1   ar
    40    32    27   ar
    41    12     4    1
    42    16    21    1
    43    16    22    1
    44    19    23    1
    45    19    24    1
    46    39    43    1
@<TRIPOS>MOLECULE
*****
 43 46 0 0 0
SMALL
GASTEIGER

@<TRIPOS>ATOM
      1 C           0.7168    1.5715   26.3569 C.ar    1  UNL1        0.0053
      2 C          -0.4504    1.9834   25.5095 C.ar    1  UNL1        0.0033
      3 C          -0.4094    1.7754   24.0246 C.ar    1  UNL1        0.0382
      4 C           0.7987    1.1556   23.3870 C.ar    1  UNL1        0.1529
      5 C           1.9658    0.7438   24.2345 C.ar    1  UNL1        0.0882
      6 C           1.9249    0.9518   25.7194 C.ar    1  UNL1        0.0181
      7 N           3.1739    0.1240   23.5970 N.am    1  UNL1       -0.2512
      8 C           3.2148   -0.0839   22.1120 C.2     1  UNL1        0.2698
      9 O           4.4229   -0.7037   21.4745 O.2     1  UNL1       -0.2704
     10 C           2.0477    0.3279   21.2645 C.3     1  UNL1        0.2197
     11 C           1.1975    0.5514   20.0491 C.3     1  UNL1        0.0579
     12 O           0.8396    0.9477   21.9020 O.3     1  UNL1       -0.4686
     13 C           1.2723    3.0179   28.4425 C.ar    1  UNL1        0.0645
     14 N           1.2314    3.2259   29.9274 N.ar    1  UNL1       -0.2183
     15 C           0.5941    2.1955   30.8118 C.ar    1  UNL1        0.2145
     16 N           0.5532    2.4034   32.2967 N.pl3   1  UNL1       -0.3274
     17 N          -0.0023    0.9571   30.2112 N.ar    1  UNL1       -0.1995
     18 C           0.0386    0.7491   28.7262 C.ar    1  UNL1        0.1293
     19 N          -0.5579   -0.4893   28.1256 N.pl3   1  UNL1       -0.3425
     20 C           0.6759    1.7795   27.8419 C.ar    1  UNL1        0.0449
     21 H           0.9447    3.2162   32.6909 H       1  UNL1        0.1452
     22 H           0.1349    1.7272   32.8772 H       1  UNL1        0.1452
     23 H          -0.9761   -1.1655   28.7061 H       1  UNL1        0.1437
     24 H          -0.5310   -0.6258   27.1510 H       1  UNL1        0.1437
     25 C           1.1011    5.2060   27.0521 C.3     1  UNL1        0.0067
     26 C           1.9096    4.0483   27.5580 C.3     1  UNL1        0.0460
     27 C           2.9605   -0.2143   20.2050 C.ar    1  UNL1        0.0219
     28 C           3.7555    0.7252   19.3475 C.ar    1  UNL1       -0.0005
     29 C           4.6684    0.1830   18.2878 C.ar    1  UNL1       -0.0003
     30 C           4.7862   -1.2985   18.0857 C.ar    1  UNL1        0.0038
     31 C           3.9911   -2.2380   18.9432 C.ar    1  UNL1        0.0712
     32 C           3.0783   -1.6959   20.0028 C.ar    1  UNL1        0.0034
     33 C           4.1090   -3.7197   18.7410 C.3     1  UNL1        0.4186
     34 F           4.2268   -5.2013   18.5388 F       1  UNL1       -0.1659
     35 F           5.4822   -3.5323   18.1674 F       1  UNL1       -0.1659
     36 F           2.7357   -3.9071   19.3146 F       1  UNL1       -0.1659
     37 C           4.3410   -0.2878   24.4444 C.3     1  UNL1        0.1196
     38 C           4.4668   -1.7087   24.9081 C.3     1  UNL1        0.1113
     39 N           5.3654   -2.0445   26.0614 N.am    1  UNL1       -0.3026
     40 C           4.8451   -1.9632   27.4659 C.2     1  UNL1        0.2230
     41 C           5.7436   -2.2989   28.6192 C.3     1  UNL1        0.0946
     42 O           3.4263   -1.5461   27.7172 O.2     1  UNL1       -0.2751
     43 H           6.2966   -2.3182   25.8965 H       1  UNL1        0.1495
@<TRIPOS>BOND
     1    25    26    1
     2    26    13    1
     3    13    14   ar
     4    14    15   ar
     5    15    16    1
     6    15    17   ar
     7    17    18   ar
     8    18    19    1
     9    18    20   ar
    10    20     1    1
    11     1     2   ar
    12     2     3   ar
    13     3     4   ar
    14     4     5   ar
    15     5     6   ar
    16     5     7    1
    17     7    37    1
    18    37    38    1
    19    38    39    1
    20    39    40   am
    21    40    41    1
    22    40    42    2
    23     7     8   am
    24     8     9    2
    25     8    10    1
    26    10    11    1
    27    10    27    1
    28    27    28   ar
    29    28    29   ar
    30    29    30   ar
    31    30    31   ar
    32    31    33    1
    33    33    34    1
    34    33    35    1
    35    33    36    1
    36    31    32   ar
    37    10    12    1
    38    20    13   ar
    39     6     1   ar
    40    32    27   ar
    41    12     4    1
    42    16    21    1
    43    16    22    1
    44    19    23    1
    45    19    24    1
    46    39    43    1
@<TRIPOS>MOLECULE
*****
 43 46 0 0 0
SMALL
GASTEIGER

@<TRIPOS>ATOM
      1 C           7.0480   -2.4668   31.7466 C.ar    1  UNL1        0.0053
      2 C           8.2257   -2.2334   32.6457 C.ar    1  UNL1        0.0033
      3 C           8.1167   -1.2687   33.7892 C.ar    1  UNL1        0.0382
      4 C           6.8300   -0.5375   34.0335 C.ar    1  UNL1        0.1529
      5 C           5.6522   -0.7710   33.1344 C.ar    1  UNL1        0.0882
      6 C           5.7612   -1.7356   31.9910 C.ar    1  UNL1        0.0181
      7 N           4.3655   -0.0398   33.3788 N.am    1  UNL1       -0.2512
      8 C           4.2565    0.9249   34.5222 C.2     1  UNL1        0.2698
      9 O           2.9698    1.6560   34.7666 O.2     1  UNL1       -0.2704
     10 C           5.4343    1.1583   35.4214 C.3     1  UNL1        0.2197
     11 C           6.2654    1.7126   36.5404 C.3     1  UNL1        0.0579
     12 O           6.7210    0.4271   35.1771 O.3     1  UNL1       -0.4686
     13 C           7.5199   -2.9349   29.2350 C.ar    1  UNL1        0.0645
     14 N           7.6289   -3.8995   28.0915 N.ar    1  UNL1       -0.2183
     15 C           7.3748   -5.3607   28.3160 C.ar    1  UNL1        0.2145
     16 N           7.4838   -6.3253   27.1725 N.pl3   1  UNL1       -0.3274
     17 N           7.0119   -5.8573   29.6841 N.ar    1  UNL1       -0.1995
     18 C           6.9029   -4.8926   30.8277 C.ar    1  UNL1        0.1293
     19 N           6.5400   -5.3892   32.1958 N.pl3   1  UNL1       -0.3425
     20 C           7.1569   -3.4315   30.6031 C.ar    1  UNL1        0.0449
     21 H           7.7220   -5.9994   26.2746 H       1  UNL1        0.1452
     22 H           7.3171   -7.2844   27.3199 H       1  UNL1        0.1452
     23 H           6.3732   -6.3482   32.3432 H       1  UNL1        0.1437
     24 H           6.4684   -4.7561   32.9463 H       1  UNL1        0.1437
     25 C           9.1452   -0.9080   29.2330 C.3     1  UNL1        0.0067
     26 C           7.7739   -1.4737   29.0104 C.3     1  UNL1        0.0460
     27 C           4.4362    2.0820   36.0544 C.ar    1  UNL1        0.0219
     28 C           4.3421    3.5088   35.6012 C.ar    1  UNL1       -0.0005
     29 C           3.3440    4.4325   36.2342 C.ar    1  UNL1       -0.0003
     30 C           2.4400    3.9294   37.3203 C.ar    1  UNL1        0.0038
     31 C           2.5341    2.5026   37.7734 C.ar    1  UNL1        0.0712
     32 C           3.5322    1.5789   37.1405 C.ar    1  UNL1        0.0034
     33 C           1.6300    1.9995   38.8595 C.3     1  UNL1        0.4186
     34 F           0.7260    1.4963   39.9456 F       1  UNL1       -0.1659
     35 F           0.6146    3.0424   38.4975 F       1  UNL1       -0.1659
     36 F           2.6455    0.9565   39.2216 F       1  UNL1       -0.1659
     37 C           3.1878   -0.2732   32.4797 C.3     1  UNL1        0.1196
     38 C           2.8415    0.7316   31.4211 C.3     1  UNL1        0.1113
     39 N           2.2925    2.0721   31.8105 N.am    1  UNL1       -0.3026
     40 C           0.8407    2.3800   31.5924 C.2     1  UNL1        0.2230
     41 C           0.2916    3.7205   31.9817 C.3     1  UNL1        0.0946
     42 O          -0.0620    1.3474   30.9850 O.2     1  UNL1       -0.2751
     43 H           2.8849    2.7498   32.2091 H       1  UNL1        0.1495
@<TRIPOS>BOND
     1    25    26    1
     2    26    13    1
     3    13    14   ar
     4    14    15   ar
     5    15    16    1
     6    15    17   ar
     7    17    18   ar
     8    18    19    1
     9    18    20   ar
    10    20     1    1
    11     1     2   ar
    12     2     3   ar
    13     3     4   ar
    14     4     5   ar
    15     5     6   ar
    16     5     7    1
    17     7    37    1
    18    37    38    1
    19    38    39    1
    20    39    40   am
    21    40    41    1
    22    40    42    2
    23     7     8   am
    24     8     9    2
    25     8    10    1
    26    10    11    1
    27    10    27    1
    28    27    28   ar
    29    28    29   ar
    30    29    30   ar
    31    30    31   ar
    32    31    33    1
    33    33    34    1
    34    33    35    1
    35    33    36    1
    36    31    32   ar
    37    10    12    1
    38    20    13   ar
    39     6     1   ar
    40    32    27   ar
    41    12     4    1
    42    16    21    1
    43    16    22    1
    44    19    23    1
    45    19    24    1
    46    39    43    1
@<TRIPOS>MOLECULE
*****
 43 46 0 0 0
SMALL
GASTEIGER

@<TRIPOS>ATOM
      1 C           0.6883    1.9559   26.9431 C.ar    1  UNL1        0.0053
      2 C          -0.5375    2.3323   26.1649 C.ar    1  UNL1        0.0033
      3 C          -0.5978    2.0725   24.6888 C.ar    1  UNL1        0.0382
      4 C           0.5676    1.4362   23.9910 C.ar    1  UNL1        0.1529
      5 C           1.7934    1.0598   24.7693 C.ar    1  UNL1        0.0882
      6 C           1.8537    1.3197   26.2454 C.ar    1  UNL1        0.0181
      7 N           2.9589    0.4235   24.0715 N.am    1  UNL1       -0.2512
      8 C           2.8985    0.1637   22.5955 C.2     1  UNL1        0.2698
      9 O           4.0640   -0.4726   21.8977 O.2     1  UNL1       -0.2704
     10 C           1.6727    0.5401   21.8171 C.3     1  UNL1        0.2197
     11 C           0.7390    0.7168   20.6565 C.3     1  UNL1        0.0579
     12 O           0.5073    1.1763   22.5149 O.3     1  UNL1       -0.4686
     13 C           0.3630    1.1367   29.3872 C.ar    1  UNL1        0.0645
     14 N           0.4234    1.3965   30.8632 N.ar    1  UNL1       -0.2183
     15 C           0.8694    2.7355   31.3715 C.ar    1  UNL1        0.2145
     16 N           0.9297    2.9953   32.8475 N.pl3   1  UNL1       -0.3274
     17 N           1.2550    3.8146   30.4036 N.ar    1  UNL1       -0.1995
     18 C           1.1947    3.5547   28.9275 C.ar    1  UNL1        0.1293
     19 N           1.5803    4.6339   27.9596 N.pl3   1  UNL1       -0.3425
     20 C           0.7487    2.2158   28.4193 C.ar    1  UNL1        0.0449
     21 H           0.6766    2.2870   33.4828 H       1  UNL1        0.1452
     22 H           1.2225    3.8741   33.1811 H       1  UNL1        0.1452
     23 H           1.8731    5.5126   28.2932 H       1  UNL1        0.1437
     24 H           1.5407    4.4633   26.9908 H       1  UNL1        0.1437
     25 C          -1.5439   -0.5402   28.8376 C.3     1  UNL1        0.0067
     26 C          -0.0830   -0.2023   28.8789 C.3     1  UNL1        0.0460
     27 C           2.5139   -0.0348   20.7163 C.ar    1  UNL1        0.0219
     28 C           2.5244   -1.5153   20.4755 C.ar    1  UNL1       -0.0005
     29 C           3.3656   -2.0902   19.3746 C.ar    1  UNL1       -0.0003
     30 C           4.1963   -1.1846   18.5146 C.ar    1  UNL1        0.0038
     31 C           4.1858    0.2959   18.7554 C.ar    1  UNL1        0.0712
     32 C           3.3446    0.8708   19.8562 C.ar    1  UNL1        0.0034
     33 C           5.0165    1.2015   17.8952 C.3     1  UNL1        0.4186
     34 F           5.8473    2.1071   17.0351 F       1  UNL1       -0.1659
     35 F           5.8221    0.0237   17.4330 F       1  UNL1       -0.1659
     36 F           4.2110    2.3794   18.3575 F       1  UNL1       -0.1659
     37 C           4.1846    0.0472   24.8498 C.3     1  UNL1        0.1196
     38 C           4.3620   -1.3611   25.3349 C.3     1  UNL1        0.1113
     39 N           4.5892   -2.4703   24.3509 N.am    1  UNL1       -0.3026
     40 C           5.9793   -2.7851   23.8835 C.2     1  UNL1        0.2230
     41 C           6.2066   -3.8942   22.8995 C.3     1  UNL1        0.0946
     42 O           7.1422   -1.9908   24.4000 O.2     1  UNL1       -0.2751
     43 H           3.8260   -2.9916   24.0118 H       1  UNL1        0.1495
@<TRIPOS>BOND
     1    25    26    1
     2    26    13    1
     3    13    14   ar
     4    14    15   ar
     5    15    16    1
     6    15    17   ar
     7    17    18   ar
     8    18    19    1
     9    18    20   ar
    10    20     1    1
    11     1     2   ar
    12     2     3   ar
    13     3     4   ar
    14     4     5   ar
    15     5     6   ar
    16     5     7    1
    17     7    37    1
    18    37    38    1
    19    38    39    1
    20    39    40   am
    21    40    41    1
    22    40    42    2
    23     7     8   am
    24     8     9    2
    25     8    10    1
    26    10    11    1
    27    10    27    1
    28    27    28   ar
    29    28    29   ar
    30    29    30   ar
    31    30    31   ar
    32    31    33    1
    33    33    34    1
    34    33    35    1
    35    33    36    1
    36    31    32   ar
    37    10    12    1
    38    20    13   ar
    39     6     1   ar
    40    32    27   ar
    41    12     4    1
    42    16    21    1
    43    16    22    1
    44    19    23    1
    45    19    24    1
    46    39    43    1
@<TRIPOS>MOLECULE
*****
 43 46 0 0 0
SMALL
GASTEIGER

@<TRIPOS>ATOM
      1 C           3.0545    0.2807   28.4740 C.ar    1  UNL1        0.0053
      2 C           3.9312   -0.8306   28.9703 C.ar    1  UNL1        0.0033
      3 C           4.6955   -1.6756   27.9947 C.ar    1  UNL1        0.0382
      4 C           4.5829   -1.4093   26.5228 C.ar    1  UNL1        0.1529
      5 C           3.7061   -0.2981   26.0265 C.ar    1  UNL1        0.0882
      6 C           2.9419    0.5469   27.0022 C.ar    1  UNL1        0.0181
      7 N           3.5936   -0.0318   24.5547 N.am    1  UNL1       -0.2512
      8 C           4.3578   -0.8768   23.5790 C.2     1  UNL1        0.2698
      9 O           4.2453   -0.6106   22.1072 O.2     1  UNL1       -0.2704
     10 C           5.2347   -1.9882   24.0753 C.3     1  UNL1        0.2197
     11 C           6.1873   -3.1467   24.0584 C.3     1  UNL1        0.0579
     12 O           5.3472   -2.2544   25.5472 O.3     1  UNL1       -0.4686
     13 C           0.8456    0.8312   29.7263 C.ar    1  UNL1        0.0645
     14 N           0.0813    1.6762   30.7019 N.ar    1  UNL1       -0.2183
     15 C           0.7616    2.8158   31.4009 C.ar    1  UNL1        0.2145
     16 N          -0.0027    3.6608   32.3765 N.pl3   1  UNL1       -0.3274
     17 N           2.2061    3.1104   31.1243 N.ar    1  UNL1       -0.1995
     18 C           2.9704    2.2653   30.1486 C.ar    1  UNL1        0.1293
     19 N           4.4150    2.5599   29.8720 N.pl3   1  UNL1       -0.3425
     20 C           2.2902    1.1258   29.4497 C.ar    1  UNL1        0.0449
     21 H          -0.9508    3.4675   32.5580 H       1  UNL1        0.1452
     22 H           0.4438    4.4088   32.8352 H       1  UNL1        0.1452
     23 H           4.8614    3.3079   30.3307 H       1  UNL1        0.1437
     24 H           4.9166    2.0053   29.2317 H       1  UNL1        0.1437
     25 C          -1.3281   -0.3189   28.8882 C.3     1  UNL1        0.0067
     26 C           0.1654   -0.3085   29.0273 C.3     1  UNL1        0.0460
     27 C           5.4529   -2.1243   22.5976 C.ar    1  UNL1        0.0219
     28 C           6.6356   -1.4667   21.9504 C.ar    1  UNL1       -0.0005
     29 C           6.8539   -1.6028   20.4726 C.ar    1  UNL1       -0.0003
     30 C           5.8895   -2.3964   19.6420 C.ar    1  UNL1        0.0038
     31 C           4.7069   -3.0540   20.2891 C.ar    1  UNL1        0.0712
     32 C           4.4885   -2.9180   21.7669 C.ar    1  UNL1        0.0034
     33 C           3.7424   -3.8477   19.4585 C.3     1  UNL1        0.4186
     34 F           2.7780   -4.6415   18.6278 F       1  UNL1       -0.1659
     35 F           4.7907   -4.8994   19.2461 F       1  UNL1       -0.1659
     36 F           2.6941   -2.7961   19.6708 F       1  UNL1       -0.1659
     37 C           2.7168    1.0794   24.0584 C.3     1  UNL1        0.1196
     38 C           1.2650    0.8228   23.7819 C.3     1  UNL1        0.1113
     39 N           0.2578    0.9468   24.8866 N.am    1  UNL1       -0.3026
     40 C          -0.2478    2.2995   25.2922 C.2     1  UNL1        0.2230
     41 C          -1.2550    2.4235   26.3968 C.3     1  UNL1        0.0946
     42 O           0.2537    3.5283   24.5931 O.2     1  UNL1       -0.2751
     43 H          -0.0713    0.1403   25.3454 H       1  UNL1        0.1495
@<TRIPOS>BOND
     1    25    26    1
     2    26    13    1
     3    13    14   ar
     4    14    15   ar
     5    15    16    1
     6    15    17   ar
     7    17    18   ar
     8    18    19    1
     9    18    20   ar
    10    20     1    1
    11     1     2   ar
    12     2     3   ar
    13     3     4   ar
    14     4     5   ar
    15     5     6   ar
    16     5     7    1
    17     7    37    1
    18    37    38    1
    19    38    39    1
    20    39    40   am
    21    40    41    1
    22    40    42    2
    23     7     8   am
    24     8     9    2
    25     8    10    1
    26    10    11    1
    27    10    27    1
    28    27    28   ar
    29    28    29   ar
    30    29    30   ar
    31    30    31   ar
    32    31    33    1
    33    33    34    1
    34    33    35    1
    35    33    36    1
    36    31    32   ar
    37    10    12    1
    38    20    13   ar
    39     6     1   ar
    40    32    27   ar
    41    12     4    1
    42    16    21    1
    43    16    22    1
    44    19    23    1
    45    19    24    1
    46    39    43    1
@<TRIPOS>MOLECULE
*****
 43 46 0 0 0
SMALL
GASTEIGER

@<TRIPOS>ATOM
      1 C           1.0497    1.6526   26.8708 C.ar    1  UNL1        0.0053
      2 C          -0.1821    1.9006   26.0516 C.ar    1  UNL1        0.0033
      3 C          -0.1711    1.6223   24.5777 C.ar    1  UNL1        0.0382
      4 C           1.0717    1.0961   23.9230 C.ar    1  UNL1        0.1529
      5 C           2.3035    0.8481   24.7422 C.ar    1  UNL1        0.0882
      6 C           2.2925    1.1264   26.2161 C.ar    1  UNL1        0.0181
      7 N           3.5462    0.3219   24.0876 N.am    1  UNL1       -0.2512
      8 C           3.5572    0.0436   22.6137 C.2     1  UNL1        0.2698
      9 O           4.8000   -0.4826   21.9590 O.2     1  UNL1       -0.2704
     10 C           2.3254    0.2916   21.7944 C.3     1  UNL1        0.2197
     11 C           1.4154    0.3658   20.6042 C.3     1  UNL1        0.0579
     12 O           1.0826    0.8179   22.4490 O.3     1  UNL1       -0.4686
     13 C           0.4365    0.9353   29.2915 C.ar    1  UNL1        0.0645
     14 N           0.4256    1.2135   30.7654 N.ar    1  UNL1       -0.2183
     15 C           1.0169    2.4872   31.2927 C.ar    1  UNL1        0.2145
     16 N           1.0059    2.7654   32.7666 N.pl3   1  UNL1       -0.3274
     17 N           1.6191    3.4828   30.3460 N.ar    1  UNL1       -0.1995
     18 C           1.6300    3.2045   28.8720 C.ar    1  UNL1        0.1293
     19 N           2.2323    4.2001   27.9253 N.pl3   1  UNL1       -0.3425
     20 C           1.0388    1.9308   28.3448 C.ar    1  UNL1        0.0449
     21 H           0.6106    2.1120   33.3879 H       1  UNL1        0.1452
     22 H           1.3940    3.6014   33.1126 H       1  UNL1        0.1452
     23 H           2.6204    5.0360   28.2714 H       1  UNL1        0.1437
     24 H           2.2395    4.0175   26.9579 H       1  UNL1        0.1437
     25 C          -1.6224   -0.6056   28.9217 C.3     1  UNL1        0.0067
     26 C          -0.1548   -0.3385   28.7642 C.3     1  UNL1        0.0460
     27 C           3.2521   -0.2088   20.7264 C.ar    1  UNL1        0.0219
     28 C           4.1598    0.7483   20.0121 C.ar    1  UNL1       -0.0005
     29 C           5.0865    0.2478   18.9441 C.ar    1  UNL1       -0.0003
     30 C           5.1057   -1.2097   18.5903 C.ar    1  UNL1        0.0038
     31 C           4.1981   -2.1668   19.3046 C.ar    1  UNL1        0.0712
     32 C           3.2713   -1.6664   20.3726 C.ar    1  UNL1        0.0034
     33 C           4.2173   -3.6244   18.9509 C.3     1  UNL1        0.4186
     34 F           4.2365   -5.0820   18.5971 F       1  UNL1       -0.1659
     35 F           2.7885   -3.7498   19.3898 F       1  UNL1       -0.1659
     36 F           5.6462   -3.4991   18.5119 F       1  UNL1       -0.1659
     37 C           4.7780    0.0739   24.9068 C.3     1  UNL1        0.1196
     38 C           5.8722    1.0992   24.9451 C.3     1  UNL1        0.1113
     39 N           6.7245    1.3322   23.7329 N.am    1  UNL1       -0.3026
     40 C           6.3664    2.4178   22.7617 C.2     1  UNL1        0.2230
     41 C           7.2186    2.6508   21.5495 C.3     1  UNL1        0.0946
     42 O           5.1559    3.2704   23.0027 O.2     1  UNL1       -0.2751
     43 H           7.5190    0.7726   23.5748 H       1  UNL1        0.1495
@<TRIPOS>BOND
     1    25    26    1
     2    26    13    1
     3    13    14   ar
     4    14    15   ar
     5    15    16    1
     6    15    17   ar
     7    17    18   ar
     8    18    19    1
     9    18    20   ar
    10    20     1    1
    11     1     2   ar
    12     2     3   ar
    13     3     4   ar
    14     4     5   ar
    15     5     6   ar
    16     5     7    1
    17     7    37    1
    18    37    38    1
    19    38    39    1
    20    39    40   am
    21    40    41    1
    22    40    42    2
    23     7     8   am
    24     8     9    2
    25     8    10    1
    26    10    11    1
    27    10    27    1
    28    27    28   ar
    29    28    29   ar
    30    29    30   ar
    31    30    31   ar
    32    31    33    1
    33    33    34    1
    34    33    35    1
    35    33    36    1
    36    31    32   ar
    37    10    12    1
    38    20    13   ar
    39     6     1   ar
    40    32    27   ar
    41    12     4    1
    42    16    21    1
    43    16    22    1
    44    19    23    1
    45    19    24    1
    46    39    43    1
@<TRIPOS>MOLECULE
*****
 43 46 0 0 0
SMALL
GASTEIGER

@<TRIPOS>ATOM
      1 C           4.9211   -1.4351   19.4186 C.ar    1  UNL1        0.0053
      2 C           4.4505   -1.3761   17.9956 C.ar    1  UNL1        0.0033
      3 C           3.3399   -0.4442   17.6110 C.ar    1  UNL1        0.0382
      4 C           2.6998    0.4287   18.6494 C.ar    1  UNL1        0.1529
      5 C           3.1704    0.3697   20.0724 C.ar    1  UNL1        0.0882
      6 C           4.2810   -0.5622   20.4570 C.ar    1  UNL1        0.0181
      7 N           2.5303    1.2426   21.1109 N.am    1  UNL1       -0.2512
      8 C           1.4196    2.1745   20.7263 C.2     1  UNL1        0.2698
      9 O           0.7796    3.0474   21.7647 O.2     1  UNL1       -0.2704
     10 C           0.9490    2.2336   19.3032 C.3     1  UNL1        0.2197
     11 C           0.1611    2.6454   18.0950 C.3     1  UNL1        0.0579
     12 O           1.5891    1.3607   18.2647 O.3     1  UNL1       -0.4686
     13 C           5.7142   -3.7303   20.3422 C.ar    1  UNL1        0.0645
     14 N           6.8248   -4.6623   20.7268 N.ar    1  UNL1       -0.2183
     15 C           8.2532   -4.2309   20.5726 C.ar    1  UNL1        0.2145
     16 N           9.3638   -5.1628   20.9572 N.pl3   1  UNL1       -0.3274
     17 N           8.5708   -2.8676   20.0337 N.ar    1  UNL1       -0.1995
     18 C           7.4601   -1.9356   19.6490 C.ar    1  UNL1        0.1293
     19 N           7.7778   -0.5723   19.1101 N.pl3   1  UNL1       -0.3425
     20 C           6.0318   -2.3670   19.8033 C.ar    1  UNL1        0.0449
     21 H           9.1553   -6.0576   21.3109 H       1  UNL1        0.1452
     22 H          10.3012   -4.8797   20.8560 H       1  UNL1        0.1452
     23 H           8.7152   -0.2892   19.0088 H       1  UNL1        0.1437
     24 H           7.0488    0.0394   18.8576 H       1  UNL1        0.1437
     25 C           3.5777   -4.8327   19.3569 C.3     1  UNL1        0.0067
     26 C           4.2858   -4.1617   20.4964 C.3     1  UNL1        0.0460
     27 C           0.0353    3.2495   19.9220 C.ar    1  UNL1        0.0219
     28 C           0.4465    4.6908   19.9809 C.ar    1  UNL1       -0.0005
     29 C          -0.4673    5.7067   20.5998 C.ar    1  UNL1       -0.0003
     30 C          -1.7921    5.2814   21.1597 C.ar    1  UNL1        0.0038
     31 C          -2.2033    3.8401   21.1009 C.ar    1  UNL1        0.0712
     32 C          -1.2896    2.8241   20.4820 C.ar    1  UNL1        0.0034
     33 C          -3.5283    3.4147   21.6609 C.3     1  UNL1        0.4186
     34 F          -4.8532    2.9893   22.2209 F       1  UNL1       -0.1659
     35 F          -3.9053    2.8360   20.3294 F       1  UNL1       -0.1659
     36 F          -3.1512    3.9933   22.9925 F       1  UNL1       -0.1659
     37 C           3.0009    1.1836   22.5339 C.3     1  UNL1        0.1196
     38 C           2.2086    0.4222   23.5549 C.3     1  UNL1        0.1113
     39 N           0.8951    0.9610   24.0394 N.am    1  UNL1       -0.3026
     40 C           0.7245    1.3360   25.4817 C.2     1  UNL1        0.2230
     41 C          -0.5888    1.8748   25.9662 C.3     1  UNL1        0.0946
     42 O           1.8673    1.1723   26.4395 O.2     1  UNL1       -0.2751
     43 H           0.1451    1.0684   23.4107 H       1  UNL1        0.1495
@<TRIPOS>BOND
     1    25    26    1
     2    26    13    1
     3    13    14   ar
     4    14    15   ar
     5    15    16    1
     6    15    17   ar
     7    17    18   ar
     8    18    19    1
     9    18    20   ar
    10    20     1    1
    11     1     2   ar
    12     2     3   ar
    13     3     4   ar
    14     4     5   ar
    15     5     6   ar
    16     5     7    1
    17     7    37    1
    18    37    38    1
    19    38    39    1
    20    39    40   am
    21    40    41    1
    22    40    42    2
    23     7     8   am
    24     8     9    2
    25     8    10    1
    26    10    11    1
    27    10    27    1
    28    27    28   ar
    29    28    29   ar
    30    29    30   ar
    31    30    31   ar
    32    31    33    1
    33    33    34    1
    34    33    35    1
    35    33    36    1
    36    31    32   ar
    37    10    12    1
    38    20    13   ar
    39     6     1   ar
    40    32    27   ar
    41    12     4    1
    42    16    21    1
    43    16    22    1
    44    19    23    1
    45    19    24    1
    46    39    43    1
