@<TRIPOS>MOLECULE
*****
 28 31 0 0 0
SMALL
GASTEIGER

@<TRIPOS>ATOM
      1 C          -6.7862  -16.4515   24.1248 C.ar    1  UNL1        0.0912
      2 C          -8.0134  -17.0863   23.5409 C.ar    1  UNL1        0.0466
      3 C          -9.2992  -17.0831   24.3132 C.ar    1  UNL1        0.1631
      4 C          -9.3579  -16.4451   25.6695 C.ar    1  UNL1        0.1193
      5 N          -8.1307  -15.8102   26.2534 N.ar    1  UNL1       -0.2846
      6 C          -7.8865  -15.1103   27.5574 C.ar    1  UNL1        0.1023
      7 C          -6.4497  -14.6809   27.5909 C.ar    1  UNL1        0.1195
      8 N          -5.8059  -15.1154   26.3077 N.ar    1  UNL1       -0.2247
      9 C          -6.8449  -15.8134   25.4810 C.ar    1  UNL1        0.1524
     10 N          -4.8974  -17.7533   22.9050 N.am    1  UNL1       -0.2657
     11 C          -5.5003  -16.4547   23.3524 C.2     1  UNL1        0.2536
     12 O          -4.8174  -15.1592   23.0274 O.2     1  UNL1       -0.2697
     13 H          -5.3456  -18.6035   23.1182 H       1  UNL1        0.1566
     14 C           0.2460  -17.7660   19.8155 C.3     1  UNL1        0.0327
     15 C          -1.0398  -17.7628   20.5878 C.ar    1  UNL1       -0.0026
     16 C          -1.8282  -19.0301   20.7372 C.ar    1  UNL1        0.0001
     17 C          -3.1140  -19.0269   21.5096 C.ar    1  UNL1        0.0342
     18 C          -3.6115  -17.7564   22.1326 C.ar    1  UNL1        0.1344
     19 N          -2.8232  -16.4890   21.9832 N.ar    1  UNL1       -0.2293
     20 C          -1.5374  -16.4922   21.2109 C.ar    1  UNL1        0.0960
     21 O         -10.5265  -17.7180   23.7293 O.3     1  UNL1       -0.4503
     22 C         -10.8437  -17.5386   22.2742 C.ar    1  UNL1        0.1667
     23 C         -11.4408  -16.2505   21.7901 C.ar    1  UNL1        0.1364
     24 N         -11.7581  -16.0711   20.3351 N.ar    1  UNL1       -0.2368
     25 C         -11.4782  -17.1797   19.3641 C.ar    1  UNL1        0.1286
     26 C         -10.8811  -18.4677   19.8483 C.ar    1  UNL1        0.1623
     27 F         -10.6012  -19.5764   18.8774 F       1  UNL1       -0.2024
     28 C         -10.5638  -18.6472   21.3033 C.ar    1  UNL1        0.0703
@<TRIPOS>BOND
     1    14    15    1
     2    15    16   ar
     3    16    17   ar
     4    17    18   ar
     5    18    10    1
     6    10    11   am
     7    11    12    2
     8    11     1    1
     9     1     2   ar
    10     2     3   ar
    11     3    21    1
    12    21    22    1
    13    22    23   ar
    14    23    24   ar
    15    24    25   ar
    16    25    26   ar
    17    26    27    1
    18    26    28   ar
    19     3     4   ar
    20     4     5   ar
    21     5     6   ar
    22     6     7   ar
    23     7     8   ar
    24     8     9   ar
    25    18    19   ar
    26    19    20   ar
    27    20    15   ar
    28     9     1   ar
    29    28    22   ar
    30     9     5   ar
    31    10    13    1
@<TRIPOS>MOLECULE
*****
 28 31 0 0 0
SMALL
GASTEIGER

@<TRIPOS>ATOM
      1 C          -7.1638  -18.0798   22.9408 C.ar    1  UNL1        0.0912
      2 C          -6.2815  -18.9734   22.1204 C.ar    1  UNL1        0.0466
      3 C          -4.8044  -18.7197   22.0615 C.ar    1  UNL1        0.1631
      4 C          -4.2094  -17.5724   22.8229 C.ar    1  UNL1        0.1193
      5 N          -5.0917  -16.6788   23.6433 N.ar    1  UNL1       -0.2846
      6 C          -4.7930  -15.4797   24.4936 C.ar    1  UNL1        0.1023
      7 C          -6.0856  -14.9924   25.0780 C.ar    1  UNL1        0.1195
      8 N          -7.1832  -15.8902   24.5889 N.ar    1  UNL1       -0.2247
      9 C          -6.5689  -16.9325   23.7022 C.ar    1  UNL1        0.1524
     10 N          -9.5265  -17.4263   23.8015 N.am    1  UNL1       -0.2657
     11 C          -8.6410  -18.3335   22.9997 C.2     1  UNL1        0.2536
     12 O          -9.2329  -19.4946   22.2568 O.2     1  UNL1       -0.2697
     13 H          -9.1381  -16.6643   24.2891 H       1  UNL1        0.1566
     14 C         -15.4353  -18.4413   24.0367 C.3     1  UNL1        0.0327
     15 C         -13.9581  -18.1875   23.9779 C.ar    1  UNL1       -0.0026
     16 C         -13.4011  -17.2313   22.9653 C.ar    1  UNL1        0.0001
     17 C         -11.9239  -16.9776   22.9066 C.ar    1  UNL1        0.0342
     18 C         -11.0037  -17.6801   23.8603 C.ar    1  UNL1        0.1344
     19 N         -11.5607  -18.6363   24.8729 N.ar    1  UNL1       -0.2293
     20 C         -13.0378  -18.8900   24.9317 C.ar    1  UNL1        0.0960
     21 O          -3.9220  -19.6134   21.2411 O.3     1  UNL1       -0.4503
     22 C          -2.8244  -19.0226   20.4066 C.ar    1  UNL1        0.1667
     23 C          -1.3904  -19.2569   20.7788 C.ar    1  UNL1        0.1364
     24 N          -0.2928  -18.6661   19.9443 N.ar    1  UNL1       -0.2368
     25 C          -0.6293  -17.8409   18.7377 C.ar    1  UNL1        0.1286
     26 C          -2.0634  -17.6066   18.3656 C.ar    1  UNL1        0.1623
     27 F          -2.4000  -16.7815   17.1590 F       1  UNL1       -0.2024
     28 C          -3.1609  -18.1974   19.2000 C.ar    1  UNL1        0.0703
@<TRIPOS>BOND
     1    14    15    1
     2    15    16   ar
     3    16    17   ar
     4    17    18   ar
     5    18    10    1
     6    10    11   am
     7    11    12    2
     8    11     1    1
     9     1     2   ar
    10     2     3   ar
    11     3    21    1
    12    21    22    1
    13    22    23   ar
    14    23    24   ar
    15    24    25   ar
    16    25    26   ar
    17    26    27    1
    18    26    28   ar
    19     3     4   ar
    20     4     5   ar
    21     5     6   ar
    22     6     7   ar
    23     7     8   ar
    24     8     9   ar
    25    18    19   ar
    26    19    20   ar
    27    20    15   ar
    28     9     1   ar
    29    28    22   ar
    30     9     5   ar
    31    10    13    1
@<TRIPOS>MOLECULE
*****
 28 31 0 0 0
SMALL
GASTEIGER

@<TRIPOS>ATOM
      1 C           2.9797    0.9382   32.8166 C.ar    1  UNL1        0.0912
      2 C           2.9836    1.7454   34.0809 C.ar    1  UNL1        0.0466
      3 C           3.9219    1.3888   35.1955 C.ar    1  UNL1        0.1631
      4 C           4.8563    0.2248   35.0459 C.ar    1  UNL1        0.1193
      5 N           4.8523   -0.5823   33.7816 N.ar    1  UNL1       -0.2846
      6 C           5.6531   -1.7749   33.3497 C.ar    1  UNL1        0.1023
      7 C           5.2098   -2.1552   31.9681 C.ar    1  UNL1        0.1195
      8 N           4.1349   -1.1977   31.5462 N.ar    1  UNL1       -0.2247
      9 C           3.9140   -0.2256   32.6670 C.ar    1  UNL1        0.1524
     10 N           2.4562    1.0842   30.2760 N.am    1  UNL1       -0.2657
     11 C           2.0414    1.2949   31.7020 C.2     1  UNL1        0.2536
     12 O           0.6881    1.8623   32.0134 O.2     1  UNL1       -0.2697
     13 H           3.3444    0.7118   30.0716 H       1  UNL1        0.1566
     14 C          -1.2973    2.5108   25.8179 C.3     1  UNL1        0.0327
     15 C          -0.3590    2.1542   26.9323 C.ar    1  UNL1       -0.0026
     16 C          -0.5082    0.8446   27.6483 C.ar    1  UNL1        0.0001
     17 C           0.4302    0.4880   28.7629 C.ar    1  UNL1        0.0342
     18 C           1.5179    1.4409   29.1614 C.ar    1  UNL1        0.1344
     19 N           1.6671    2.7505   28.4454 N.ar    1  UNL1       -0.2293
     20 C           0.7288    3.1071   27.3310 C.ar    1  UNL1        0.0960
     21 O           3.9258    2.1960   36.4598 O.3     1  UNL1       -0.4503
     22 C           2.7753    2.0961   37.4171 C.ar    1  UNL1        0.1667
     23 C           1.7965    3.2267   37.5339 C.ar    1  UNL1        0.1364
     24 N           0.6459    3.1267   38.4911 N.ar    1  UNL1       -0.2368
     25 C           0.4742    1.8962   39.3315 C.ar    1  UNL1        0.1286
     26 C           1.4530    0.7656   39.2147 C.ar    1  UNL1        0.1623
     27 F           1.2814   -0.4651   40.0550 F       1  UNL1       -0.2024
     28 C           2.6035    0.8655   38.2574 C.ar    1  UNL1        0.0703
@<TRIPOS>BOND
     1    14    15    1
     2    15    16   ar
     3    16    17   ar
     4    17    18   ar
     5    18    10    1
     6    10    11   am
     7    11    12    2
     8    11     1    1
     9     1     2   ar
    10     2     3   ar
    11     3    21    1
    12    21    22    1
    13    22    23   ar
    14    23    24   ar
    15    24    25   ar
    16    25    26   ar
    17    26    27    1
    18    26    28   ar
    19     3     4   ar
    20     4     5   ar
    21     5     6   ar
    22     6     7   ar
    23     7     8   ar
    24     8     9   ar
    25    18    19   ar
    26    19    20   ar
    27    20    15   ar
    28     9     1   ar
    29    28    22   ar
    30     9     5   ar
    31    10    13    1
@<TRIPOS>MOLECULE
*****
 28 31 0 0 0
SMALL
GASTEIGER

@<TRIPOS>ATOM
      1 C         -13.4437   -4.8620   19.3133 C.ar    1  UNL1        0.0912
      2 C         -14.4037   -6.0072   19.1829 C.ar    1  UNL1        0.0466
      3 C         -13.9018   -7.3658   18.7931 C.ar    1  UNL1        0.1631
      4 C         -12.4399   -7.5795   18.5337 C.ar    1  UNL1        0.1193
      5 N         -11.4799   -6.4343   18.6640 N.ar    1  UNL1       -0.2846
      6 C          -9.9950   -6.3427   18.4727 C.ar    1  UNL1        0.1023
      7 C          -9.5792   -4.9273   18.7443 C.ar    1  UNL1        0.1195
      8 N         -10.8071   -4.1441   19.1034 N.ar    1  UNL1       -0.2247
      9 C         -11.9818   -5.0755   19.0538 C.ar    1  UNL1        0.1524
     10 N         -14.6538   -2.6477   18.6949 N.am    1  UNL1       -0.2657
     11 C         -13.9456   -3.5032   19.7031 C.2     1  UNL1        0.2536
     12 O         -13.7392   -3.0001   21.1011 O.2     1  UNL1       -0.2697
     13 H         -14.7893   -2.9779   17.7774 H       1  UNL1        0.1566
     14 C         -16.6611    2.7873   20.2543 C.3     1  UNL1        0.0327
     15 C         -16.1593    1.4286   19.8645 C.ar    1  UNL1       -0.0026
     16 C         -14.9334    1.2986   19.0100 C.ar    1  UNL1        0.0001
     17 C         -14.4316   -0.0602   18.6201 C.ar    1  UNL1        0.0342
     18 C         -15.1557   -1.2889   19.0848 C.ar    1  UNL1        0.1344
     19 N         -16.3816   -1.1588   19.9393 N.ar    1  UNL1       -0.2293
     20 C         -16.8834    0.1998   20.3292 C.ar    1  UNL1        0.0960
     21 O         -14.8619   -8.5111   18.6627 O.3     1  UNL1       -0.4503
     22 C         -16.3398   -8.2546   18.6641 C.ar    1  UNL1        0.1667
     23 C         -17.0477   -7.9405   17.3794 C.ar    1  UNL1        0.1364
     24 N         -18.5256   -7.6841   17.3808 N.ar    1  UNL1       -0.2368
     25 C         -19.2956   -7.7418   18.6667 C.ar    1  UNL1        0.1286
     26 C         -18.5878   -8.0559   19.9513 C.ar    1  UNL1        0.1623
     27 F         -19.3578   -8.1136   21.2374 F       1  UNL1       -0.2024
     28 C         -17.1099   -8.3123   19.9500 C.ar    1  UNL1        0.0703
@<TRIPOS>BOND
     1    14    15    1
     2    15    16   ar
     3    16    17   ar
     4    17    18   ar
     5    18    10    1
     6    10    11   am
     7    11    12    2
     8    11     1    1
     9     1     2   ar
    10     2     3   ar
    11     3    21    1
    12    21    22    1
    13    22    23   ar
    14    23    24   ar
    15    24    25   ar
    16    25    26   ar
    17    26    27    1
    18    26    28   ar
    19     3     4   ar
    20     4     5   ar
    21     5     6   ar
    22     6     7   ar
    23     7     8   ar
    24     8     9   ar
    25    18    19   ar
    26    19    20   ar
    27    20    15   ar
    28     9     1   ar
    29    28    22   ar
    30     9     5   ar
    31    10    13    1
@<TRIPOS>MOLECULE
*****
 28 31 0 0 0
SMALL
GASTEIGER

@<TRIPOS>ATOM
      1 C          -7.6590  -18.3598   21.6650 C.ar    1  UNL1        0.0912
      2 C          -7.9490  -17.7651   23.0112 C.ar    1  UNL1        0.0466
      3 C          -9.3505  -17.7668   23.5456 C.ar    1  UNL1        0.1631
      4 C         -10.4621  -18.3633   22.7340 C.ar    1  UNL1        0.1193
      5 N         -10.1720  -18.9580   21.3878 N.ar    1  UNL1       -0.2846
      6 C         -11.0562  -19.6126   20.3682 C.ar    1  UNL1        0.1023
      7 C         -10.2011  -20.0155   19.2035 C.ar    1  UNL1        0.1195
      8 N          -8.7884  -19.6098   19.5033 N.ar    1  UNL1       -0.2247
      9 C          -8.7704  -18.9563   20.8533 C.ar    1  UNL1        0.1524
     10 N          -5.1008  -18.1347   22.0592 N.am    1  UNL1       -0.2657
     11 C          -6.2574  -18.3581   21.1305 C.2     1  UNL1        0.2536
     12 O          -6.0124  -18.5797   19.6673 O.2     1  UNL1       -0.2697
     13 H          -5.2616  -17.9893   23.0195 H       1  UNL1        0.1566
     14 C           0.5052  -18.1281   19.9209 C.3     1  UNL1        0.0327
     15 C          -0.8963  -18.1298   20.4555 C.ar    1  UNL1       -0.0026
     16 C          -1.6622  -19.4161   20.5481 C.ar    1  UNL1        0.0001
     17 C          -3.0637  -19.4178   21.0827 C.ar    1  UNL1        0.0342
     18 C          -3.6993  -18.1330   21.5246 C.ar    1  UNL1        0.1344
     19 N          -2.9334  -16.8466   21.4320 N.ar    1  UNL1       -0.2293
     20 C          -1.5320  -16.8450   20.8975 C.ar    1  UNL1        0.0960
     21 O          -9.6406  -17.1720   24.8919 O.3     1  UNL1       -0.4503
     22 C          -8.5384  -16.5303   25.6815 C.ar    1  UNL1        0.1667
     23 C          -8.5942  -16.5259   27.1805 C.ar    1  UNL1        0.1364
     24 N          -7.4921  -15.8841   27.9701 N.ar    1  UNL1       -0.2368
     25 C          -6.3342  -15.2469   27.2608 C.ar    1  UNL1        0.1286
     26 C          -6.2784  -15.2513   25.7619 C.ar    1  UNL1        0.1623
     27 F          -5.1205  -14.6141   25.0525 F       1  UNL1       -0.2024
     28 C          -7.3805  -15.8931   24.9722 C.ar    1  UNL1        0.0703
@<TRIPOS>BOND
     1    14    15    1
     2    15    16   ar
     3    16    17   ar
     4    17    18   ar
     5    18    10    1
     6    10    11   am
     7    11    12    2
     8    11     1    1
     9     1     2   ar
    10     2     3   ar
    11     3    21    1
    12    21    22    1
    13    22    23   ar
    14    23    24   ar
    15    24    25   ar
    16    25    26   ar
    17    26    27    1
    18    26    28   ar
    19     3     4   ar
    20     4     5   ar
    21     5     6   ar
    22     6     7   ar
    23     7     8   ar
    24     8     9   ar
    25    18    19   ar
    26    19    20   ar
    27    20    15   ar
    28     9     1   ar
    29    28    22   ar
    30     9     5   ar
    31    10    13    1
@<TRIPOS>MOLECULE
*****
 28 31 0 0 0
SMALL
GASTEIGER

@<TRIPOS>ATOM
      1 C          -0.5484    2.7662   23.0621 C.ar    1  UNL1        0.0912
      2 C          -0.2393    2.8914   24.5246 C.ar    1  UNL1        0.0466
      3 C          -1.2717    3.4383   25.4652 C.ar    1  UNL1        0.1631
      4 C          -2.6134    3.8601   24.9435 C.ar    1  UNL1        0.1193
      5 N          -2.9225    3.7349   23.4810 N.ar    1  UNL1       -0.2846
      6 C          -4.1480    4.0667   22.6822 C.ar    1  UNL1        0.1023
      7 C          -3.8729    3.7249   21.2479 C.ar    1  UNL1        0.1195
      8 N          -2.4774    3.1817   21.1601 N.ar    1  UNL1       -0.2247
      9 C          -1.8900    3.1879   22.5404 C.ar    1  UNL1        0.1524
     10 N           0.1506    1.0551   21.2363 N.am    1  UNL1       -0.2657
     11 C           0.4841    2.2193   22.1214 C.2     1  UNL1        0.2536
     12 O           1.8501    2.8366   22.0659 O.2     1  UNL1       -0.2697
     13 H          -0.7459    0.6499   21.2728 H       1  UNL1        0.1566
     14 C           4.2808   -1.1326   17.4740 C.3     1  UNL1        0.0327
     15 C           3.2483   -0.5857   18.4145 C.ar    1  UNL1       -0.0026
     16 C           2.8882   -1.3451   19.6569 C.ar    1  UNL1        0.0001
     17 C           1.8557   -0.7982   20.5975 C.ar    1  UNL1        0.0342
     18 C           1.1831    0.5082   20.2957 C.ar    1  UNL1        0.1344
     19 N           1.5432    1.2676   19.0532 N.ar    1  UNL1       -0.2293
     20 C           2.5757    0.7207   18.1127 C.ar    1  UNL1        0.0960
     21 O          -0.9626    3.5635   26.9277 O.3     1  UNL1       -0.4503
     22 C          -0.3549    2.4087   27.6674 C.ar    1  UNL1        0.1667
     23 C           1.0790    2.4685   28.1036 C.ar    1  UNL1        0.1364
     24 N           1.6867    1.3136   28.8433 N.ar    1  UNL1       -0.2368
     25 C           0.8605    0.0990   29.1467 C.ar    1  UNL1        0.1286
     26 C          -0.5733    0.0392   28.7104 C.ar    1  UNL1        0.1623
     27 F          -1.3997   -1.1754   29.0138 F       1  UNL1       -0.2024
     28 C          -1.1811    1.1940   27.9708 C.ar    1  UNL1        0.0703
@<TRIPOS>BOND
     1    14    15    1
     2    15    16   ar
     3    16    17   ar
     4    17    18   ar
     5    18    10    1
     6    10    11   am
     7    11    12    2
     8    11     1    1
     9     1     2   ar
    10     2     3   ar
    11     3    21    1
    12    21    22    1
    13    22    23   ar
    14    23    24   ar
    15    24    25   ar
    16    25    26   ar
    17    26    27    1
    18    26    28   ar
    19     3     4   ar
    20     4     5   ar
    21     5     6   ar
    22     6     7   ar
    23     7     8   ar
    24     8     9   ar
    25    18    19   ar
    26    19    20   ar
    27    20    15   ar
    28     9     1   ar
    29    28    22   ar
    30     9     5   ar
    31    10    13    1
@<TRIPOS>MOLECULE
*****
 28 31 0 0 0
SMALL
GASTEIGER

@<TRIPOS>ATOM
      1 C           4.4408   -2.0461   19.9683 C.ar    1  UNL1        0.0912
      2 C           2.9993   -1.7494   20.2582 C.ar    1  UNL1        0.0466
      3 C           2.3114   -0.6155   19.5576 C.ar    1  UNL1        0.1631
      4 C           3.0650    0.2218   18.5670 C.ar    1  UNL1        0.1193
      5 N           4.5065   -0.0749   18.2771 N.ar    1  UNL1       -0.2846
      6 C           5.4991    0.5723   17.3575 C.ar    1  UNL1        0.1023
      7 C           6.8006   -0.1617   17.4898 C.ar    1  UNL1        0.1195
      8 N           6.6123   -1.2625   18.4912 N.ar    1  UNL1       -0.2247
      9 C           5.1944   -1.2089   18.9778 C.ar    1  UNL1        0.1524
     10 N           6.4520   -2.9555   21.3388 N.am    1  UNL1       -0.2657
     11 C           5.1288   -3.1801   20.6690 C.2     1  UNL1        0.2536
     12 O           4.4934   -4.5386   20.6998 O.2     1  UNL1       -0.2697
     13 H           6.8690   -2.0639   21.3186 H       1  UNL1        0.1566
     14 C           9.2033   -7.4914   24.1416 C.3     1  UNL1        0.0327
     15 C           8.5155   -6.3575   23.4409 C.ar    1  UNL1       -0.0026
     16 C           7.5984   -5.4494   24.2053 C.ar    1  UNL1        0.0001
     17 C           6.9106   -4.3154   23.5045 C.ar    1  UNL1        0.0342
     18 C           7.1398   -4.0896   22.0395 C.ar    1  UNL1        0.1344
     19 N           8.0569   -4.9977   21.2751 N.ar    1  UNL1       -0.2293
     20 C           8.7447   -6.1316   21.9758 C.ar    1  UNL1        0.0960
     21 O           0.8698   -0.3188   19.8475 O.3     1  UNL1       -0.4503
     22 C           0.4927    0.9485   20.5558 C.ar    1  UNL1        0.1667
     23 C           0.0096    2.1315   19.7703 C.ar    1  UNL1        0.1364
     24 N          -0.3676    3.3988   20.4786 N.ar    1  UNL1       -0.2368
     25 C          -0.2616    3.4831   21.9725 C.ar    1  UNL1        0.1286
     26 C           0.2216    2.3001   22.7580 C.ar    1  UNL1        0.1623
     27 F           0.3276    2.3842   24.2519 F       1  UNL1       -0.2024
     28 C           0.5987    1.0328   22.0497 C.ar    1  UNL1        0.0703
@<TRIPOS>BOND
     1    14    15    1
     2    15    16   ar
     3    16    17   ar
     4    17    18   ar
     5    18    10    1
     6    10    11   am
     7    11    12    2
     8    11     1    1
     9     1     2   ar
    10     2     3   ar
    11     3    21    1
    12    21    22    1
    13    22    23   ar
    14    23    24   ar
    15    24    25   ar
    16    25    26   ar
    17    26    27    1
    18    26    28   ar
    19     3     4   ar
    20     4     5   ar
    21     5     6   ar
    22     6     7   ar
    23     7     8   ar
    24     8     9   ar
    25    18    19   ar
    26    19    20   ar
    27    20    15   ar
    28     9     1   ar
    29    28    22   ar
    30     9     5   ar
    31    10    13    1
@<TRIPOS>MOLECULE
*****
 28 31 0 0 0
SMALL
GASTEIGER

@<TRIPOS>ATOM
      1 C           5.4381   -0.8732   33.1160 C.ar    1  UNL1        0.0912
      2 C           5.7369   -0.3328   34.4830 C.ar    1  UNL1        0.0466
      3 C           4.8674    0.7376   35.0728 C.ar    1  UNL1        0.1631
      4 C           3.6990    1.2678   34.2957 C.ar    1  UNL1        0.1193
      5 N           3.4002    0.7274   32.9287 N.ar    1  UNL1       -0.2846
      6 C           2.3259    1.0525   31.9337 C.ar    1  UNL1        0.1023
      7 C           2.5315    0.1830   30.7289 C.ar    1  UNL1        0.1195
      8 N           3.7329   -0.6796   30.9793 N.ar    1  UNL1       -0.2247
      9 C           4.2698   -0.3431   32.3389 C.ar    1  UNL1        0.1524
     10 N           5.7205   -2.9526   31.5842 N.am    1  UNL1       -0.2657
     11 C           6.3077   -1.9437   32.5261 C.2     1  UNL1        0.2536
     12 O           7.7646   -2.0052   32.8783 O.2     1  UNL1       -0.2697
     13 H           4.7644   -2.9122   31.3531 H       1  UNL1        0.1566
     14 C           9.1991   -7.2342   29.2248 C.3     1  UNL1        0.0327
     15 C           8.3295   -6.1639   29.8146 C.ar    1  UNL1       -0.0026
     16 C           7.8946   -5.0017   28.9719 C.ar    1  UNL1        0.0001
     17 C           7.0250   -3.9313   29.5618 C.ar    1  UNL1        0.0342
     18 C           6.5902   -4.0231   30.9944 C.ar    1  UNL1        0.1344
     19 N           7.0250   -5.1852   31.8372 N.ar    1  UNL1       -0.2293
     20 C           7.8946   -6.2556   31.2473 C.ar    1  UNL1        0.0960
     21 O           5.1662    1.2781   36.4399 O.3     1  UNL1       -0.4503
     22 C           4.0442    1.7034   37.3400 C.ar    1  UNL1        0.1667
     23 C           3.7892    3.1615   37.5829 C.ar    1  UNL1        0.1364
     24 N           2.6671    3.5868   38.4830 N.ar    1  UNL1       -0.2368
     25 C           1.8001    2.5541   39.1401 C.ar    1  UNL1        0.1286
     26 C           2.0552    1.0961   38.8972 C.ar    1  UNL1        0.1623
     27 F           1.1882    0.0633   39.5542 F       1  UNL1       -0.2024
     28 C           3.1772    0.6707   37.9971 C.ar    1  UNL1        0.0703
@<TRIPOS>BOND
     1    14    15    1
     2    15    16   ar
     3    16    17   ar
     4    17    18   ar
     5    18    10    1
     6    10    11   am
     7    11    12    2
     8    11     1    1
     9     1     2   ar
    10     2     3   ar
    11     3    21    1
    12    21    22    1
    13    22    23   ar
    14    23    24   ar
    15    24    25   ar
    16    25    26   ar
    17    26    27    1
    18    26    28   ar
    19     3     4   ar
    20     4     5   ar
    21     5     6   ar
    22     6     7   ar
    23     7     8   ar
    24     8     9   ar
    25    18    19   ar
    26    19    20   ar
    27    20    15   ar
    28     9     1   ar
    29    28    22   ar
    30     9     5   ar
    31    10    13    1
@<TRIPOS>MOLECULE
*****
 28 31 0 0 0
SMALL
GASTEIGER

@<TRIPOS>ATOM
      1 C           5.9166   -2.1146   28.7920 C.ar    1  UNL1        0.0912
      2 C           5.1363   -0.9006   28.3830 C.ar    1  UNL1        0.0466
      3 C           4.4118   -0.0912   29.4173 C.ar    1  UNL1        0.1631
      4 C           4.4676   -0.4958   30.8607 C.ar    1  UNL1        0.1193
      5 N           5.2478   -1.7098   31.2696 N.ar    1  UNL1       -0.2846
      6 C           5.4829   -2.3485   32.6064 C.ar    1  UNL1        0.1023
      7 C           6.3528   -3.5526   32.3981 C.ar    1  UNL1        0.1195
      8 N           6.6553   -3.6582   30.9327 N.ar    1  UNL1       -0.2247
      9 C           5.9723   -2.5193   30.2353 C.ar    1  UNL1        0.1524
     10 N           6.0120   -4.1673   27.2022 N.am    1  UNL1       -0.2657
     11 C           6.6411   -2.9240   27.7576 C.2     1  UNL1        0.2536
     12 O           7.9949   -2.4902   27.2786 O.2     1  UNL1       -0.2697
     13 H           5.1236   -4.4521   27.5165 H       1  UNL1        0.1566
     14 C           8.9104   -7.4049   23.0649 C.3     1  UNL1        0.0327
     15 C           8.1859   -6.5955   24.0992 C.ar    1  UNL1       -0.0026
     16 C           7.9914   -7.1455   25.4811 C.ar    1  UNL1        0.0001
     17 C           7.2668   -6.3361   26.5154 C.ar    1  UNL1        0.0342
     18 C           6.7366   -4.9767   26.1678 C.ar    1  UNL1        0.1344
     19 N           6.9311   -4.4267   24.7859 N.ar    1  UNL1       -0.2293
     20 C           7.6556   -5.2360   23.7516 C.ar    1  UNL1        0.0960
     21 O           3.6315    1.1229   29.0083 O.3     1  UNL1       -0.4503
     22 C           2.1515    1.0233   28.7856 C.ar    1  UNL1        0.1667
     23 C           1.2278    0.8427   29.9535 C.ar    1  UNL1        0.1364
     24 N          -0.2523    0.7431   29.7307 N.ar    1  UNL1       -0.2368
     25 C          -0.8085    0.8241   28.3400 C.ar    1  UNL1        0.1286
     26 C           0.1152    1.0048   27.1721 C.ar    1  UNL1        0.1623
     27 F          -0.4409    1.0859   25.7813 F       1  UNL1       -0.2024
     28 C           1.5953    1.1044   27.3949 C.ar    1  UNL1        0.0703
@<TRIPOS>BOND
     1    14    15    1
     2    15    16   ar
     3    16    17   ar
     4    17    18   ar
     5    18    10    1
     6    10    11   am
     7    11    12    2
     8    11     1    1
     9     1     2   ar
    10     2     3   ar
    11     3    21    1
    12    21    22    1
    13    22    23   ar
    14    23    24   ar
    15    24    25   ar
    16    25    26   ar
    17    26    27    1
    18    26    28   ar
    19     3     4   ar
    20     4     5   ar
    21     5     6   ar
    22     6     7   ar
    23     7     8   ar
    24     8     9   ar
    25    18    19   ar
    26    19    20   ar
    27    20    15   ar
    28     9     1   ar
    29    28    22   ar
    30     9     5   ar
    31    10    13    1
