@<TRIPOS>MOLECULE
*****
 20 22 0 0 0
SMALL
GASTEIGER

@<TRIPOS>ATOM
      1 C          -8.8565  -17.5017   22.8878 C.3     1  UNL1        0.1031
      2 C          -4.4601  -20.5008   20.1171 C.3     1  UNL1        0.0897
      3 N          -5.5592  -19.7510   20.8098 N.3     1  UNL1       -0.2691
      4 C          -6.9678  -19.8478   20.3035 C.3     1  UNL1        0.0897
      5 C          -8.0669  -19.0980   20.9962 C.3     1  UNL1        0.0901
      6 N          -7.7574  -18.2515   22.1951 N.3     1  UNL1       -0.2644
      7 C          -6.3488  -18.1548   22.7014 C.3     1  UNL1        0.0901
      8 C          -5.2496  -18.9045   22.0087 C.3     1  UNL1        0.0897
      9 C         -10.1548  -17.2504   22.1798 C.ar    1  UNL1       -0.0036
     10 C         -10.2363  -16.1981   21.1139 C.ar    1  UNL1       -0.0026
     11 C         -11.5346  -15.9467   20.4059 C.ar    1  UNL1       -0.0003
     12 C         -12.7513  -16.7476   20.7638 C.ar    1  UNL1       -0.0000
     13 C         -12.6698  -17.7998   21.8297 C.ar    1  UNL1       -0.0003
     14 C         -11.3715  -18.0512   22.5378 C.ar    1  UNL1       -0.0026
     15 C          -8.6573  -17.0033   24.2885 C.ar    1  UNL1       -0.0036
     16 C          -7.9434  -15.7062   24.5286 C.ar    1  UNL1       -0.0026
     17 C          -7.7442  -15.2078   25.9293 C.ar    1  UNL1       -0.0003
     18 C          -8.2590  -16.0065   27.0899 C.ar    1  UNL1       -0.0000
     19 C          -8.9730  -17.3037   26.8498 C.ar    1  UNL1       -0.0003
     20 C          -9.1721  -17.8021   25.4491 C.ar    1  UNL1       -0.0026
@<TRIPOS>BOND
     1     2     3    1
     2     3     4    1
     3     4     5    1
     4     5     6    1
     5     6     1    1
     6     1     9    1
     7     9    10   ar
     8    10    11   ar
     9    11    12   ar
    10    12    13   ar
    11    13    14   ar
    12     1    15    1
    13    15    16   ar
    14    16    17   ar
    15    17    18   ar
    16    18    19   ar
    17    19    20   ar
    18     6     7    1
    19     7     8    1
    20     8     3    1
    21    14     9   ar
    22    20    15   ar
@<TRIPOS>MOLECULE
*****
 20 22 0 0 0
SMALL
GASTEIGER

@<TRIPOS>ATOM
      1 C          -8.8578  -17.4909   22.9027 C.3     1  UNL1        0.1031
      2 C          -4.4594  -20.4607   20.1038 C.3     1  UNL1        0.0897
      3 N          -5.5590  -19.7182   20.8035 N.3     1  UNL1       -0.2691
      4 C          -5.2493  -18.8793   22.0078 C.3     1  UNL1        0.0897
      5 C          -6.3489  -18.1369   22.7075 C.3     1  UNL1        0.0901
      6 N          -7.7582  -18.2333   22.2030 N.3     1  UNL1       -0.2644
      7 C          -8.0679  -19.0723   20.9987 C.3     1  UNL1        0.0901
      8 C          -6.9683  -19.8147   20.2990 C.3     1  UNL1        0.0897
      9 C          -8.6558  -16.9978   24.3049 C.ar    1  UNL1       -0.0036
     10 C          -9.1804  -17.7941   25.4628 C.ar    1  UNL1       -0.0026
     11 C          -8.9784  -17.3011   26.8650 C.ar    1  UNL1       -0.0003
     12 C          -8.2517  -16.0118   27.1092 C.ar    1  UNL1       -0.0000
     13 C          -7.7270  -15.2155   25.9514 C.ar    1  UNL1       -0.0003
     14 C          -7.9291  -15.7085   24.5491 C.ar    1  UNL1       -0.0026
     15 C         -10.1595  -17.2415   22.2003 C.ar    1  UNL1       -0.0036
     16 C         -11.3671  -18.0615   22.5454 C.ar    1  UNL1       -0.0026
     17 C         -12.6688  -17.8120   21.8429 C.ar    1  UNL1       -0.0003
     18 C         -12.7628  -16.7426   20.7954 C.ar    1  UNL1       -0.0000
     19 C         -11.5552  -15.9225   20.4503 C.ar    1  UNL1       -0.0003
     20 C         -10.2535  -16.1719   21.1527 C.ar    1  UNL1       -0.0026
@<TRIPOS>BOND
     1     2     3    1
     2     3     4    1
     3     4     5    1
     4     5     6    1
     5     6     1    1
     6     1     9    1
     7     9    10   ar
     8    10    11   ar
     9    11    12   ar
    10    12    13   ar
    11    13    14   ar
    12     1    15    1
    13    15    16   ar
    14    16    17   ar
    15    17    18   ar
    16    18    19   ar
    17    19    20   ar
    18     6     7    1
    19     7     8    1
    20     8     3    1
    21    14     9   ar
    22    20    15   ar
@<TRIPOS>MOLECULE
*****
 20 22 0 0 0
SMALL
GASTEIGER

@<TRIPOS>ATOM
      1 C          -8.8579  -17.5039   22.8980 C.3     1  UNL1        0.1031
      2 C          -4.4996  -20.5451   20.1130 C.3     1  UNL1        0.0897
      3 N          -5.5892  -19.7848   20.8092 N.3     1  UNL1       -0.2691
      4 C          -5.2661  -18.9341   22.0017 C.3     1  UNL1        0.0897
      5 C          -6.3557  -18.1738   22.6979 C.3     1  UNL1        0.0901
      6 N          -7.7683  -18.2642   22.2017 N.3     1  UNL1       -0.2644
      7 C          -8.0914  -19.1149   21.0093 C.3     1  UNL1        0.0901
      8 C          -7.0018  -19.8752   20.3130 C.3     1  UNL1        0.0897
      9 C         -10.1658  -17.2633   22.2042 C.ar    1  UNL1       -0.0036
     10 C         -11.3738  -18.0691   22.5804 C.ar    1  UNL1       -0.0026
     11 C         -12.6818  -17.8285   21.8867 C.ar    1  UNL1       -0.0003
     12 C         -12.7818  -16.7821   20.8167 C.ar    1  UNL1       -0.0000
     13 C         -11.5739  -15.9762   20.4404 C.ar    1  UNL1       -0.0003
     14 C         -10.2659  -16.2168   21.1342 C.ar    1  UNL1       -0.0026
     15 C          -8.6396  -16.9843   24.2880 C.ar    1  UNL1       -0.0036
     16 C          -9.1416  -17.7633   25.4675 C.ar    1  UNL1       -0.0026
     17 C          -8.9232  -17.2435   26.8575 C.ar    1  UNL1       -0.0003
     18 C          -8.2028  -15.9449   27.0681 C.ar    1  UNL1       -0.0000
     19 C          -7.7008  -15.1658   25.8887 C.ar    1  UNL1       -0.0003
     20 C          -7.9191  -15.6855   24.4987 C.ar    1  UNL1       -0.0026
@<TRIPOS>BOND
     1     2     3    1
     2     3     4    1
     3     4     5    1
     4     5     6    1
     5     6     1    1
     6     1     9    1
     7     9    10   ar
     8    10    11   ar
     9    11    12   ar
    10    12    13   ar
    11    13    14   ar
    12     1    15    1
    13    15    16   ar
    14    16    17   ar
    15    17    18   ar
    16    18    19   ar
    17    19    20   ar
    18     6     7    1
    19     7     8    1
    20     8     3    1
    21    14     9   ar
    22    20    15   ar
@<TRIPOS>MOLECULE
*****
 20 22 0 0 0
SMALL
GASTEIGER

@<TRIPOS>ATOM
      1 C          -8.8187  -17.4936   22.9276 C.3     1  UNL1        0.1031
      2 C          -4.4131  -20.4456   20.1212 C.3     1  UNL1        0.0897
      3 N          -5.5145  -19.7076   20.8228 N.3     1  UNL1       -0.2691
      4 C          -6.9187  -19.7825   20.3007 C.3     1  UNL1        0.0897
      5 C          -8.0201  -19.0445   21.0023 C.3     1  UNL1        0.0901
      6 N          -7.7173  -18.2316   22.2260 N.3     1  UNL1       -0.2644
      7 C          -6.3132  -18.1567   22.7481 C.3     1  UNL1        0.0901
      8 C          -5.2117  -18.8947   22.0465 C.3     1  UNL1        0.0897
      9 C          -8.6065  -16.9754   24.3191 C.ar    1  UNL1       -0.0036
     10 C          -7.8628  -15.6908   24.5358 C.ar    1  UNL1       -0.0026
     11 C          -7.6506  -15.1725   25.9273 C.ar    1  UNL1       -0.0003
     12 C          -8.1820  -15.9388   27.1022 C.ar    1  UNL1       -0.0000
     13 C          -8.9256  -17.2233   26.8856 C.ar    1  UNL1       -0.0003
     14 C          -9.1379  -17.7416   25.4941 C.ar    1  UNL1       -0.0026
     15 C         -10.1324  -17.2739   22.2378 C.ar    1  UNL1       -0.0036
     16 C         -11.3083  -18.1444   22.5688 C.ar    1  UNL1       -0.0026
     17 C         -12.6220  -17.9246   21.8789 C.ar    1  UNL1       -0.0003
     18 C         -12.7598  -16.8344   20.8579 C.ar    1  UNL1       -0.0000
     19 C         -11.5839  -15.9639   20.5269 C.ar    1  UNL1       -0.0003
     20 C         -10.2703  -16.1836   21.2167 C.ar    1  UNL1       -0.0026
@<TRIPOS>BOND
     1     2     3    1
     2     3     4    1
     3     4     5    1
     4     5     6    1
     5     6     1    1
     6     1     9    1
     7     9    10   ar
     8    10    11   ar
     9    11    12   ar
    10    12    13   ar
    11    13    14   ar
    12     1    15    1
    13    15    16   ar
    14    16    17   ar
    15    17    18   ar
    16    18    19   ar
    17    19    20   ar
    18     6     7    1
    19     7     8    1
    20     8     3    1
    21    14     9   ar
    22    20    15   ar
@<TRIPOS>MOLECULE
*****
 20 22 0 0 0
SMALL
GASTEIGER

@<TRIPOS>ATOM
      1 C          -9.4995  -17.8409   22.7912 C.3     1  UNL1        0.1031
      2 C          -5.4091  -14.8807   26.0324 C.3     1  UNL1        0.0897
      3 N          -6.4317  -15.6207   25.2221 N.3     1  UNL1       -0.2691
      4 C          -6.0892  -16.1059   23.8447 C.3     1  UNL1        0.0897
      5 C          -7.1118  -16.8460   23.0344 C.3     1  UNL1        0.0901
      6 N          -8.4769  -17.1008   23.6015 N.3     1  UNL1       -0.2644
      7 C          -8.8194  -16.6156   24.9789 C.3     1  UNL1        0.0901
      8 C          -7.7967  -15.8755   25.7892 C.3     1  UNL1        0.0897
      9 C         -10.9351  -17.8531   23.2257 C.ar    1  UNL1       -0.0036
     10 C         -11.3917  -18.8187   24.2790 C.ar    1  UNL1       -0.0026
     11 C         -12.8273  -18.8309   24.7136 C.ar    1  UNL1       -0.0003
     12 C         -13.8063  -17.8777   24.0949 C.ar    1  UNL1       -0.0000
     13 C         -13.3498  -16.9122   23.0417 C.ar    1  UNL1       -0.0003
     14 C         -11.9142  -16.8999   22.6070 C.ar    1  UNL1       -0.0026
     15 C          -9.0865  -18.5686   21.5463 C.ar    1  UNL1       -0.0036
     16 C          -7.6645  -19.0142   21.3749 C.ar    1  UNL1       -0.0026
     17 C          -7.2516  -19.7420   20.1299 C.ar    1  UNL1       -0.0003
     18 C          -8.2606  -20.0242   19.0565 C.ar    1  UNL1       -0.0000
     19 C          -9.6825  -19.5787   19.2280 C.ar    1  UNL1       -0.0003
     20 C         -10.0955  -18.8509   20.4728 C.ar    1  UNL1       -0.0026
@<TRIPOS>BOND
     1     2     3    1
     2     3     4    1
     3     4     5    1
     4     5     6    1
     5     6     1    1
     6     1     9    1
     7     9    10   ar
     8    10    11   ar
     9    11    12   ar
    10    12    13   ar
    11    13    14   ar
    12     1    15    1
    13    15    16   ar
    14    16    17   ar
    15    17    18   ar
    16    18    19   ar
    17    19    20   ar
    18     6     7    1
    19     7     8    1
    20     8     3    1
    21    14     9   ar
    22    20    15   ar
@<TRIPOS>MOLECULE
*****
 20 22 0 0 0
SMALL
GASTEIGER

@<TRIPOS>ATOM
      1 C          -8.7229  -17.6322   22.4567 C.3     1  UNL1        0.1031
      2 C          -6.7157  -14.8544   27.3816 C.3     1  UNL1        0.0897
      3 N          -7.2175  -15.5489   26.1504 N.3     1  UNL1       -0.2691
      4 C          -6.4919  -15.3841   24.8480 C.3     1  UNL1        0.0897
      5 C          -6.9936  -16.0785   23.6168 C.3     1  UNL1        0.0901
      6 N          -8.2211  -16.9377   23.6879 N.3     1  UNL1       -0.2644
      7 C          -8.9467  -17.1025   24.9903 C.3     1  UNL1        0.0901
      8 C          -8.4449  -16.4081   26.2215 C.3     1  UNL1        0.0897
      9 C         -10.1019  -17.3435   21.9421 C.ar    1  UNL1       -0.0036
     10 C         -11.2682  -18.1521   22.4279 C.ar    1  UNL1       -0.0026
     11 C         -12.6473  -17.8633   21.9134 C.ar    1  UNL1       -0.0003
     12 C         -12.8602  -16.7660   20.9131 C.ar    1  UNL1       -0.0000
     13 C         -11.6939  -15.9574   20.4273 C.ar    1  UNL1       -0.0003
     14 C         -10.3148  -16.2461   20.9418 C.ar    1  UNL1       -0.0026
     15 C          -7.8456  -18.6153   21.7399 C.ar    1  UNL1       -0.0036
     16 C          -6.5246  -19.0111   22.3301 C.ar    1  UNL1       -0.0026
     17 C          -5.6473  -19.9943   21.6133 C.ar    1  UNL1       -0.0003
     18 C          -6.0910  -20.5817   20.3064 C.ar    1  UNL1       -0.0000
     19 C          -7.4120  -20.1859   19.7162 C.ar    1  UNL1       -0.0003
     20 C          -8.2893  -19.2027   20.4329 C.ar    1  UNL1       -0.0026
@<TRIPOS>BOND
     1     2     3    1
     2     3     4    1
     3     4     5    1
     4     5     6    1
     5     6     1    1
     6     1     9    1
     7     9    10   ar
     8    10    11   ar
     9    11    12   ar
    10    12    13   ar
    11    13    14   ar
    12     1    15    1
    13    15    16   ar
    14    16    17   ar
    15    17    18   ar
    16    18    19   ar
    17    19    20   ar
    18     6     7    1
    19     7     8    1
    20     8     3    1
    21    14     9   ar
    22    20    15   ar
@<TRIPOS>MOLECULE
*****
 20 22 0 0 0
SMALL
GASTEIGER

@<TRIPOS>ATOM
      1 C          -8.7165  -17.6003   22.4750 C.3     1  UNL1        0.1031
      2 C          -6.7900  -14.8484   27.4465 C.3     1  UNL1        0.0897
      3 N          -7.2716  -15.5364   26.2036 N.3     1  UNL1       -0.2691
      4 C          -6.5703  -15.3041   24.8982 C.3     1  UNL1        0.0897
      5 C          -7.0520  -15.9921   23.6553 C.3     1  UNL1        0.0901
      6 N          -8.2348  -16.9123   23.7179 N.3     1  UNL1       -0.2644
      7 C          -8.9361  -17.1446   25.0233 C.3     1  UNL1        0.0901
      8 C          -8.4545  -16.4566   26.2662 C.3     1  UNL1        0.0897
      9 C          -7.8229  -18.5703   21.7605 C.ar    1  UNL1       -0.0036
     10 C          -6.4751  -18.9058   22.3271 C.ar    1  UNL1       -0.0026
     11 C          -5.5815  -19.8758   21.6125 C.ar    1  UNL1       -0.0003
     12 C          -6.0356  -20.5103   20.3314 C.ar    1  UNL1       -0.0000
     13 C          -7.3833  -20.1748   19.7649 C.ar    1  UNL1       -0.0003
     14 C          -8.2770  -19.2048   20.4794 C.ar    1  UNL1       -0.0026
     15 C         -10.0917  -17.3184   21.9467 C.ar    1  UNL1       -0.0036
     16 C         -11.2634  -18.1122   22.4436 C.ar    1  UNL1       -0.0026
     17 C         -12.6387  -17.8302   21.9152 C.ar    1  UNL1       -0.0003
     18 C         -12.8422  -16.7543   20.8900 C.ar    1  UNL1       -0.0000
     19 C         -11.6705  -15.9605   20.3931 C.ar    1  UNL1       -0.0003
     20 C         -10.2953  -16.2425   20.9214 C.ar    1  UNL1       -0.0026
@<TRIPOS>BOND
     1     2     3    1
     2     3     4    1
     3     4     5    1
     4     5     6    1
     5     6     1    1
     6     1     9    1
     7     9    10   ar
     8    10    11   ar
     9    11    12   ar
    10    12    13   ar
    11    13    14   ar
    12     1    15    1
    13    15    16   ar
    14    16    17   ar
    15    17    18   ar
    16    18    19   ar
    17    19    20   ar
    18     6     7    1
    19     7     8    1
    20     8     3    1
    21    14     9   ar
    22    20    15   ar
@<TRIPOS>MOLECULE
*****
 20 22 0 0 0
SMALL
GASTEIGER

@<TRIPOS>ATOM
      1 C          -8.4554  -17.8146   23.0858 C.3     1  UNL1        0.1031
      2 C         -14.3421  -18.1358   24.2010 C.3     1  UNL1        0.0897
      3 N         -12.8704  -18.0555   23.9222 N.3     1  UNL1       -0.2691
      4 C         -12.3423  -17.0212   22.9729 C.3     1  UNL1        0.0897
      5 C         -10.8706  -16.9409   22.6941 C.3     1  UNL1        0.0901
      6 N          -9.9271  -17.8949   23.3646 N.3     1  UNL1       -0.2644
      7 C         -10.4553  -18.9292   24.3139 C.3     1  UNL1        0.0901
      8 C         -11.9269  -19.0095   24.5927 C.3     1  UNL1        0.0897
      9 C          -7.5940  -16.8695   23.8697 C.ar    1  UNL1       -0.0036
     10 C          -6.2391  -16.4855   23.3531 C.ar    1  UNL1       -0.0026
     11 C          -5.3777  -15.5403   24.1370 C.ar    1  UNL1       -0.0003
     12 C          -5.8712  -14.9791   25.4376 C.ar    1  UNL1       -0.0000
     13 C          -7.2260  -15.3630   25.9543 C.ar    1  UNL1       -0.0003
     14 C          -8.0875  -16.3083   25.1703 C.ar    1  UNL1       -0.0026
     15 C          -7.8452  -18.6795   22.0230 C.ar    1  UNL1       -0.0036
     16 C          -6.5718  -19.4223   22.3002 C.ar    1  UNL1       -0.0026
     17 C          -5.9615  -20.2873   21.2373 C.ar    1  UNL1       -0.0003
     18 C          -6.6246  -20.4093   19.8974 C.ar    1  UNL1       -0.0000
     19 C          -7.8979  -19.6665   19.6202 C.ar    1  UNL1       -0.0003
     20 C          -8.5082  -18.8016   20.6830 C.ar    1  UNL1       -0.0026
@<TRIPOS>BOND
     1     2     3    1
     2     3     4    1
     3     4     5    1
     4     5     6    1
     5     6     1    1
     6     1     9    1
     7     9    10   ar
     8    10    11   ar
     9    11    12   ar
    10    12    13   ar
    11    13    14   ar
    12     1    15    1
    13    15    16   ar
    14    16    17   ar
    15    17    18   ar
    16    18    19   ar
    17    19    20   ar
    18     6     7    1
    19     7     8    1
    20     8     3    1
    21    14     9   ar
    22    20    15   ar
@<TRIPOS>MOLECULE
*****
 20 22 0 0 0
SMALL
GASTEIGER

@<TRIPOS>ATOM
      1 C          -7.3913  -17.0634   23.3088 C.3     1  UNL1        0.1031
      2 C         -12.7181  -16.4921   20.6071 C.3     1  UNL1        0.0897
      3 N         -11.3864  -16.6349   21.2825 N.3     1  UNL1       -0.2691
      4 C         -10.3025  -15.6310   21.0233 C.3     1  UNL1        0.0897
      5 C          -8.9708  -15.7739   21.6987 C.3     1  UNL1        0.0901
      6 N          -8.7230  -16.9206   22.6333 N.3     1  UNL1       -0.2644
      7 C          -9.8069  -17.9245   22.8926 C.3     1  UNL1        0.0901
      8 C         -11.1386  -17.7816   22.2171 C.3     1  UNL1        0.0897
      9 C          -7.1365  -16.3758   24.6173 C.ar    1  UNL1       -0.0036
     10 C          -5.8164  -15.7096   24.8699 C.ar    1  UNL1       -0.0026
     11 C          -5.5616  -15.0221   26.1784 C.ar    1  UNL1       -0.0003
     12 C          -6.6267  -15.0007   27.2344 C.ar    1  UNL1       -0.0000
     13 C          -7.9467  -15.6668   26.9818 C.ar    1  UNL1       -0.0003
     14 C          -8.2016  -16.3545   25.6733 C.ar    1  UNL1       -0.0026
     15 C          -6.3145  -17.8938   22.6757 C.ar    1  UNL1       -0.0036
     16 C          -6.6592  -18.8640   21.5849 C.ar    1  UNL1       -0.0026
     17 C          -5.5823  -19.6944   20.9518 C.ar    1  UNL1       -0.0003
     18 C          -4.1607  -19.5546   21.4095 C.ar    1  UNL1       -0.0000
     19 C          -3.8160  -18.5843   22.5003 C.ar    1  UNL1       -0.0003
     20 C          -4.8928  -17.7539   23.1334 C.ar    1  UNL1       -0.0026
@<TRIPOS>BOND
     1     2     3    1
     2     3     4    1
     3     4     5    1
     4     5     6    1
     5     6     1    1
     6     1     9    1
     7     9    10   ar
     8    10    11   ar
     9    11    12   ar
    10    12    13   ar
    11    13    14   ar
    12     1    15    1
    13    15    16   ar
    14    16    17   ar
    15    17    18   ar
    16    18    19   ar
    17    19    20   ar
    18     6     7    1
    19     7     8    1
    20     8     3    1
    21    14     9   ar
    22    20    15   ar
