@<TRIPOS>MOLECULE
*****
 29 33 0 0 0
SMALL
GASTEIGER

@<TRIPOS>ATOM
      1 O           8.8232   -5.3913   22.8855 O.2     1  UNL1       -0.2526
      2 C           7.4630   -4.9588   23.3466 C.2     1  UNL1        0.3039
      3 N           6.9341   -5.4304   24.6686 N.am    1  UNL1       -0.2901
      4 N           6.6315   -4.0546   22.4855 N.am    1  UNL1       -0.2640
      5 C           7.1604   -3.5830   21.1635 C.3     1  UNL1        0.0985
      6 C           6.3290   -2.6789   20.3025 C.3     1  UNL1        0.0616
      7 C           4.9687   -2.2464   20.7636 C.3     1  UNL1        0.1367
      8 C           5.4976   -1.7748   19.4415 C.3     1  UNL1        0.0449
      9 C           4.6662   -0.8707   18.5805 C.3     1  UNL1        0.0331
     10 C           3.3059   -0.4381   19.0416 C.ar    1  UNL1        0.0141
     11 C           2.4745    0.4660   18.1805 C.ar    1  UNL1        0.0284
     12 C           1.1142    0.8985   18.6416 C.ar    1  UNL1        0.1400
     13 F           0.2828    1.8026   17.7807 F       1  UNL1       -0.2042
     14 C           0.5853    0.4269   19.9638 C.ar    1  UNL1        0.0327
     15 C           1.4168   -0.4772   20.8247 C.ar    1  UNL1        0.0389
     16 C           2.7770   -0.9097   20.3636 C.ar    1  UNL1        0.1343
     17 O           3.6084   -1.8139   21.2247 O.3     1  UNL1       -0.4828
     18 C           4.4399   -2.7180   22.0856 C.3     1  UNL1        0.0616
     19 C           5.2713   -3.6221   22.9466 C.3     1  UNL1        0.0985
     20 H           6.0413   -5.1465   24.9712 H       1  UNL1        0.1509
     21 C           7.7655   -6.3345   25.5296 C.3     1  UNL1        0.0774
     22 C           8.7251   -7.4796   25.6637 C.3     1  UNL1        0.0259
     23 C           8.2459   -6.7555   26.8868 C.3     1  UNL1        0.0420
     24 C           8.2466   -6.5804   28.3766 C.ar    1  UNL1       -0.0208
     25 C           9.3514   -7.1723   29.2008 C.ar    1  UNL1       -0.0042
     26 C           9.3521   -6.9972   30.6905 C.ar    1  UNL1       -0.0003
     27 C           8.2480   -6.2303   31.3561 C.ar    1  UNL1       -0.0000
     28 C           7.1432   -5.6385   30.5319 C.ar    1  UNL1       -0.0003
     29 C           7.1426   -5.8136   29.0421 C.ar    1  UNL1       -0.0042
@<TRIPOS>BOND
     1     1     2    2
     2     2     3   am
     3    21     3    1
     4    21    22    1
     5    22    23    1
     6    23    24    1
     7    24    25   ar
     8    25    26   ar
     9    26    27   ar
    10    27    28   ar
    11    28    29   ar
    12     2     4   am
    13     4     5    1
    14     5     6    1
    15     6     7    1
    16     7     8    1
    17     8     9    1
    18     9    10    1
    19    10    11   ar
    20    11    12   ar
    21    12    13    1
    22    12    14   ar
    23    14    15   ar
    24    15    16   ar
    25    16    17    1
    26     7    18    1
    27    18    19    1
    28    23    21    1
    29    29    24   ar
    30    19     4    1
    31    17     7    1
    32    16    10   ar
    33     3    20    1
@<TRIPOS>MOLECULE
*****
 29 33 0 0 0
SMALL
GASTEIGER

@<TRIPOS>ATOM
      1 O           7.3064   -4.5758   20.5989 O.2     1  UNL1       -0.2526
      2 C           6.6569   -4.0813   21.8573 C.2     1  UNL1        0.3039
      3 N           5.5667   -3.0536   21.7848 N.am    1  UNL1       -0.2901
      4 N           7.0976   -4.6147   23.1883 N.am    1  UNL1       -0.2640
      5 C           8.1877   -5.6424   23.2608 C.3     1  UNL1        0.0985
      6 C           8.6284   -6.1757   24.5917 C.3     1  UNL1        0.0616
      7 C           7.9789   -5.6812   25.8501 C.3     1  UNL1        0.1367
      8 C           9.0691   -6.7090   25.9227 C.3     1  UNL1        0.0449
      9 C           9.5097   -7.2422   27.2536 C.3     1  UNL1        0.0331
     10 C           8.8602   -6.7478   28.5120 C.ar    1  UNL1        0.0141
     11 C           9.3009   -7.2811   29.8430 C.ar    1  UNL1        0.0284
     12 C           8.6514   -6.7866   31.1014 C.ar    1  UNL1        0.1400
     13 F           9.0921   -7.3199   32.4324 F       1  UNL1       -0.2042
     14 C           7.5612   -5.7588   31.0289 C.ar    1  UNL1        0.0327
     15 C           7.1206   -5.2256   29.6980 C.ar    1  UNL1        0.0389
     16 C           7.7701   -5.7200   28.4395 C.ar    1  UNL1        0.1343
     17 O           7.3294   -5.1867   27.1086 O.3     1  UNL1       -0.4828
     18 C           6.8887   -4.6535   25.7776 C.3     1  UNL1        0.0616
     19 C           6.4481   -4.1202   24.4467 C.3     1  UNL1        0.0985
     20 H           5.1405   -2.7291   22.6108 H       1  UNL1        0.1509
     21 C           5.1260   -2.5203   20.4538 C.3     1  UNL1        0.0774
     22 C           5.3100   -2.4216   18.9684 C.3     1  UNL1        0.0259
     23 C           4.1788   -1.6953   19.6340 C.3     1  UNL1        0.0420
     24 C           2.9789   -0.7997   19.5449 C.ar    1  UNL1       -0.0208
     25 C           2.9085    0.2563   18.4819 C.ar    1  UNL1       -0.0042
     26 C           1.7085    1.1519   18.3929 C.ar    1  UNL1       -0.0003
     27 C           0.5789    0.9916   19.3667 C.ar    1  UNL1       -0.0000
     28 C           0.6494   -0.0645   20.4297 C.ar    1  UNL1       -0.0003
     29 C           1.8494   -0.9601   20.5187 C.ar    1  UNL1       -0.0042
@<TRIPOS>BOND
     1     1     2    2
     2     2     3   am
     3    21     3    1
     4    21    22    1
     5    22    23    1
     6    23    24    1
     7    24    25   ar
     8    25    26   ar
     9    26    27   ar
    10    27    28   ar
    11    28    29   ar
    12     2     4   am
    13     4     5    1
    14     5     6    1
    15     6     7    1
    16     7     8    1
    17     8     9    1
    18     9    10    1
    19    10    11   ar
    20    11    12   ar
    21    12    13    1
    22    12    14   ar
    23    14    15   ar
    24    15    16   ar
    25    16    17    1
    26     7    18    1
    27    18    19    1
    28    23    21    1
    29    29    24   ar
    30    19     4    1
    31    17     7    1
    32    16    10   ar
    33     3    20    1
@<TRIPOS>MOLECULE
*****
 29 33 0 0 0
SMALL
GASTEIGER

@<TRIPOS>ATOM
      1 O           6.0183   -4.5092   20.7071 O.2     1  UNL1       -0.2526
      2 C           5.5925   -3.6331   21.8478 C.2     1  UNL1        0.3039
      3 N           6.2555   -3.7696   23.1863 N.am    1  UNL1       -0.2901
      4 N           4.5037   -2.6204   21.6499 N.am    1  UNL1       -0.2640
      5 C           3.8407   -2.4839   20.3113 C.3     1  UNL1        0.0985
      6 C           2.7520   -1.4713   20.1134 C.3     1  UNL1        0.0616
      7 C           2.3262   -0.5952   21.2541 C.3     1  UNL1        0.1367
      8 C           1.6631   -0.4587   19.9155 C.3     1  UNL1        0.0449
      9 C           0.5744    0.5539   19.7176 C.3     1  UNL1        0.0331
     10 C           0.1486    1.4300   20.8583 C.ar    1  UNL1        0.0141
     11 C          -0.9402    2.4426   20.6604 C.ar    1  UNL1        0.0284
     12 C          -1.3660    3.3187   21.8011 C.ar    1  UNL1        0.1400
     13 F          -2.4548    4.3313   21.6032 F       1  UNL1       -0.2042
     14 C          -0.7030    3.1822   23.1397 C.ar    1  UNL1        0.0327
     15 C           0.3858    2.1696   23.3376 C.ar    1  UNL1        0.0389
     16 C           0.8116    1.2935   22.1969 C.ar    1  UNL1        0.1343
     17 O           1.9004    0.2809   22.3948 O.3     1  UNL1       -0.4828
     18 C           2.9891   -0.7317   22.5927 C.3     1  UNL1        0.0616
     19 C           4.0779   -1.7443   22.7906 C.3     1  UNL1        0.0985
     20 H           5.9760   -3.1946   23.9350 H       1  UNL1        0.1509
     21 C           7.3443   -4.7822   23.3843 C.3     1  UNL1        0.0774
     22 C           8.5057   -5.5632   22.8447 C.3     1  UNL1        0.0259
     23 C           8.0688   -5.7551   24.2667 C.3     1  UNL1        0.0420
     24 C           8.2347   -6.4276   25.5971 C.ar    1  UNL1       -0.0208
     25 C           8.7190   -5.6418   26.7795 C.ar    1  UNL1       -0.0042
     26 C           8.8849   -6.3143   28.1100 C.ar    1  UNL1       -0.0003
     27 C           8.5666   -7.7727   28.2581 C.ar    1  UNL1       -0.0000
     28 C           8.0824   -8.5585   27.0757 C.ar    1  UNL1       -0.0003
     29 C           7.9165   -7.8859   25.7452 C.ar    1  UNL1       -0.0042
@<TRIPOS>BOND
     1     1     2    2
     2     2     3   am
     3    21     3    1
     4    21    22    1
     5    22    23    1
     6    23    24    1
     7    24    25   ar
     8    25    26   ar
     9    26    27   ar
    10    27    28   ar
    11    28    29   ar
    12     2     4   am
    13     4     5    1
    14     5     6    1
    15     6     7    1
    16     7     8    1
    17     8     9    1
    18     9    10    1
    19    10    11   ar
    20    11    12   ar
    21    12    13    1
    22    12    14   ar
    23    14    15   ar
    24    15    16   ar
    25    16    17    1
    26     7    18    1
    27    18    19    1
    28    23    21    1
    29    29    24   ar
    30    19     4    1
    31    17     7    1
    32    16    10   ar
    33     3    20    1
@<TRIPOS>MOLECULE
*****
 29 33 0 0 0
SMALL
GASTEIGER

@<TRIPOS>ATOM
      1 O           4.9648   -4.3789   21.4397 O.2     1  UNL1       -0.2526
      2 C           5.5974   -3.1008   20.9746 C.2     1  UNL1        0.3039
      3 N           7.0889   -2.9457   21.0104 N.am    1  UNL1       -0.2901
      4 N           4.7384   -1.9777   20.4737 N.am    1  UNL1       -0.2640
      5 C           3.2469   -2.1328   20.4379 C.3     1  UNL1        0.0985
      6 C           2.3879   -1.0097   19.9370 C.3     1  UNL1        0.0616
      7 C           3.0205    0.2684   19.4719 C.3     1  UNL1        0.1367
      8 C           1.5289    0.1134   19.4361 C.3     1  UNL1        0.0449
      9 C           0.6700    1.2364   18.9352 C.3     1  UNL1        0.0331
     10 C           1.3025    2.5145   18.4701 C.ar    1  UNL1        0.0141
     11 C           0.4435    3.6376   17.9692 C.ar    1  UNL1        0.0284
     12 C           1.0761    4.9157   17.5041 C.ar    1  UNL1        0.1400
     13 F           0.2171    6.0388   17.0032 F       1  UNL1       -0.2042
     14 C           2.5677    5.0707   17.5399 C.ar    1  UNL1        0.0327
     15 C           3.4266    3.9477   18.0408 C.ar    1  UNL1        0.0389
     16 C           2.7940    2.6696   18.5059 C.ar    1  UNL1        0.1343
     17 O           3.6531    1.5465   19.0068 O.3     1  UNL1       -0.4828
     18 C           4.5120    0.4234   19.5077 C.3     1  UNL1        0.0616
     19 C           5.3709   -0.6996   20.0086 C.3     1  UNL1        0.0985
     20 H           7.5041   -2.1069   20.7052 H       1  UNL1        0.1509
     21 C           7.9479   -4.0688   21.5113 C.3     1  UNL1        0.0774
     22 C           9.1230   -4.9841   21.3341 C.3     1  UNL1        0.0259
     23 C           8.2607   -5.0987   22.5561 C.3     1  UNL1        0.0420
     24 C           7.9433   -5.7595   23.8647 C.ar    1  UNL1       -0.0208
     25 C           7.2397   -4.9894   24.9426 C.ar    1  UNL1       -0.0042
     26 C           6.9224   -5.6502   26.2513 C.ar    1  UNL1       -0.0003
     27 C           7.3086   -7.0812   26.4821 C.ar    1  UNL1       -0.0000
     28 C           8.0123   -7.8513   25.4042 C.ar    1  UNL1       -0.0003
     29 C           8.3296   -7.1904   24.0955 C.ar    1  UNL1       -0.0042
@<TRIPOS>BOND
     1     1     2    2
     2     2     3   am
     3    21     3    1
     4    21    22    1
     5    22    23    1
     6    23    24    1
     7    24    25   ar
     8    25    26   ar
     9    26    27   ar
    10    27    28   ar
    11    28    29   ar
    12     2     4   am
    13     4     5    1
    14     5     6    1
    15     6     7    1
    16     7     8    1
    17     8     9    1
    18     9    10    1
    19    10    11   ar
    20    11    12   ar
    21    12    13    1
    22    12    14   ar
    23    14    15   ar
    24    15    16   ar
    25    16    17    1
    26     7    18    1
    27    18    19    1
    28    23    21    1
    29    29    24   ar
    30    19     4    1
    31    17     7    1
    32    16    10   ar
    33     3    20    1
@<TRIPOS>MOLECULE
*****
 29 33 0 0 0
SMALL
GASTEIGER

@<TRIPOS>ATOM
      1 O           8.1808   -5.4481   26.7987 O.2     1  UNL1       -0.2526
      2 C           7.0302   -4.5269   26.5203 C.2     1  UNL1        0.3039
      3 N           6.2077   -3.9904   27.6541 N.am    1  UNL1       -0.2901
      4 N           6.7021   -4.1423   25.1080 N.am    1  UNL1       -0.2640
      5 C           7.5246   -4.6788   23.9742 C.3     1  UNL1        0.0985
      6 C           7.1965   -4.2942   22.5620 C.3     1  UNL1        0.0616
      7 C           6.0459   -3.3730   22.2836 C.3     1  UNL1        0.1367
      8 C           6.8684   -3.9095   21.1497 C.3     1  UNL1        0.0449
      9 C           6.5403   -3.5249   19.7375 C.3     1  UNL1        0.0331
     10 C           5.3897   -2.6037   19.4591 C.ar    1  UNL1        0.0141
     11 C           5.0616   -2.2191   18.0468 C.ar    1  UNL1        0.0284
     12 C           3.9110   -1.2979   17.7684 C.ar    1  UNL1        0.1400
     13 F           3.5829   -0.9132   16.3562 F       1  UNL1       -0.2042
     14 C           3.0885   -0.7613   18.9023 C.ar    1  UNL1        0.0327
     15 C           3.4166   -1.1460   20.3145 C.ar    1  UNL1        0.0389
     16 C           4.5672   -2.0672   20.5929 C.ar    1  UNL1        0.1343
     17 O           4.8953   -2.4518   22.0052 O.3     1  UNL1       -0.4828
     18 C           5.2234   -2.8364   23.4174 C.3     1  UNL1        0.0616
     19 C           5.5515   -3.2211   24.8296 C.3     1  UNL1        0.0985
     20 H           5.4525   -3.3858   27.4713 H       1  UNL1        0.1509
     21 C           6.5358   -4.3750   29.0664 C.3     1  UNL1        0.0774
     22 C           6.9348   -5.4160   30.0699 C.3     1  UNL1        0.0259
     23 C           6.7051   -4.0002   30.5089 C.3     1  UNL1        0.0420
     24 C           6.6703   -2.9664   31.5951 C.ar    1  UNL1       -0.0208
     25 C           5.3619   -2.5725   32.2139 C.ar    1  UNL1       -0.0042
     26 C           5.3270   -1.5387   33.3001 C.ar    1  UNL1       -0.0003
     27 C           6.6007   -0.8988   33.7677 C.ar    1  UNL1       -0.0000
     28 C           7.9091   -1.2927   33.1489 C.ar    1  UNL1       -0.0003
     29 C           7.9439   -2.3266   32.0626 C.ar    1  UNL1       -0.0042
@<TRIPOS>BOND
     1     1     2    2
     2     2     3   am
     3    21     3    1
     4    21    22    1
     5    22    23    1
     6    23    24    1
     7    24    25   ar
     8    25    26   ar
     9    26    27   ar
    10    27    28   ar
    11    28    29   ar
    12     2     4   am
    13     4     5    1
    14     5     6    1
    15     6     7    1
    16     7     8    1
    17     8     9    1
    18     9    10    1
    19    10    11   ar
    20    11    12   ar
    21    12    13    1
    22    12    14   ar
    23    14    15   ar
    24    15    16   ar
    25    16    17    1
    26     7    18    1
    27    18    19    1
    28    23    21    1
    29    29    24   ar
    30    19     4    1
    31    17     7    1
    32    16    10   ar
    33     3    20    1
@<TRIPOS>MOLECULE
*****
 29 33 0 0 0
SMALL
GASTEIGER

@<TRIPOS>ATOM
      1 O           2.8587    0.9659   22.2533 O.2     1  UNL1       -0.2526
      2 C           1.6995    1.7016   21.6492 C.2     1  UNL1        0.3039
      3 N           1.6415    1.9220   20.1666 N.am    1  UNL1       -0.2901
      4 N           0.5982    2.2170   22.5277 N.am    1  UNL1       -0.2640
      5 C           0.6561    1.9966   24.0102 C.3     1  UNL1        0.0985
      6 C          -0.4451    2.5119   24.8886 C.3     1  UNL1        0.0616
      7 C          -1.6043    3.2476   24.2845 C.3     1  UNL1        0.1367
      8 C          -1.5464    3.0272   25.7671 C.3     1  UNL1        0.0449
      9 C          -2.6477    3.5426   26.6455 C.3     1  UNL1        0.0331
     10 C          -3.8069    4.2783   26.0413 C.ar    1  UNL1        0.0141
     11 C          -4.9082    4.7936   26.9198 C.ar    1  UNL1        0.0284
     12 C          -6.0673    5.5294   26.3157 C.ar    1  UNL1        0.1400
     13 F          -7.1686    6.0447   27.1941 F       1  UNL1       -0.2042
     14 C          -6.1252    5.7497   24.8330 C.ar    1  UNL1        0.0327
     15 C          -5.0240    5.2344   23.9546 C.ar    1  UNL1        0.0389
     16 C          -3.8648    4.4987   24.5588 C.ar    1  UNL1        0.1343
     17 O          -2.7635    3.9833   23.6803 O.3     1  UNL1       -0.4828
     18 C          -1.6623    3.4680   22.8019 C.3     1  UNL1        0.0616
     19 C          -0.5610    2.9527   21.9235 C.3     1  UNL1        0.0985
     20 H           0.8807    2.4049   19.7701 H       1  UNL1        0.1509
     21 C           2.7428    1.4067   19.2881 C.3     1  UNL1        0.0774
     22 C           3.8055    1.6520   18.2584 C.3     1  UNL1        0.0259
     23 C           3.5876    0.2689   18.7964 C.3     1  UNL1        0.0420
     24 C           3.9494   -1.1865   18.8232 C.ar    1  UNL1       -0.0208
     25 C           5.1729   -1.6686   18.1016 C.ar    1  UNL1       -0.0042
     26 C           5.5348   -3.1240   18.1283 C.ar    1  UNL1       -0.0003
     27 C           4.6731   -4.0975   18.8767 C.ar    1  UNL1       -0.0000
     28 C           3.4496   -3.6154   19.5983 C.ar    1  UNL1       -0.0003
     29 C           3.0878   -2.1599   19.5715 C.ar    1  UNL1       -0.0042
@<TRIPOS>BOND
     1     1     2    2
     2     2     3   am
     3    21     3    1
     4    21    22    1
     5    22    23    1
     6    23    24    1
     7    24    25   ar
     8    25    26   ar
     9    26    27   ar
    10    27    28   ar
    11    28    29   ar
    12     2     4   am
    13     4     5    1
    14     5     6    1
    15     6     7    1
    16     7     8    1
    17     8     9    1
    18     9    10    1
    19    10    11   ar
    20    11    12   ar
    21    12    13    1
    22    12    14   ar
    23    14    15   ar
    24    15    16   ar
    25    16    17    1
    26     7    18    1
    27    18    19    1
    28    23    21    1
    29    29    24   ar
    30    19     4    1
    31    17     7    1
    32    16    10   ar
    33     3    20    1
@<TRIPOS>MOLECULE
*****
 29 33 0 0 0
SMALL
GASTEIGER

@<TRIPOS>ATOM
      1 O           2.6374    1.8262   21.9870 O.2     1  UNL1       -0.2526
      2 C           1.4167    2.0772   21.1522 C.2     1  UNL1        0.3039
      3 N           1.4659    1.8639   19.6683 N.am    1  UNL1       -0.2901
      4 N           0.1466    2.5415   21.8015 N.am    1  UNL1       -0.2640
      5 C           0.0974    2.7548   23.2854 C.3     1  UNL1        0.0985
      6 C          -1.1726    3.2191   23.9346 C.3     1  UNL1        0.0616
      7 C          -2.3934    3.4701   23.0999 C.3     1  UNL1        0.1367
      8 C          -2.4426    3.6834   24.5839 C.3     1  UNL1        0.0449
      9 C          -3.7126    4.1477   25.2331 C.3     1  UNL1        0.0331
     10 C          -4.9334    4.3987   24.3984 C.ar    1  UNL1        0.0141
     11 C          -6.2034    4.8631   25.0476 C.ar    1  UNL1        0.0284
     12 C          -7.4242    5.1141   24.2129 C.ar    1  UNL1        0.1400
     13 F          -8.6942    5.5784   24.8621 F       1  UNL1       -0.2042
     14 C          -7.3749    4.9008   22.7289 C.ar    1  UNL1        0.0327
     15 C          -6.1049    4.4365   22.0797 C.ar    1  UNL1        0.0389
     16 C          -4.8841    4.1855   22.9145 C.ar    1  UNL1        0.1343
     17 O          -3.6141    3.7211   22.2652 O.3     1  UNL1       -0.4828
     18 C          -2.3441    3.2568   21.6160 C.3     1  UNL1        0.0616
     19 C          -1.0741    2.7925   20.9668 C.3     1  UNL1        0.0985
     20 H           0.6647    2.0287   19.1205 H       1  UNL1        0.1509
     21 C           2.7359    1.3996   19.0191 C.3     1  UNL1        0.0774
     22 C           3.9793    1.6996   18.2355 C.3     1  UNL1        0.0259
     23 C           3.6923    0.2954   18.6781 C.3     1  UNL1        0.0420
     24 C           4.0787   -1.1527   18.7368 C.ar    1  UNL1       -0.0208
     25 C           3.1500   -2.1521   19.3605 C.ar    1  UNL1       -0.0042
     26 C           3.5364   -3.6002   19.4192 C.ar    1  UNL1       -0.0003
     27 C           4.8515   -4.0491   18.8542 C.ar    1  UNL1       -0.0000
     28 C           5.7801   -3.0498   18.2305 C.ar    1  UNL1       -0.0003
     29 C           5.3937   -1.6016   18.1718 C.ar    1  UNL1       -0.0042
@<TRIPOS>BOND
     1     1     2    2
     2     2     3   am
     3    21     3    1
     4    21    22    1
     5    22    23    1
     6    23    24    1
     7    24    25   ar
     8    25    26   ar
     9    26    27   ar
    10    27    28   ar
    11    28    29   ar
    12     2     4   am
    13     4     5    1
    14     5     6    1
    15     6     7    1
    16     7     8    1
    17     8     9    1
    18     9    10    1
    19    10    11   ar
    20    11    12   ar
    21    12    13    1
    22    12    14   ar
    23    14    15   ar
    24    15    16   ar
    25    16    17    1
    26     7    18    1
    27    18    19    1
    28    23    21    1
    29    29    24   ar
    30    19     4    1
    31    17     7    1
    32    16    10   ar
    33     3    20    1
@<TRIPOS>MOLECULE
*****
 29 33 0 0 0
SMALL
GASTEIGER

@<TRIPOS>ATOM
      1 O          -1.6303    3.5862   22.6207 O.2     1  UNL1       -0.2526
      2 C          -1.2952    2.8367   21.3654 C.2     1  UNL1        0.3039
      3 N          -2.0770    3.0882   20.1103 N.am    1  UNL1       -0.2901
      4 N          -0.1780    1.8356   21.3653 N.am    1  UNL1       -0.2640
      5 C           0.6038    1.5841   22.6204 C.3     1  UNL1        0.0985
      6 C           1.7209    0.5831   22.6202 C.3     1  UNL1        0.0616
      7 C           2.0561   -0.1665   21.3648 C.3     1  UNL1        0.1367
      8 C           2.8380   -0.4180   22.6200 C.3     1  UNL1        0.0449
      9 C           3.9551   -1.4191   22.6198 C.3     1  UNL1        0.0331
     10 C           4.2903   -2.1686   21.3645 C.ar    1  UNL1        0.0141
     11 C           5.4074   -3.1697   21.3643 C.ar    1  UNL1        0.0284
     12 C           5.7426   -3.9192   20.1090 C.ar    1  UNL1        0.1400
     13 F           6.8596   -4.9203   20.1088 F       1  UNL1       -0.2042
     14 C           4.9606   -3.6677   18.8538 C.ar    1  UNL1        0.0327
     15 C           3.8436   -2.6667   18.8540 C.ar    1  UNL1        0.0389
     16 C           3.5084   -1.9171   20.1094 C.ar    1  UNL1        0.1343
     17 O           2.3913   -0.9160   20.1095 O.3     1  UNL1       -0.4828
     18 C           1.2742    0.0850   20.1097 C.3     1  UNL1        0.0616
     19 C           0.1571    1.0860   20.1099 C.3     1  UNL1        0.0985
     20 H          -1.8570    2.5962   19.2864 H       1  UNL1        0.1509
     21 C          -3.1942    4.0893   20.1104 C.3     1  UNL1        0.0774
     22 C          -3.9698    5.1703   19.4179 C.3     1  UNL1        0.0259
     23 C          -4.3534    4.7421   20.8033 C.3     1  UNL1        0.0420
     24 C          -5.2441    4.8718   22.0032 C.ar    1  UNL1       -0.0208
     25 C          -4.7543    5.5878   23.2269 C.ar    1  UNL1       -0.0042
     26 C          -5.6450    5.7175   24.4268 C.ar    1  UNL1       -0.0003
     27 C          -7.0255    5.1311   24.4030 C.ar    1  UNL1       -0.0000
     28 C          -7.5153    4.4151   23.1793 C.ar    1  UNL1       -0.0003
     29 C          -6.6245    4.2855   21.9794 C.ar    1  UNL1       -0.0042
@<TRIPOS>BOND
     1     1     2    2
     2     2     3   am
     3    21     3    1
     4    21    22    1
     5    22    23    1
     6    23    24    1
     7    24    25   ar
     8    25    26   ar
     9    26    27   ar
    10    27    28   ar
    11    28    29   ar
    12     2     4   am
    13     4     5    1
    14     5     6    1
    15     6     7    1
    16     7     8    1
    17     8     9    1
    18     9    10    1
    19    10    11   ar
    20    11    12   ar
    21    12    13    1
    22    12    14   ar
    23    14    15   ar
    24    15    16   ar
    25    16    17    1
    26     7    18    1
    27    18    19    1
    28    23    21    1
    29    29    24   ar
    30    19     4    1
    31    17     7    1
    32    16    10   ar
    33     3    20    1
@<TRIPOS>MOLECULE
*****
 29 33 0 0 0
SMALL
GASTEIGER

@<TRIPOS>ATOM
      1 O           4.7668   -1.6155   29.1015 O.2     1  UNL1       -0.2526
      2 C           5.5482   -2.2710   28.0016 C.2     1  UNL1        0.3039
      3 N           6.7204   -3.1462   28.3331 N.am    1  UNL1       -0.2901
      4 N           5.1574   -2.0511   26.5702 N.am    1  UNL1       -0.2640
      5 C           3.9852   -1.1759   26.2387 C.3     1  UNL1        0.0985
      6 C           3.5945   -0.9560   24.8073 C.3     1  UNL1        0.0616
      7 C           4.3759   -1.6115   23.7074 C.3     1  UNL1        0.1367
      8 C           3.2036   -0.7362   23.3758 C.3     1  UNL1        0.0449
      9 C           2.8129   -0.5163   21.9444 C.3     1  UNL1        0.0331
     10 C           3.5943   -1.1718   20.8445 C.ar    1  UNL1        0.0141
     11 C           3.2034   -0.9519   19.4131 C.ar    1  UNL1        0.0284
     12 C           3.9848   -1.6073   18.3131 C.ar    1  UNL1        0.1400
     13 F           3.5941   -1.3875   16.8817 F       1  UNL1       -0.2042
     14 C           5.1571   -2.4826   18.6447 C.ar    1  UNL1        0.0327
     15 C           5.5478   -2.7025   20.0761 C.ar    1  UNL1        0.0389
     16 C           4.7664   -2.0470   21.1760 C.ar    1  UNL1        0.1343
     17 O           5.1573   -2.2669   22.6074 O.3     1  UNL1       -0.4828
     18 C           5.5480   -2.4867   24.0388 C.3     1  UNL1        0.0616
     19 C           5.9388   -2.7065   25.4702 C.3     1  UNL1        0.0985
     20 H           7.2332   -3.5764   27.6112 H       1  UNL1        0.1509
     21 C           7.1112   -3.3661   29.7645 C.3     1  UNL1        0.0774
     22 C           7.9431   -4.0788   30.7892 C.3     1  UNL1        0.0259
     23 C           6.9562   -3.0342   31.2191 C.3     1  UNL1        0.0420
     24 C           6.2969   -2.2395   32.3071 C.ar    1  UNL1       -0.0208
     25 C           6.9652   -1.0105   32.8484 C.ar    1  UNL1       -0.0042
     26 C           6.3059   -0.2159   33.9364 C.ar    1  UNL1       -0.0003
     27 C           4.9783   -0.6501   34.4832 C.ar    1  UNL1       -0.0000
     28 C           4.3100   -1.8791   33.9419 C.ar    1  UNL1       -0.0003
     29 C           4.9694   -2.6738   32.8538 C.ar    1  UNL1       -0.0042
@<TRIPOS>BOND
     1     1     2    2
     2     2     3   am
     3    21     3    1
     4    21    22    1
     5    22    23    1
     6    23    24    1
     7    24    25   ar
     8    25    26   ar
     9    26    27   ar
    10    27    28   ar
    11    28    29   ar
    12     2     4   am
    13     4     5    1
    14     5     6    1
    15     6     7    1
    16     7     8    1
    17     8     9    1
    18     9    10    1
    19    10    11   ar
    20    11    12   ar
    21    12    13    1
    22    12    14   ar
    23    14    15   ar
    24    15    16   ar
    25    16    17    1
    26     7    18    1
    27    18    19    1
    28    23    21    1
    29    29    24   ar
    30    19     4    1
    31    17     7    1
    32    16    10   ar
    33     3    20    1
