@<TRIPOS>MOLECULE
*****
 34 37 0 0 0
SMALL
GASTEIGER

@<TRIPOS>ATOM
      1 C           6.1940   -1.6804   32.6466 C.ar    1  UNL1        0.2046
      2 N           5.9433   -3.1536   32.7764 N.ar    1  UNL1       -0.1998
      3 C           6.7831   -4.1281   32.0050 C.ar    1  UNL1        0.1389
      4 N           6.5324   -5.6013   32.1348 N.pl3   1  UNL1       -0.3420
      5 C           7.8735   -3.6294   31.1037 C.ar    1  UNL1        0.1169
      6 C           8.1242   -2.1562   30.9739 C.ar    1  UNL1        0.2716
      7 O           9.2146   -1.6575   30.0727 O.2     1  UNL1       -0.2663
      8 N           7.2844   -1.1817   31.7454 N.ar    1  UNL1       -0.2662
      9 C           7.5350    0.2915   31.6156 C.3     1  UNL1        0.1363
     10 H           5.8167   -5.9286   32.7263 H       1  UNL1        0.1437
     11 H           7.0836   -6.2409   31.6285 H       1  UNL1        0.1437
     12 C           2.5206    3.1578   38.1338 C.3     1  UNL1        0.0335
     13 C           2.7582    2.5712   36.7739 C.3     1  UNL1        0.1294
     14 O           2.0065    2.9145   35.5220 O.3     1  UNL1       -0.3548
     15 C           2.5730    2.0937   34.4015 C.3     1  UNL1        0.1434
     16 C           3.6747    1.2432   34.9608 C.3     1  UNL1        0.0460
     17 C           3.4436    1.0532   33.4910 C.3     1  UNL1        0.0254
     18 C           4.2834    0.0787   32.7196 C.3     1  UNL1        0.0937
     19 N           5.3542   -0.7059   33.4181 N.pl3   1  UNL1       -0.2794
     20 C           5.5852   -0.5159   34.8879 C.3     1  UNL1        0.0937
     21 C           4.7455    0.4586   35.6593 C.3     1  UNL1        0.0254
     22 C           3.7891    1.5383   36.4271 C.3     1  UNL1        0.0807
     23 N           4.7635    0.9107   37.3793 N.3     1  UNL1       -0.3202
     24 H           5.3474    0.2422   36.8767 H       1  UNL1        0.1189
     25 H           4.2532    0.4278   38.1187 H       1  UNL1        0.1189
     26 S           8.7133   -4.6039   30.3323 S.3     1  UNL1       -0.0786
     27 C           8.1564   -5.2697   29.1089 C.ar    1  UNL1        0.0411
     28 C           7.2541   -4.5069   28.1849 C.ar    1  UNL1        0.0074
     29 C           6.6972   -5.1727   26.9615 C.ar    1  UNL1        0.0014
     30 C           7.0428   -6.6013   26.6622 C.ar    1  UNL1        0.0123
     31 C           7.9452   -7.3641   27.5862 C.ar    1  UNL1        0.0687
     32 CL          8.2907   -8.7927   27.2868 Cl      1  UNL1       -0.0813
     33 C           8.5020   -6.6984   28.8095 C.ar    1  UNL1        0.0741
     34 CL          9.4044   -7.4612   29.7335 Cl      1  UNL1       -0.0808
@<TRIPOS>BOND
     1    13    12    1
     2    13    14    1
     3    14    15    1
     4    15    16    1
     5    16    17    1
     6    17    18    1
     7    18    19    1
     8    19     1    1
     9     1     2   ar
    10     2     3   ar
    11     3     4    1
    12     3     5   ar
    13     5    26    1
    14    26    27    1
    15    27    28   ar
    16    28    29   ar
    17    29    30   ar
    18    30    31   ar
    19    31    32    1
    20    31    33   ar
    21    33    34    1
    22     5     6   ar
    23     6     7    2
    24     6     8   ar
    25     8     9    1
    26    19    20    1
    27    20    21    1
    28    16    22    1
    29    22    23    1
    30    22    13    1
    31    21    16    1
    32     8     1   ar
    33    33    27   ar
    34     4    10    1
    35     4    11    1
    36    23    24    1
    37    23    25    1
@<TRIPOS>MOLECULE
*****
 34 37 0 0 0
SMALL
GASTEIGER

@<TRIPOS>ATOM
      1 C           0.1419    2.3319   20.7399 C.ar    1  UNL1        0.2046
      2 N          -1.3318    2.1408   20.5356 N.ar    1  UNL1       -0.1998
      3 C          -2.3068    3.0772   21.1858 C.ar    1  UNL1        0.1389
      4 N          -3.7804    2.8861   20.9815 N.pl3   1  UNL1       -0.3420
      5 C          -1.8080    4.2046   22.0403 C.ar    1  UNL1        0.1169
      6 C          -0.3343    4.3957   22.2446 C.ar    1  UNL1        0.2716
      7 O           0.1645    5.5231   23.0990 O.2     1  UNL1       -0.2663
      8 N           0.6406    3.4593   21.5944 N.ar    1  UNL1       -0.2662
      9 C           2.1144    3.6504   21.7987 C.3     1  UNL1        0.1363
     10 H          -4.1078    2.1461   20.4207 H       1  UNL1        0.1437
     11 H          -4.4203    3.5007   21.4083 H       1  UNL1        0.1437
     12 C           5.3943   -3.5786   18.6211 C.3     1  UNL1        0.0335
     13 C           4.5848   -2.3331   18.4131 C.3     1  UNL1        0.1294
     14 O           4.5493   -1.5029   17.1643 O.3     1  UNL1       -0.3548
     15 C           3.6110   -0.3558   17.3968 C.3     1  UNL1        0.1434
     16 C           3.0667   -0.4771   18.7893 C.3     1  UNL1        0.0460
     17 C           2.5485    0.7100   18.0329 C.3     1  UNL1        0.0254
     18 C           1.5735    1.6463   18.6831 C.3     1  UNL1        0.0937
     19 N           1.1168    1.3955   20.0897 N.pl3   1  UNL1       -0.2794
     20 C           1.6351    0.2084   20.8461 C.3     1  UNL1        0.0937
     21 C           2.6100   -0.7279   20.1959 C.3     1  UNL1        0.0254
     22 C           3.6685   -1.6992   19.4174 C.3     1  UNL1        0.0807
     23 N           3.4010   -2.1993   20.8060 N.3     1  UNL1       -0.3202
     24 H           2.7389   -1.5773   21.2697 H       1  UNL1        0.1189
     25 H           4.2737   -2.2212   21.3335 H       1  UNL1        0.1189
     26 S          -2.7829    5.1410   22.6905 S.3     1  UNL1       -0.0786
     27 C          -3.3074    4.8427   24.0637 C.ar    1  UNL1        0.0411
     28 C          -2.5352    3.9430   24.9825 C.ar    1  UNL1        0.0074
     29 C          -3.0598    3.6447   26.3558 C.ar    1  UNL1        0.0014
     30 C          -4.3566    4.2461   26.8102 C.ar    1  UNL1        0.0123
     31 C          -5.1288    5.1458   25.8915 C.ar    1  UNL1        0.0687
     32 CL         -6.4256    5.7472   26.3459 Cl      1  UNL1       -0.0813
     33 C          -4.6043    5.4441   24.5182 C.ar    1  UNL1        0.0741
     34 CL         -5.3766    6.3438   23.5995 Cl      1  UNL1       -0.0808
@<TRIPOS>BOND
     1    13    12    1
     2    13    14    1
     3    14    15    1
     4    15    16    1
     5    16    17    1
     6    17    18    1
     7    18    19    1
     8    19     1    1
     9     1     2   ar
    10     2     3   ar
    11     3     4    1
    12     3     5   ar
    13     5    26    1
    14    26    27    1
    15    27    28   ar
    16    28    29   ar
    17    29    30   ar
    18    30    31   ar
    19    31    32    1
    20    31    33   ar
    21    33    34    1
    22     5     6   ar
    23     6     7    2
    24     6     8   ar
    25     8     9    1
    26    19    20    1
    27    20    21    1
    28    16    22    1
    29    22    23    1
    30    22    13    1
    31    21    16    1
    32     8     1   ar
    33    33    27   ar
    34     4    10    1
    35     4    11    1
    36    23    24    1
    37    23    25    1
@<TRIPOS>MOLECULE
*****
 34 37 0 0 0
SMALL
GASTEIGER

@<TRIPOS>ATOM
      1 C           6.1674   -3.6317   22.3707 C.ar    1  UNL1        0.2046
      2 N           5.1545   -4.3402   21.5209 N.ar    1  UNL1       -0.1998
      3 C           4.5134   -3.6275   20.3671 C.ar    1  UNL1        0.1389
      4 N           3.5005   -4.3360   19.5173 N.pl3   1  UNL1       -0.3420
      5 C           4.8852   -2.2065   20.0631 C.ar    1  UNL1        0.1169
      6 C           5.8981   -1.4981   20.9130 C.ar    1  UNL1        0.2716
      7 O           6.2699   -0.0770   20.6090 O.2     1  UNL1       -0.2663
      8 N           6.5392   -2.2107   22.0667 N.ar    1  UNL1       -0.2662
      9 C           7.5521   -1.5022   22.9166 C.3     1  UNL1        0.1363
     10 H           3.2565   -5.2687   19.7168 H       1  UNL1        0.1437
     11 H           3.0797   -3.8683   18.7601 H       1  UNL1        0.1437
     12 C           8.6003   -6.6658   29.5739 C.3     1  UNL1        0.0335
     13 C           8.6197   -6.5091   28.0823 C.3     1  UNL1        0.1294
     14 O           9.5352   -7.2232   27.1325 O.3     1  UNL1       -0.3548
     15 C           9.2083   -6.7662   25.7417 C.3     1  UNL1        0.1434
     16 C           8.0908   -5.7695   25.8319 C.3     1  UNL1        0.0460
     17 C           8.5630   -6.0317   24.4325 C.3     1  UNL1        0.0254
     18 C           7.9219   -5.3191   23.2788 C.3     1  UNL1        0.0937
     19 N           6.8085   -4.3443   23.5245 N.pl3   1  UNL1       -0.2794
     20 C           6.3363   -4.0822   24.9238 C.3     1  UNL1        0.0937
     21 C           6.9775   -4.7948   26.0776 C.3     1  UNL1        0.0254
     22 C           7.7271   -5.6107   27.2785 C.3     1  UNL1        0.0807
     23 N           6.6584   -4.7113   27.8252 N.3     1  UNL1       -0.3202
     24 H           6.2066   -4.2144   27.0575 H       1  UNL1        0.1189
     25 H           7.0764   -4.0376   28.4669 H       1  UNL1        0.1189
     26 S           4.2441   -1.4939   18.9094 S.3     1  UNL1       -0.0786
     27 C           3.0979   -0.5568   19.1501 C.ar    1  UNL1        0.0411
     28 C           1.8808   -1.0339   19.8858 C.ar    1  UNL1        0.0074
     29 C           0.7346   -0.0967   20.1265 C.ar    1  UNL1        0.0014
     30 C           0.8054    1.3175   19.6315 C.ar    1  UNL1        0.0123
     31 C           2.0224    1.7945   18.8958 C.ar    1  UNL1        0.0687
     32 CL          2.0931    3.2087   18.4008 Cl      1  UNL1       -0.0813
     33 C           3.1686    0.8575   18.6551 C.ar    1  UNL1        0.0741
     34 CL          4.3856    1.3345   17.9194 Cl      1  UNL1       -0.0808
@<TRIPOS>BOND
     1    13    12    1
     2    13    14    1
     3    14    15    1
     4    15    16    1
     5    16    17    1
     6    17    18    1
     7    18    19    1
     8    19     1    1
     9     1     2   ar
    10     2     3   ar
    11     3     4    1
    12     3     5   ar
    13     5    26    1
    14    26    27    1
    15    27    28   ar
    16    28    29   ar
    17    29    30   ar
    18    30    31   ar
    19    31    32    1
    20    31    33   ar
    21    33    34    1
    22     5     6   ar
    23     6     7    2
    24     6     8   ar
    25     8     9    1
    26    19    20    1
    27    20    21    1
    28    16    22    1
    29    22    23    1
    30    22    13    1
    31    21    16    1
    32     8     1   ar
    33    33    27   ar
    34     4    10    1
    35     4    11    1
    36    23    24    1
    37    23    25    1
@<TRIPOS>MOLECULE
*****
 34 37 0 0 0
SMALL
GASTEIGER

@<TRIPOS>ATOM
      1 C           1.8527    1.2542   30.5130 C.ar    1  UNL1        0.2046
      2 N           0.7385    0.3241   30.1341 N.ar    1  UNL1       -0.1998
      3 C           0.2007    0.3291   28.7338 C.ar    1  UNL1        0.1389
      4 N          -0.9134   -0.6010   28.3550 N.pl3   1  UNL1       -0.3420
      5 C           0.7771    1.2642   27.7124 C.ar    1  UNL1        0.1169
      6 C           1.8913    2.1944   28.0913 C.ar    1  UNL1        0.2716
      7 O           2.4677    3.1295   27.0698 O.2     1  UNL1       -0.2663
      8 N           2.4291    2.1893   29.4915 N.ar    1  UNL1       -0.2662
      9 C           3.5433    3.1194   29.8704 C.3     1  UNL1        0.1363
     10 H          -1.2917   -1.2147   29.0254 H       1  UNL1        0.1437
     11 H          -1.2664   -0.5977   27.4360 H       1  UNL1        0.1437
     12 C           3.7193    2.4477   38.3935 C.3     1  UNL1        0.0335
     13 C           3.8298    1.7924   37.0488 C.3     1  UNL1        0.1294
     14 O           4.7579    0.6705   36.6883 O.3     1  UNL1       -0.3548
     15 C           4.5332    0.3285   35.2451 C.3     1  UNL1        0.1434
     16 C           3.4662    1.2391   34.7137 C.3     1  UNL1        0.0460
     17 C           4.0010    0.2701   33.7014 C.3     1  UNL1        0.0254
     18 C           3.4632    0.2751   32.3012 C.3     1  UNL1        0.0937
     19 N           2.3905    1.2492   31.9133 N.pl3   1  UNL1       -0.2794
     20 C           1.8557    2.2183   32.9256 C.3     1  UNL1        0.0937
     21 C           2.3935    2.2132   34.3258 C.3     1  UNL1        0.0254
     22 C           3.0315    2.1438   35.8285 C.3     1  UNL1        0.0807
     23 N           1.9826    3.2123   35.7386 N.3     1  UNL1       -0.3202
     24 H           1.6008    3.2353   34.7930 H       1  UNL1        0.1189
     25 H           2.3990    4.1170   35.9592 H       1  UNL1        0.1189
     26 S           0.2393    1.2693   26.3122 S.3     1  UNL1       -0.0786
     27 C          -0.7695    2.2999   25.9000 C.ar    1  UNL1        0.0411
     28 C          -1.7360    2.8483   26.9075 C.ar    1  UNL1        0.0074
     29 C          -2.7449    3.8790   26.4952 C.ar    1  UNL1        0.0014
     30 C          -2.7873    4.3612   25.0755 C.ar    1  UNL1        0.0123
     31 C          -1.8208    3.8127   24.0680 C.ar    1  UNL1        0.0687
     32 CL         -1.8632    4.2949   22.6482 Cl      1  UNL1       -0.0813
     33 C          -0.8119    2.7821   24.4802 C.ar    1  UNL1        0.0741
     34 CL          0.1545    2.2337   23.4726 Cl      1  UNL1       -0.0808
@<TRIPOS>BOND
     1    13    12    1
     2    13    14    1
     3    14    15    1
     4    15    16    1
     5    16    17    1
     6    17    18    1
     7    18    19    1
     8    19     1    1
     9     1     2   ar
    10     2     3   ar
    11     3     4    1
    12     3     5   ar
    13     5    26    1
    14    26    27    1
    15    27    28   ar
    16    28    29   ar
    17    29    30   ar
    18    30    31   ar
    19    31    32    1
    20    31    33   ar
    21    33    34    1
    22     5     6   ar
    23     6     7    2
    24     6     8   ar
    25     8     9    1
    26    19    20    1
    27    20    21    1
    28    16    22    1
    29    22    23    1
    30    22    13    1
    31    21    16    1
    32     8     1   ar
    33    33    27   ar
    34     4    10    1
    35     4    11    1
    36    23    24    1
    37    23    25    1
@<TRIPOS>MOLECULE
*****
 34 37 0 0 0
SMALL
GASTEIGER

@<TRIPOS>ATOM
      1 C          -7.0950  -18.8207   22.2929 C.ar    1  UNL1        0.2046
      2 N          -6.7331  -20.0187   21.4662 N.ar    1  UNL1       -0.1998
      3 C          -5.2918  -20.3410   21.2033 C.ar    1  UNL1        0.1389
      4 N          -4.9299  -21.5391   20.3766 N.pl3   1  UNL1       -0.3420
      5 C          -4.2125  -19.4652   21.7673 C.ar    1  UNL1        0.1169
      6 C          -4.5745  -18.2670   22.5941 C.ar    1  UNL1        0.2716
      7 O          -3.4952  -17.3912   23.1581 O.2     1  UNL1       -0.2663
      8 N          -6.0157  -17.9448   22.8569 N.ar    1  UNL1       -0.2662
      9 C          -6.3777  -16.7467   23.6837 C.3     1  UNL1        0.1363
     10 H          -5.6383  -22.1139   20.0064 H       1  UNL1        0.1437
     11 H          -3.9840  -21.7506   20.2041 H       1  UNL1        0.1437
     12 C         -14.8306  -18.2021   24.8985 C.3     1  UNL1        0.0335
     13 C         -13.6494  -17.8657   24.0374 C.3     1  UNL1        0.1294
     14 O         -13.6234  -16.8498   22.9340 O.3     1  UNL1       -0.3548
     15 C         -12.2447  -16.8425   22.3431 C.3     1  UNL1        0.1434
     16 C         -11.4186  -17.8537   23.0813 C.3     1  UNL1        0.0460
     17 C         -10.6755  -17.1352   21.9944 C.3     1  UNL1        0.0254
     18 C          -9.2343  -17.4575   21.7316 C.3     1  UNL1        0.0937
     19 N          -8.5362  -18.4984   22.5558 N.pl3   1  UNL1       -0.2794
     20 C          -9.2793  -19.2169   23.6427 C.3     1  UNL1        0.0937
     21 C         -10.7205  -18.8946   23.9054 C.3     1  UNL1        0.0254
     22 C         -12.2868  -18.4861   24.1284 C.3     1  UNL1        0.0807
     23 N         -11.8661  -19.5518   25.0965 N.3     1  UNL1       -0.3202
     24 H         -10.8869  -19.7886   24.9371 H       1  UNL1        0.1189
     25 H         -12.4431  -20.3818   24.9604 H       1  UNL1        0.1189
     26 S          -2.7713  -19.7874   21.5046 S.3     1  UNL1       -0.0786
     27 C          -1.9697  -18.9309   20.5699 C.ar    1  UNL1        0.0411
     28 C          -0.5342  -18.6241   20.8786 C.ar    1  UNL1        0.0074
     29 C           0.2674  -17.7675   19.9438 C.ar    1  UNL1        0.0014
     30 C          -0.3664  -17.2177   18.7005 C.ar    1  UNL1        0.0123
     31 C          -1.8019  -17.5245   18.3918 C.ar    1  UNL1        0.0687
     32 CL         -2.4357  -16.9747   17.1485 Cl      1  UNL1       -0.0813
     33 C          -2.6035  -18.3810   19.3265 C.ar    1  UNL1        0.0741
     34 CL         -4.0390  -18.6878   19.0178 Cl      1  UNL1       -0.0808
@<TRIPOS>BOND
     1    13    12    1
     2    13    14    1
     3    14    15    1
     4    15    16    1
     5    16    17    1
     6    17    18    1
     7    18    19    1
     8    19     1    1
     9     1     2   ar
    10     2     3   ar
    11     3     4    1
    12     3     5   ar
    13     5    26    1
    14    26    27    1
    15    27    28   ar
    16    28    29   ar
    17    29    30   ar
    18    30    31   ar
    19    31    32    1
    20    31    33   ar
    21    33    34    1
    22     5     6   ar
    23     6     7    2
    24     6     8   ar
    25     8     9    1
    26    19    20    1
    27    20    21    1
    28    16    22    1
    29    22    23    1
    30    22    13    1
    31    21    16    1
    32     8     1   ar
    33    33    27   ar
    34     4    10    1
    35     4    11    1
    36    23    24    1
    37    23    25    1
@<TRIPOS>MOLECULE
*****
 34 37 0 0 0
SMALL
GASTEIGER

@<TRIPOS>ATOM
      1 C           6.6851   -3.8354   22.6936 C.ar    1  UNL1        0.2046
      2 N           5.5026   -4.2836   21.8870 N.ar    1  UNL1       -0.1998
      3 C           5.2397   -3.6768   20.5406 C.ar    1  UNL1        0.1389
      4 N           4.0572   -4.1250   19.7339 N.pl3   1  UNL1       -0.3420
      5 C           6.1593   -2.6218   20.0009 C.ar    1  UNL1        0.1169
      6 C           7.3419   -2.1736   20.8076 C.ar    1  UNL1        0.2716
      7 O           8.2616   -1.1187   20.2679 O.2     1  UNL1       -0.2663
      8 N           7.6048   -2.7804   22.1539 N.ar    1  UNL1       -0.2662
      9 C           8.7874   -2.3322   22.9607 C.3     1  UNL1        0.1363
     10 H           3.4536   -4.8174   20.0881 H       1  UNL1        0.1437
     11 H           3.8846   -3.7267   18.8503 H       1  UNL1        0.1437
     12 C           7.2906   -5.8493   30.6049 C.3     1  UNL1        0.0335
     13 C           7.5105   -6.0236   29.1315 C.3     1  UNL1        0.1294
     14 O           8.2465   -7.1555   28.4777 O.3     1  UNL1       -0.3548
     15 C           8.2238   -6.9281   26.9951 C.3     1  UNL1        0.1434
     16 C           7.4739   -5.6558   26.7327 C.3     1  UNL1        0.0460
     17 C           7.9798   -6.3325   25.4933 C.3     1  UNL1        0.0254
     18 C           7.7169   -5.7257   24.1470 C.3     1  UNL1        0.0937
     19 N           6.9480   -4.4422   24.0401 N.pl3   1  UNL1       -0.2794
     20 C           6.4421   -3.7654   25.2794 C.3     1  UNL1        0.0937
     21 C           6.7051   -4.3722   26.6257 C.3     1  UNL1        0.0254
     22 C           7.0330   -5.0968   28.0531 C.3     1  UNL1        0.0807
     23 N           6.2518   -3.8330   28.2588 N.3     1  UNL1       -0.3202
     24 H           6.0603   -3.4008   27.3549 H       1  UNL1        0.1189
     25 H           6.7929   -3.1889   28.8358 H       1  UNL1        0.1189
     26 S           5.8965   -2.0150   18.6545 S.3     1  UNL1       -0.0786
     27 C           5.1582   -0.7136   18.5497 C.ar    1  UNL1        0.0411
     28 C           3.7526   -0.6052   19.0623 C.ar    1  UNL1        0.0074
     29 C           3.0143    0.6963   18.9575 C.ar    1  UNL1        0.0014
     30 C           3.6816    1.8895   18.3401 C.ar    1  UNL1        0.0123
     31 C           5.0871    1.7811   17.8275 C.ar    1  UNL1        0.0687
     32 CL          5.7543    2.9742   17.2101 Cl      1  UNL1       -0.0813
     33 C           5.8254    0.4796   17.9323 C.ar    1  UNL1        0.0741
     34 CL          7.2309    0.3713   17.4198 Cl      1  UNL1       -0.0808
@<TRIPOS>BOND
     1    13    12    1
     2    13    14    1
     3    14    15    1
     4    15    16    1
     5    16    17    1
     6    17    18    1
     7    18    19    1
     8    19     1    1
     9     1     2   ar
    10     2     3   ar
    11     3     4    1
    12     3     5   ar
    13     5    26    1
    14    26    27    1
    15    27    28   ar
    16    28    29   ar
    17    29    30   ar
    18    30    31   ar
    19    31    32    1
    20    31    33   ar
    21    33    34    1
    22     5     6   ar
    23     6     7    2
    24     6     8   ar
    25     8     9    1
    26    19    20    1
    27    20    21    1
    28    16    22    1
    29    22    23    1
    30    22    13    1
    31    21    16    1
    32     8     1   ar
    33    33    27   ar
    34     4    10    1
    35     4    11    1
    36    23    24    1
    37    23    25    1
@<TRIPOS>MOLECULE
*****
 34 37 0 0 0
SMALL
GASTEIGER

@<TRIPOS>ATOM
      1 C           2.6488    1.2466   31.0237 C.ar    1  UNL1        0.2046
      2 N           1.5678    0.3489   30.4989 N.ar    1  UNL1       -0.1998
      3 C           1.2553    0.3296   29.0318 C.ar    1  UNL1        0.1389
      4 N           0.1743   -0.5681   28.5070 N.pl3   1  UNL1       -0.3420
      5 C           2.0239    1.2081   28.0897 C.ar    1  UNL1        0.1169
      6 C           3.1049    2.1059   28.6147 C.ar    1  UNL1        0.2716
      7 O           3.8735    2.9843   27.6726 O.2     1  UNL1       -0.2663
      8 N           3.4174    2.1251   30.0816 N.ar    1  UNL1       -0.2662
      9 C           4.4984    3.0228   30.6065 C.3     1  UNL1        0.1363
     10 H          -0.3301   -1.1447   29.1253 H       1  UNL1        0.1437
     11 H          -0.0308   -0.5807   27.5442 H       1  UNL1        0.1437
     12 C           3.2729    2.5837   39.0756 C.3     1  UNL1        0.0335
     13 C           3.5859    1.9012   37.7772 C.3     1  UNL1        0.1294
     14 O           4.5484    0.7666   37.5870 O.3     1  UNL1       -0.3548
     15 C           4.5487    0.3976   36.1330 C.3     1  UNL1        0.1434
     16 C           3.5863    1.3043   35.4246 C.3     1  UNL1        0.0460
     17 C           4.2636    0.3121   34.5264 C.3     1  UNL1        0.0254
     18 C           3.9511    0.2928   33.0595 C.3     1  UNL1        0.0937
     19 N           2.9613    1.2658   32.4907 N.pl3   1  UNL1       -0.2794
     20 C           2.2840    2.2581   33.3889 C.3     1  UNL1        0.0937
     21 C           2.5965    2.2773   34.8558 C.3     1  UNL1        0.0254
     22 C           2.9912    2.2335   36.4408 C.3     1  UNL1        0.0807
     23 N           1.9793    3.3067   36.1682 N.3     1  UNL1       -0.3202
     24 H           1.7501    3.3134   35.1743 H       1  UNL1        0.1189
     25 H           2.3645    4.2128   36.4344 H       1  UNL1        0.1189
     26 S           1.7115    1.1889   26.6228 S.3     1  UNL1       -0.0786
     27 C           2.4900    0.2969   25.7018 C.ar    1  UNL1        0.0411
     28 C           3.5811   -0.5757   26.2478 C.ar    1  UNL1        0.0074
     29 C           4.3596   -1.4677   25.3268 C.ar    1  UNL1        0.0014
     30 C           4.0470   -1.4872   23.8599 C.ar    1  UNL1        0.0123
     31 C           2.9558   -0.6147   23.3139 C.ar    1  UNL1        0.0687
     32 CL          2.6432   -0.6341   21.8470 Cl      1  UNL1       -0.0813
     33 C           2.1773    0.2774   24.2349 C.ar    1  UNL1        0.0741
     34 CL          1.0862    1.1499   23.6889 Cl      1  UNL1       -0.0808
@<TRIPOS>BOND
     1    13    12    1
     2    13    14    1
     3    14    15    1
     4    15    16    1
     5    16    17    1
     6    17    18    1
     7    18    19    1
     8    19     1    1
     9     1     2   ar
    10     2     3   ar
    11     3     4    1
    12     3     5   ar
    13     5    26    1
    14    26    27    1
    15    27    28   ar
    16    28    29   ar
    17    29    30   ar
    18    30    31   ar
    19    31    32    1
    20    31    33   ar
    21    33    34    1
    22     5     6   ar
    23     6     7    2
    24     6     8   ar
    25     8     9    1
    26    19    20    1
    27    20    21    1
    28    16    22    1
    29    22    23    1
    30    22    13    1
    31    21    16    1
    32     8     1   ar
    33    33    27   ar
    34     4    10    1
    35     4    11    1
    36    23    24    1
    37    23    25    1
@<TRIPOS>MOLECULE
*****
 34 37 0 0 0
SMALL
GASTEIGER

@<TRIPOS>ATOM
      1 C           1.1487    2.3043   31.0531 C.ar    1  UNL1        0.2046
      2 N           0.0174    1.3568   30.7844 N.ar    1  UNL1       -0.1998
      3 C          -0.3066    0.9558   29.3757 C.ar    1  UNL1        0.1389
      4 N          -1.4380    0.0083   29.1071 N.pl3   1  UNL1       -0.3420
      5 C           0.5008    1.5023   28.2358 C.ar    1  UNL1        0.1169
      6 C           1.6322    2.4499   28.5046 C.ar    1  UNL1        0.2716
      7 O           2.4395    2.9964   27.3646 O.2     1  UNL1       -0.2663
      8 N           1.9561    2.8508   29.9132 N.ar    1  UNL1       -0.2662
      9 C           3.0875    3.7984   30.1819 C.3     1  UNL1        0.1363
     10 H          -1.9679   -0.3504   29.8553 H       1  UNL1        0.1437
     11 H          -1.6506   -0.2549   28.1825 H       1  UNL1        0.1437
     12 C           3.7546    3.0835   38.7741 C.3     1  UNL1        0.0335
     13 C           3.0207    3.4969   37.5330 C.3     1  UNL1        0.1294
     14 O           2.2179    4.7522   37.3603 O.3     1  UNL1       -0.3548
     15 C           1.6617    4.7587   35.9671 C.3     1  UNL1        0.1434
     16 C           2.1207    3.5074   35.2789 C.3     1  UNL1        0.0460
     17 C           1.2636    4.3940   34.4250 C.3     1  UNL1        0.0254
     18 C           0.9396    3.9930   33.0165 C.3     1  UNL1        0.0937
     19 N           1.4728    2.7053   32.4618 N.pl3   1  UNL1       -0.2794
     20 C           2.3299    1.8187   33.3157 C.3     1  UNL1        0.0937
     21 C           2.6539    2.2198   34.7242 C.3     1  UNL1        0.0254
     22 C           2.9606    2.7276   36.2467 C.3     1  UNL1        0.0807
     23 N           3.6239    1.4098   35.9757 N.3     1  UNL1       -0.3202
     24 H           3.4176    1.1153   35.0212 H       1  UNL1        0.1189
     25 H           3.2723    0.7112   36.6305 H       1  UNL1        0.1189
     26 S           0.1768    1.1014   26.8272 S.3     1  UNL1       -0.0786
     27 C          -0.5830    2.0390   25.9365 C.ar    1  UNL1        0.0411
     28 C          -1.7139    2.8518   26.4937 C.ar    1  UNL1        0.0074
     29 C          -2.4738    3.7894   25.6029 C.ar    1  UNL1        0.0014
     30 C          -2.1027    3.9143   24.1549 C.ar    1  UNL1        0.0123
     31 C          -0.9718    3.1015   23.5977 C.ar    1  UNL1        0.0687
     32 CL         -0.6008    3.2263   22.1497 Cl      1  UNL1       -0.0813
     33 C          -0.2120    2.1639   24.4884 C.ar    1  UNL1        0.0741
     34 CL          0.9189    1.3511   23.9312 Cl      1  UNL1       -0.0808
@<TRIPOS>BOND
     1    13    12    1
     2    13    14    1
     3    14    15    1
     4    15    16    1
     5    16    17    1
     6    17    18    1
     7    18    19    1
     8    19     1    1
     9     1     2   ar
    10     2     3   ar
    11     3     4    1
    12     3     5   ar
    13     5    26    1
    14    26    27    1
    15    27    28   ar
    16    28    29   ar
    17    29    30   ar
    18    30    31   ar
    19    31    32    1
    20    31    33   ar
    21    33    34    1
    22     5     6   ar
    23     6     7    2
    24     6     8   ar
    25     8     9    1
    26    19    20    1
    27    20    21    1
    28    16    22    1
    29    22    23    1
    30    22    13    1
    31    21    16    1
    32     8     1   ar
    33    33    27   ar
    34     4    10    1
    35     4    11    1
    36    23    24    1
    37    23    25    1
@<TRIPOS>MOLECULE
*****
 34 37 0 0 0
SMALL
GASTEIGER

@<TRIPOS>ATOM
      1 C           3.9156   -0.4896   26.2493 C.ar    1  UNL1        0.2046
      2 N           2.7994   -0.8126   27.1979 N.ar    1  UNL1       -0.1998
      3 C           2.8481   -0.3127   28.6114 C.ar    1  UNL1        0.1389
      4 N           1.7320   -0.6358   29.5600 N.pl3   1  UNL1       -0.3420
      5 C           4.0129    0.5101   29.0762 C.ar    1  UNL1        0.1169
      6 C           5.1291    0.8332   28.1275 C.ar    1  UNL1        0.2716
      7 O           6.2939    1.6561   28.5923 O.2     1  UNL1       -0.2663
      8 N           5.0804    0.3333   26.7141 N.ar    1  UNL1       -0.2662
      9 C           6.1966    0.6563   25.7654 C.3     1  UNL1        0.1363
     10 H           0.9675   -1.1759   29.2549 H       1  UNL1        0.1437
     11 H           1.7639   -0.3077   30.4876 H       1  UNL1        0.1437
     12 C           4.6652   -4.3814   19.0867 C.3     1  UNL1        0.0335
     13 C           4.1589   -3.3185   20.0160 C.3     1  UNL1        0.1294
     14 O           3.2304   -2.1980   19.6517 O.3     1  UNL1       -0.3548
     15 C           2.9898   -1.3764   20.8835 C.3     1  UNL1        0.1434
     16 C           3.7695   -1.9891   22.0090 C.3     1  UNL1        0.0460
     17 C           2.9898   -0.7689   22.4003 C.3     1  UNL1        0.0254
     18 C           3.0385   -0.2691   23.8137 C.3     1  UNL1        0.0937
     19 N           3.8669   -0.9895   24.8358 N.pl3   1  UNL1       -0.2794
     20 C           4.6466   -2.2097   24.4446 C.3     1  UNL1        0.0937
     21 C           4.5979   -2.7095   23.0312 C.3     1  UNL1        0.0254
     22 C           4.4921   -3.1893   21.4728 C.3     1  UNL1        0.0807
     23 N           5.3901   -4.1004   22.2560 N.3     1  UNL1       -0.3202
     24 H           5.4393   -3.7802   23.2232 H       1  UNL1        0.1189
     25 H           6.3243   -4.0911   21.8468 H       1  UNL1        0.1189
     26 S           4.0616    1.0100   30.4896 S.3     1  UNL1       -0.0786
     27 C           4.4084    0.0701   31.6059 C.ar    1  UNL1        0.0411
     28 C           4.8826   -1.3190   31.2968 C.ar    1  UNL1        0.0074
     29 C           5.2293   -2.2589   32.4133 C.ar    1  UNL1        0.0014
     30 C           5.1018   -1.8098   33.8387 C.ar    1  UNL1        0.0123
     31 C           4.6275   -0.4207   34.1478 C.ar    1  UNL1        0.0687
     32 CL          4.5000    0.0285   35.5733 Cl      1  UNL1       -0.0813
     33 C           4.2808    0.5192   33.0315 C.ar    1  UNL1        0.0741
     34 CL          3.8066    1.9083   33.3405 Cl      1  UNL1       -0.0808
@<TRIPOS>BOND
     1    13    12    1
     2    13    14    1
     3    14    15    1
     4    15    16    1
     5    16    17    1
     6    17    18    1
     7    18    19    1
     8    19     1    1
     9     1     2   ar
    10     2     3   ar
    11     3     4    1
    12     3     5   ar
    13     5    26    1
    14    26    27    1
    15    27    28   ar
    16    28    29   ar
    17    29    30   ar
    18    30    31   ar
    19    31    32    1
    20    31    33   ar
    21    33    34    1
    22     5     6   ar
    23     6     7    2
    24     6     8   ar
    25     8     9    1
    26    19    20    1
    27    20    21    1
    28    16    22    1
    29    22    23    1
    30    22    13    1
    31    21    16    1
    32     8     1   ar
    33    33    27   ar
    34     4    10    1
    35     4    11    1
    36    23    24    1
    37    23    25    1
