@<TRIPOS>MOLECULE
*****
 24 26 0 0 0
SMALL
GASTEIGER

@<TRIPOS>ATOM
      1 C          -8.0686  -18.0198   21.5657 C.3     1  UNL1        0.1471
      2 O          -6.7502  -17.3764   21.8784 O.3     1  UNL1       -0.3812
      3 C          -9.2099  -18.8849   21.1197 C.3     1  UNL1        0.0584
      4 C         -10.4869  -18.2245   21.5474 C.ar    1  UNL1       -0.0202
      5 C         -11.9248  -18.6180   21.3817 C.ar    1  UNL1       -0.0044
      6 C         -13.0107  -17.7382   21.9265 C.ar    1  UNL1       -0.0003
      7 C         -12.6587  -16.4649   22.6368 C.ar    1  UNL1       -0.0002
      8 C         -11.2208  -16.0713   22.8025 C.ar    1  UNL1       -0.0011
      9 C         -10.1349  -16.9511   22.2577 C.ar    1  UNL1        0.0157
     10 C          -8.6403  -16.8246   22.2691 C.3     1  UNL1        0.2136
     11 H          -6.0310  -17.9291   21.5347 H       1  UNL1        0.2105
     12 C          -7.2213  -19.0805   20.9278 C.3     1  UNL1        0.1001
     13 C          -4.8438  -19.3608   19.9182 C.3     1  UNL1        0.0859
     14 N          -6.1918  -18.7031   19.9041 N.3     1  UNL1       -0.2942
     15 H          -6.6024  -18.8926   18.9899 H       1  UNL1        0.1234
     16 O          -7.8552  -15.7003   22.8771 O.3     1  UNL1       -0.4718
     17 C          -7.5931  -15.6813   24.3539 C.ar    1  UNL1        0.1445
     18 C          -8.7377  -15.7635   25.3199 C.ar    1  UNL1        0.0374
     19 C          -8.4757  -15.7445   26.7967 C.ar    1  UNL1        0.0031
     20 C          -7.0690  -15.6433   27.3075 C.ar    1  UNL1        0.0007
     21 C          -5.9244  -15.5611   26.3415 C.ar    1  UNL1        0.0092
     22 C          -6.1864  -15.5801   24.8648 C.ar    1  UNL1        0.0592
     23 S          -5.0418  -15.4979   23.8988 S.3     1  UNL1       -0.1098
     24 C          -4.1748  -16.6983   23.6592 C.3     1  UNL1        0.0743
@<TRIPOS>BOND
     1    13    14    1
     2    14    12    1
     3    12     1    1
     4     1     2    1
     5     1     3    1
     6     3     4    1
     7     4     5   ar
     8     5     6   ar
     9     6     7   ar
    10     7     8   ar
    11     8     9   ar
    12     9    10    1
    13    10    16    1
    14    16    17    1
    15    17    18   ar
    16    18    19   ar
    17    19    20   ar
    18    20    21   ar
    19    21    22   ar
    20    22    23    1
    21    23    24    1
    22    10     1    1
    23    22    17   ar
    24     9     4   ar
    25    14    15    1
    26     2    11    1
@<TRIPOS>MOLECULE
*****
 24 26 0 0 0
SMALL
GASTEIGER

@<TRIPOS>ATOM
      1 C          -6.2390  -15.9771   23.7648 C.3     1  UNL1        0.1471
      2 O          -7.2353  -14.8936   24.0533 O.3     1  UNL1       -0.3812
      3 C          -5.0542  -16.8912   23.6610 C.3     1  UNL1        0.0584
      4 C          -5.4315  -18.0402   22.7736 C.ar    1  UNL1       -0.0202
      5 C          -4.6671  -19.2458   22.3130 C.ar    1  UNL1       -0.0044
      6 C          -5.3207  -20.2474   21.4077 C.ar    1  UNL1       -0.0003
      7 C          -6.7386  -20.0434   20.9630 C.ar    1  UNL1       -0.0002
      8 C          -7.5030  -18.8378   21.4236 C.ar    1  UNL1       -0.0011
      9 C          -6.8495  -17.8362   22.3289 C.ar    1  UNL1        0.0157
     10 C          -7.3485  -16.5612   22.9415 C.3     1  UNL1        0.2136
     11 H          -6.8337  -14.2326   24.6387 H       1  UNL1        0.2105
     12 C          -5.3377  -15.1666   24.6485 C.3     1  UNL1        0.1001
     13 C          -6.3202  -15.4960   27.0309 C.3     1  UNL1        0.0859
     14 N          -5.8647  -14.5874   25.9278 N.3     1  UNL1       -0.2942
     15 H          -5.1228  -14.0039   26.3145 H       1  UNL1        0.1234
     16 O          -8.7168  -15.9734   22.7622 O.3     1  UNL1       -0.4718
     17 C          -9.9330  -16.8006   23.0570 C.ar    1  UNL1        0.1445
     18 C          -9.9659  -17.6793   24.2722 C.ar    1  UNL1        0.0374
     19 C         -11.1819  -18.5065   24.5670 C.ar    1  UNL1        0.0031
     20 C         -12.3651  -18.4550   23.6465 C.ar    1  UNL1        0.0007
     21 C         -12.3322  -17.5763   22.4313 C.ar    1  UNL1        0.0092
     22 C         -11.1162  -16.7491   22.1365 C.ar    1  UNL1        0.0592
     23 S         -11.0833  -15.8704   20.9212 S.3     1  UNL1       -0.1098
     24 C         -11.5549  -16.4003   19.5996 C.3     1  UNL1        0.0743
@<TRIPOS>BOND
     1    13    14    1
     2    14    12    1
     3    12     1    1
     4     1     2    1
     5     1     3    1
     6     3     4    1
     7     4     5   ar
     8     5     6   ar
     9     6     7   ar
    10     7     8   ar
    11     8     9   ar
    12     9    10    1
    13    10    16    1
    14    16    17    1
    15    17    18   ar
    16    18    19   ar
    17    19    20   ar
    18    20    21   ar
    19    21    22   ar
    20    22    23    1
    21    23    24    1
    22    10     1    1
    23    22    17   ar
    24     9     4   ar
    25    14    15    1
    26     2    11    1
@<TRIPOS>MOLECULE
*****
 24 26 0 0 0
SMALL
GASTEIGER

@<TRIPOS>ATOM
      1 C          -6.2331  -18.7768   21.7689 C.3     1  UNL1        0.1471
      2 O          -7.1008  -19.5108   20.7900 O.3     1  UNL1       -0.3812
      3 C          -5.1474  -18.2503   22.6601 C.3     1  UNL1        0.0584
      4 C          -5.7007  -17.0854   23.4262 C.ar    1  UNL1       -0.0202
      5 C          -5.0889  -16.1759   24.4501 C.ar    1  UNL1       -0.0044
      6 C          -5.9048  -15.0728   25.0564 C.ar    1  UNL1       -0.0003
      7 C          -7.3324  -14.8793   24.6387 C.ar    1  UNL1       -0.0002
      8 C          -7.9442  -15.7888   23.6147 C.ar    1  UNL1       -0.0011
      9 C          -7.1283  -16.8919   23.0085 C.ar    1  UNL1        0.0157
     10 C          -7.4573  -17.9372   21.9842 C.3     1  UNL1        0.2136
     11 H          -6.5929  -20.2308   20.3842 H       1  UNL1        0.2105
     12 C          -5.1902  -19.7698   21.3489 C.3     1  UNL1        0.1001
     13 C          -3.4065  -19.3532   19.5065 C.3     1  UNL1        0.0859
     14 N          -3.8245  -19.2981   20.9460 N.3     1  UNL1       -0.2942
     15 H          -3.7523  -18.3230   21.2365 H       1  UNL1        0.1234
     16 O          -8.7787  -18.1122   21.2962 O.3     1  UNL1       -0.4718
     17 C         -10.0447  -18.1433   22.1002 C.ar    1  UNL1        0.1445
     18 C         -10.2669  -19.2322   23.1076 C.ar    1  UNL1        0.0374
     19 C         -11.5328  -19.2633   23.9116 C.ar    1  UNL1        0.0031
     20 C         -12.5766  -18.2054   23.7081 C.ar    1  UNL1        0.0007
     21 C         -12.3544  -17.1165   22.7007 C.ar    1  UNL1        0.0092
     22 C         -11.0885  -17.0854   21.8967 C.ar    1  UNL1        0.0592
     23 S         -10.8663  -15.9965   20.8893 S.3     1  UNL1       -0.1098
     24 C         -11.7075  -15.9395   19.6487 C.3     1  UNL1        0.0743
@<TRIPOS>BOND
     1    13    14    1
     2    14    12    1
     3    12     1    1
     4     1     2    1
     5     1     3    1
     6     3     4    1
     7     4     5   ar
     8     5     6   ar
     9     6     7   ar
    10     7     8   ar
    11     8     9   ar
    12     9    10    1
    13    10    16    1
    14    16    17    1
    15    17    18   ar
    16    18    19   ar
    17    19    20   ar
    18    20    21   ar
    19    21    22   ar
    20    22    23    1
    21    23    24    1
    22    10     1    1
    23    22    17   ar
    24     9     4   ar
    25    14    15    1
    26     2    11    1
@<TRIPOS>MOLECULE
*****
 24 26 0 0 0
SMALL
GASTEIGER

@<TRIPOS>ATOM
      1 C          -6.6073  -18.1352   22.3118 C.3     1  UNL1        0.1471
      2 O          -6.6812  -17.2222   23.4997 O.3     1  UNL1       -0.3812
      3 C          -6.2282  -19.0616   21.1947 C.3     1  UNL1        0.0584
      4 C          -7.4693  -19.3793   20.4145 C.ar    1  UNL1       -0.0202
      5 C          -7.7038  -20.2390   19.2080 C.ar    1  UNL1       -0.0044
      6 C          -9.0846  -20.3688   18.6365 C.ar    1  UNL1       -0.0003
      7 C         -10.2308  -19.6388   19.2715 C.ar    1  UNL1       -0.0002
      8 C          -9.9963  -18.7790   20.4781 C.ar    1  UNL1       -0.0011
      9 C          -8.6155  -18.6493   21.0496 C.ar    1  UNL1        0.0157
     10 C          -8.0827  -17.8804   22.2222 C.3     1  UNL1        0.2136
     11 H          -5.7973  -17.1231   23.8868 H       1  UNL1        0.2105
     12 C          -5.1472  -18.1991   22.6498 C.3     1  UNL1        0.1001
     13 C          -2.6999  -17.9073   21.8280 C.3     1  UNL1        0.0859
     14 N          -4.1265  -18.2806   21.5537 N.3     1  UNL1       -0.2942
     15 H          -4.1206  -19.2473   21.2282 H       1  UNL1        0.1234
     16 O          -8.8847  -17.0096   23.1434 O.3     1  UNL1       -0.4718
     17 C         -10.3684  -17.2009   23.2539 C.ar    1  UNL1        0.1445
     18 C         -11.2995  -16.2903   22.5097 C.ar    1  UNL1        0.0374
     19 C         -12.7831  -16.4816   22.6202 C.ar    1  UNL1        0.0031
     20 C         -13.3356  -17.5835   23.4748 C.ar    1  UNL1        0.0007
     21 C         -12.4045  -18.4942   24.2190 C.ar    1  UNL1        0.0092
     22 C         -10.9209  -18.3029   24.1085 C.ar    1  UNL1        0.0592
     23 S          -9.9898  -19.2136   24.8526 S.3     1  UNL1       -0.1098
     24 C          -9.5907  -20.5299   24.2543 C.3     1  UNL1        0.0743
@<TRIPOS>BOND
     1    13    14    1
     2    14    12    1
     3    12     1    1
     4     1     2    1
     5     1     3    1
     6     3     4    1
     7     4     5   ar
     8     5     6   ar
     9     6     7   ar
    10     7     8   ar
    11     8     9   ar
    12     9    10    1
    13    10    16    1
    14    16    17    1
    15    17    18   ar
    16    18    19   ar
    17    19    20   ar
    18    20    21   ar
    19    21    22   ar
    20    22    23    1
    21    23    24    1
    22    10     1    1
    23    22    17   ar
    24     9     4   ar
    25    14    15    1
    26     2    11    1
@<TRIPOS>MOLECULE
*****
 24 26 0 0 0
SMALL
GASTEIGER

@<TRIPOS>ATOM
      1 C          -6.4119  -15.9057   23.9773 C.3     1  UNL1        0.1471
      2 O          -7.3820  -14.8439   24.4032 O.3     1  UNL1       -0.3812
      3 C          -5.2416  -16.8125   23.7362 C.3     1  UNL1        0.0584
      4 C          -5.6787  -17.8924   22.7913 C.ar    1  UNL1       -0.0202
      5 C          -4.9512  -19.0627   22.1990 C.ar    1  UNL1       -0.0044
      6 C          -5.6642  -19.9937   21.2636 C.ar    1  UNL1       -0.0003
      7 C          -7.1047  -19.7542   20.9206 C.ar    1  UNL1       -0.0002
      8 C          -7.8322  -18.5839   21.5130 C.ar    1  UNL1       -0.0011
      9 C          -7.1192  -17.6530   22.4484 C.ar    1  UNL1        0.0157
     10 C          -7.5723  -16.4251   23.1813 C.3     1  UNL1        0.2136
     11 H          -6.9418  -14.2286   25.0103 H       1  UNL1        0.2105
     12 C          -5.4542  -15.1643   24.8623 C.3     1  UNL1        0.1001
     13 C          -6.4311  -15.5375   27.2406 C.3     1  UNL1        0.0859
     14 N          -5.9215  -14.6116   26.1761 N.3     1  UNL1       -0.2942
     15 H          -5.1335  -14.1047   26.5793 H       1  UNL1        0.1234
     16 O          -8.9449  -15.8225   23.1276 O.3     1  UNL1       -0.4718
     17 C         -10.0691  -16.5740   22.4781 C.ar    1  UNL1        0.1445
     18 C         -10.5422  -16.1808   21.1101 C.ar    1  UNL1        0.0374
     19 C         -11.6663  -16.9322   20.4606 C.ar    1  UNL1        0.0031
     20 C         -12.3172  -18.0767   21.1792 C.ar    1  UNL1        0.0007
     21 C         -11.8440  -18.4699   22.5472 C.ar    1  UNL1        0.0092
     22 C         -10.7199  -17.7185   23.1967 C.ar    1  UNL1        0.0592
     23 S         -10.2468  -18.1117   24.5648 S.3     1  UNL1       -0.1098
     24 C         -10.0491  -19.5597   24.9026 C.3     1  UNL1        0.0743
@<TRIPOS>BOND
     1    13    14    1
     2    14    12    1
     3    12     1    1
     4     1     2    1
     5     1     3    1
     6     3     4    1
     7     4     5   ar
     8     5     6   ar
     9     6     7   ar
    10     7     8   ar
    11     8     9   ar
    12     9    10    1
    13    10    16    1
    14    16    17    1
    15    17    18   ar
    16    18    19   ar
    17    19    20   ar
    18    20    21   ar
    19    21    22   ar
    20    22    23    1
    21    23    24    1
    22    10     1    1
    23    22    17   ar
    24     9     4   ar
    25    14    15    1
    26     2    11    1
@<TRIPOS>MOLECULE
*****
 24 26 0 0 0
SMALL
GASTEIGER

@<TRIPOS>ATOM
      1 C          -6.4049  -16.5162   23.6152 C.3     1  UNL1        0.1471
      2 O          -7.8766  -16.7066   23.8344 O.3     1  UNL1       -0.3812
      3 C          -4.9863  -16.0397   23.5130 C.3     1  UNL1        0.0584
      4 C          -4.1636  -17.1534   22.9360 C.ar    1  UNL1       -0.0202
      5 C          -2.7034  -17.2573   22.6094 C.ar    1  UNL1       -0.0044
      6 C          -2.1533  -18.5260   22.0284 C.ar    1  UNL1       -0.0003
      7 C          -3.0635  -19.6909   21.7740 C.ar    1  UNL1       -0.0002
      8 C          -4.5238  -19.5870   22.1006 C.ar    1  UNL1       -0.0011
      9 C          -5.0738  -18.3182   22.6816 C.ar    1  UNL1        0.0157
     10 C          -6.4590  -17.9244   23.1014 C.3     1  UNL1        0.2136
     11 H          -8.2549  -15.8966   24.2107 H       1  UNL1        0.2105
     12 C          -6.6585  -15.1478   24.1749 C.3     1  UNL1        0.1001
     13 C          -6.3987  -15.3656   26.7507 C.3     1  UNL1        0.0859
     14 N          -5.9982  -14.7265   25.4541 N.3     1  UNL1       -0.2942
     15 H          -4.9988  -14.8951   25.3391 H       1  UNL1        0.1234
     16 O          -7.6833  -18.7873   23.0213 O.3     1  UNL1       -0.4718
     17 C          -8.3286  -19.0524   21.6933 C.ar    1  UNL1        0.1445
     18 C          -7.4786  -19.2976   20.4821 C.ar    1  UNL1        0.0374
     19 C          -8.1238  -19.5626   19.1541 C.ar    1  UNL1        0.0031
     20 C          -9.6191  -19.5824   19.0375 C.ar    1  UNL1        0.0007
     21 C         -10.4692  -19.3371   20.2488 C.ar    1  UNL1        0.0092
     22 C          -9.8240  -19.0721   21.5767 C.ar    1  UNL1        0.0592
     23 S         -10.6740  -18.8269   22.7880 S.3     1  UNL1       -0.1098
     24 C         -11.2758  -17.4726   23.0203 C.3     1  UNL1        0.0743
@<TRIPOS>BOND
     1    13    14    1
     2    14    12    1
     3    12     1    1
     4     1     2    1
     5     1     3    1
     6     3     4    1
     7     4     5   ar
     8     5     6   ar
     9     6     7   ar
    10     7     8   ar
    11     8     9   ar
    12     9    10    1
    13    10    16    1
    14    16    17    1
    15    17    18   ar
    16    18    19   ar
    17    19    20   ar
    18    20    21   ar
    19    21    22   ar
    20    22    23    1
    21    23    24    1
    22    10     1    1
    23    22    17   ar
    24     9     4   ar
    25    14    15    1
    26     2    11    1
@<TRIPOS>MOLECULE
*****
 24 26 0 0 0
SMALL
GASTEIGER

@<TRIPOS>ATOM
      1 C          -9.4286  -17.4175   23.5731 C.3     1  UNL1        0.1471
      2 O          -9.7682  -17.9971   22.2320 O.3     1  UNL1       -0.3812
      3 C          -9.3775  -16.9330   24.9918 C.3     1  UNL1        0.0584
      4 C          -8.0365  -16.2999   25.2174 C.ar    1  UNL1       -0.0202
      5 C          -7.4232  -15.6505   26.4224 C.ar    1  UNL1       -0.0044
      6 C          -6.0321  -15.0944   26.3482 C.ar    1  UNL1       -0.0003
      7 C          -5.2543  -15.1877   25.0690 C.ar    1  UNL1       -0.0002
      8 C          -5.8677  -15.8370   23.8640 C.ar    1  UNL1       -0.0011
      9 C          -7.2588  -16.3931   23.9382 C.ar    1  UNL1        0.0157
     10 C          -8.1191  -17.0839   22.9220 C.3     1  UNL1        0.2136
     11 H         -10.6659  -18.3638   22.2561 H       1  UNL1        0.2105
     12 C         -10.8090  -17.8723   23.9439 C.3     1  UNL1        0.1001
     13 C         -10.2657  -20.2816   24.7504 C.3     1  UNL1        0.0859
     14 N         -10.9918  -18.9822   24.9363 N.3     1  UNL1       -0.2942
     15 H         -10.7093  -18.6144   25.8447 H       1  UNL1        0.1234
     16 O          -7.7371  -17.3876   21.5036 O.3     1  UNL1       -0.4718
     17 C          -6.8243  -18.5394   21.2030 C.ar    1  UNL1        0.1445
     18 C          -5.5205  -18.6735   21.9326 C.ar    1  UNL1        0.0374
     19 C          -4.6078  -19.8251   21.6320 C.ar    1  UNL1        0.0031
     20 C          -4.9987  -20.8429   20.6018 C.ar    1  UNL1        0.0007
     21 C          -6.3025  -20.7088   19.8722 C.ar    1  UNL1        0.0092
     22 C          -7.2152  -19.5571   20.1727 C.ar    1  UNL1        0.0592
     23 S          -8.5190  -19.4231   19.4431 S.3     1  UNL1       -0.1098
     24 C          -8.9851  -20.5202   18.5325 C.3     1  UNL1        0.0743
@<TRIPOS>BOND
     1    13    14    1
     2    14    12    1
     3    12     1    1
     4     1     2    1
     5     1     3    1
     6     3     4    1
     7     4     5   ar
     8     5     6   ar
     9     6     7   ar
    10     7     8   ar
    11     8     9   ar
    12     9    10    1
    13    10    16    1
    14    16    17    1
    15    17    18   ar
    16    18    19   ar
    17    19    20   ar
    18    20    21   ar
    19    21    22   ar
    20    22    23    1
    21    23    24    1
    22    10     1    1
    23    22    17   ar
    24     9     4   ar
    25    14    15    1
    26     2    11    1
@<TRIPOS>MOLECULE
*****
 24 26 0 0 0
SMALL
GASTEIGER

@<TRIPOS>ATOM
      1 C          -8.8533  -19.3985   20.0275 C.3     1  UNL1        0.1471
      2 O          -7.4028  -19.7806   20.0296 O.3     1  UNL1       -0.3812
      3 C         -10.2869  -19.0824   19.7192 C.3     1  UNL1        0.0584
      4 C         -10.9509  -18.6514   20.9934 C.ar    1  UNL1       -0.0202
      5 C         -12.3549  -18.2201   21.2974 C.ar    1  UNL1       -0.0044
      6 C         -12.7358  -17.8386   22.6972 C.ar    1  UNL1       -0.0003
      7 C         -11.7126  -17.8884   23.7929 C.ar    1  UNL1       -0.0002
      8 C         -10.3085  -18.3197   23.4888 C.ar    1  UNL1       -0.0011
      9 C          -9.9277  -18.7012   22.0891 C.ar    1  UNL1        0.0157
     10 C          -8.6313  -19.1629   21.4921 C.3     1  UNL1        0.2136
     11 H          -7.1333  -20.0318   19.1323 H       1  UNL1        0.2105
     12 C          -8.7721  -19.7139   18.5633 C.3     1  UNL1        0.1001
     13 C          -9.2776  -21.4055   16.6572 C.3     1  UNL1        0.0859
     14 N          -8.9336  -21.1284   18.0907 N.3     1  UNL1       -0.2942
     15 H          -8.0514  -21.6043   18.2791 H       1  UNL1        0.1234
     16 O          -7.3398  -19.3553   22.2302 O.3     1  UNL1       -0.4718
     17 C          -6.5779  -18.1644   22.7318 C.ar    1  UNL1        0.1445
     18 C          -7.3138  -16.9296   23.1607 C.ar    1  UNL1        0.0374
     19 C          -6.5521  -15.7387   23.6622 C.ar    1  UNL1        0.0031
     20 C          -5.0545  -15.7826   23.7348 C.ar    1  UNL1        0.0007
     21 C          -4.3186  -17.0174   23.3059 C.ar    1  UNL1        0.0092
     22 C          -5.0803  -18.2082   22.8044 C.ar    1  UNL1        0.0592
     23 S          -4.3445  -19.4430   22.3755 S.3     1  UNL1       -0.1098
     24 C          -2.9599  -19.3323   21.8093 C.3     1  UNL1        0.0743
@<TRIPOS>BOND
     1    13    14    1
     2    14    12    1
     3    12     1    1
     4     1     2    1
     5     1     3    1
     6     3     4    1
     7     4     5   ar
     8     5     6   ar
     9     6     7   ar
    10     7     8   ar
    11     8     9   ar
    12     9    10    1
    13    10    16    1
    14    16    17    1
    15    17    18   ar
    16    18    19   ar
    17    19    20   ar
    18    20    21   ar
    19    21    22   ar
    20    22    23    1
    21    23    24    1
    22    10     1    1
    23    22    17   ar
    24     9     4   ar
    25    14    15    1
    26     2    11    1
@<TRIPOS>MOLECULE
*****
 24 26 0 0 0
SMALL
GASTEIGER

@<TRIPOS>ATOM
      1 C          -5.4306  -19.1063   22.2265 C.3     1  UNL1        0.1471
      2 O          -5.9398  -20.3805   21.6206 O.3     1  UNL1       -0.3812
      3 C          -4.6407  -17.9418   22.7461 C.3     1  UNL1        0.0584
      4 C          -5.6020  -16.9638   23.3539 C.ar    1  UNL1       -0.0202
      5 C          -5.3959  -15.6357   24.0198 C.ar    1  UNL1       -0.0044
      6 C          -6.5738  -14.8676   24.5418 C.ar    1  UNL1       -0.0003
      7 C          -7.9579  -15.4277   24.3978 C.ar    1  UNL1       -0.0002
      8 C          -8.1640  -16.7558   23.7319 C.ar    1  UNL1       -0.0011
      9 C          -6.9861  -17.5239   23.2100 C.ar    1  UNL1        0.0157
     10 C          -6.8801  -18.8480   22.5132 C.3     1  UNL1        0.2136
     11 H          -5.1935  -20.8952   21.2754 H       1  UNL1        0.2105
     12 C          -4.0875  -19.6310   21.8132 C.3     1  UNL1        0.1001
     13 C          -3.6655  -18.8588   19.3686 C.3     1  UNL1        0.0859
     14 N          -3.2627  -18.8759   20.8134 N.3     1  UNL1       -0.2942
     15 H          -3.2396  -17.9047   21.1242 H       1  UNL1        0.1234
     16 O          -8.0231  -19.7547   22.1644 O.3     1  UNL1       -0.4718
     17 C          -9.3256  -19.1744   21.6987 C.ar    1  UNL1        0.1445
     18 C         -10.3387  -18.7056   22.7005 C.ar    1  UNL1        0.0374
     19 C         -11.6412  -18.1254   22.2349 C.ar    1  UNL1        0.0031
     20 C         -11.9304  -18.0139   20.7672 C.ar    1  UNL1        0.0007
     21 C         -10.9173  -18.4826   19.7654 C.ar    1  UNL1        0.0092
     22 C          -9.6148  -19.0629   20.2310 C.ar    1  UNL1        0.0592
     23 S          -8.6017  -19.5316   19.2292 S.3     1  UNL1       -0.1098
     24 C          -8.9373  -20.6536   18.2918 C.3     1  UNL1        0.0743
@<TRIPOS>BOND
     1    13    14    1
     2    14    12    1
     3    12     1    1
     4     1     2    1
     5     1     3    1
     6     3     4    1
     7     4     5   ar
     8     5     6   ar
     9     6     7   ar
    10     7     8   ar
    11     8     9   ar
    12     9    10    1
    13    10    16    1
    14    16    17    1
    15    17    18   ar
    16    18    19   ar
    17    19    20   ar
    18    20    21   ar
    19    21    22   ar
    20    22    23    1
    21    23    24    1
    22    10     1    1
    23    22    17   ar
    24     9     4   ar
    25    14    15    1
    26     2    11    1
