@<TRIPOS>MOLECULE
*****
 27 29 0 0 0
SMALL
GASTEIGER

@<TRIPOS>ATOM
      1 N         -12.2968  -15.8340   19.2372 N.pl3   1  UNL1       -0.3375
      2 C         -11.6812  -16.7504   20.2528 C.ar    1  UNL1        0.1568
      3 N         -10.3902  -17.4982   20.0978 N.ar    1  UNL1       -0.2242
      4 C         -10.1597  -18.2899   21.3508 C.ar    1  UNL1        0.0967
      5 C          -9.0524  -19.2128   21.7655 C.ar    1  UNL1        0.0747
      6 C          -9.0936  -19.8773   23.1098 C.ar    1  UNL1        0.0458
      7 C         -10.2422  -19.6188   24.0392 C.ar    1  UNL1        0.1682
      8 O         -10.2835  -20.2831   25.3834 O.3     1  UNL1       -0.5029
      9 C         -11.3496  -18.6958   23.6244 C.ar    1  UNL1        0.1751
     10 O         -12.4982  -18.4373   24.5539 O.3     1  UNL1       -0.5025
     11 C         -11.3084  -18.0314   22.2802 C.ar    1  UNL1        0.0865
     12 S         -12.2487  -17.0800   21.6016 S.2     1  UNL1       -0.0488
     13 H         -11.8459  -15.6802   18.3757 H       1  UNL1        0.1442
     14 H         -13.1516  -15.3863   19.4323 H       1  UNL1        0.1442
     15 H          -9.5918  -20.8596   25.6425 H       1  UNL1        0.2923
     16 H         -12.5240  -18.8523   25.3935 H       1  UNL1        0.2923
     17 C          -7.9038  -19.4713   20.8361 C.2     1  UNL1        0.2477
     18 O          -8.0246  -19.1281   19.3809 O.2     1  UNL1       -0.2701
     19 N          -6.6343  -20.0730   21.3619 N.am    1  UNL1       -0.2969
     20 H          -6.5550  -20.2983   22.3170 H       1  UNL1        0.1501
     21 C          -5.4857  -20.3315   20.4324 C.3     1  UNL1        0.1166
     22 C          -4.2083  -19.5605   20.5862 C.ar    1  UNL1       -0.0026
     23 C          -3.5745  -18.9131   19.3907 C.ar    1  UNL1       -0.0026
     24 C          -2.2971  -18.1420   19.5445 C.ar    1  UNL1       -0.0003
     25 C          -1.6534  -18.0183   20.8938 C.ar    1  UNL1       -0.0000
     26 C          -2.2872  -18.6657   22.0892 C.ar    1  UNL1       -0.0003
     27 C          -3.5647  -19.4368   21.9354 C.ar    1  UNL1       -0.0026
@<TRIPOS>BOND
     1     1     2    1
     2     2     3   ar
     3     3     4   ar
     4     4     5   ar
     5     5    17    1
     6    17    18    2
     7    17    19   am
     8    19    21    1
     9    21    22    1
    10    22    23   ar
    11    23    24   ar
    12    24    25   ar
    13    25    26   ar
    14    26    27   ar
    15     5     6   ar
    16     6     7   ar
    17     7     8    1
    18     7     9   ar
    19     9    10    1
    20     9    11   ar
    21    11    12   ar
    22    12     2   ar
    23    11     4   ar
    24    27    22   ar
    25     1    13    1
    26     1    14    1
    27    19    20    1
    28     8    15    1
    29    10    16    1
@<TRIPOS>MOLECULE
*****
 27 29 0 0 0
SMALL
GASTEIGER

@<TRIPOS>ATOM
      1 N          -6.5422  -14.7446   24.6765 N.pl3   1  UNL1       -0.3375
      2 C          -5.9333  -15.9010   23.9402 C.ar    1  UNL1        0.1568
      3 N          -6.6751  -16.9085   23.1129 N.ar    1  UNL1       -0.2242
      4 C          -5.6760  -17.8830   22.5633 C.ar    1  UNL1        0.0967
      5 C          -5.8283  -19.0871   21.6819 C.ar    1  UNL1        0.0747
      6 C          -4.6213  -19.8859   21.2880 C.ar    1  UNL1        0.0458
      7 C          -3.2619  -19.4806   21.7756 C.ar    1  UNL1        0.1682
      8 O          -2.0549  -20.2793   21.3818 O.3     1  UNL1       -0.5029
      9 C          -3.1096  -18.2764   22.6572 C.ar    1  UNL1        0.1751
     10 O          -1.7502  -17.8711   23.1448 O.3     1  UNL1       -0.5025
     11 C          -4.3166  -17.4777   23.0510 C.ar    1  UNL1        0.0865
     12 S          -4.4756  -16.2527   23.9019 S.2     1  UNL1       -0.0488
     13 H          -7.5147  -14.5955   24.6410 H       1  UNL1        0.1442
     14 H          -5.9693  -14.1348   25.1954 H       1  UNL1        0.1442
     15 H          -2.1501  -21.0314   20.8312 H       1  UNL1        0.2923
     16 H          -0.9962  -18.3701   22.8988 H       1  UNL1        0.2923
     17 C          -7.1877  -19.4924   21.1942 C.2     1  UNL1        0.2477
     18 O          -7.3488  -20.0773   19.8224 O.2     1  UNL1       -0.2701
     19 N          -8.3861  -19.3128   22.0784 N.am    1  UNL1       -0.2969
     20 H          -8.2803  -18.9289   22.9788 H       1  UNL1        0.1501
     21 C          -9.7454  -19.7181   21.5908 C.3     1  UNL1        0.1166
     22 C         -10.9710  -19.0637   22.1563 C.ar    1  UNL1       -0.0026
     23 C         -11.2394  -19.1215   23.6309 C.ar    1  UNL1       -0.0026
     24 C         -12.4649  -18.4671   24.1964 C.ar    1  UNL1       -0.0003
     25 C         -13.4221  -17.7549   23.2872 C.ar    1  UNL1       -0.0000
     26 C         -13.1538  -17.6972   21.8125 C.ar    1  UNL1       -0.0003
     27 C         -11.9281  -18.3516   21.2471 C.ar    1  UNL1       -0.0026
@<TRIPOS>BOND
     1     1     2    1
     2     2     3   ar
     3     3     4   ar
     4     4     5   ar
     5     5    17    1
     6    17    18    2
     7    17    19   am
     8    19    21    1
     9    21    22    1
    10    22    23   ar
    11    23    24   ar
    12    24    25   ar
    13    25    26   ar
    14    26    27   ar
    15     5     6   ar
    16     6     7   ar
    17     7     8    1
    18     7     9   ar
    19     9    10    1
    20     9    11   ar
    21    11    12   ar
    22    12     2   ar
    23    11     4   ar
    24    27    22   ar
    25     1    13    1
    26     1    14    1
    27    19    20    1
    28     8    15    1
    29    10    16    1
@<TRIPOS>MOLECULE
*****
 27 29 0 0 0
SMALL
GASTEIGER

@<TRIPOS>ATOM
      1 N          -8.9282  -21.0708   18.0734 N.pl3   1  UNL1       -0.3375
      2 C          -9.1499  -20.0186   19.1192 C.ar    1  UNL1        0.1568
      3 N          -8.1187  -19.4924   20.0730 N.ar    1  UNL1       -0.2242
      4 C          -8.7731  -18.4564   20.9382 C.ar    1  UNL1        0.0967
      5 C          -8.2472  -17.6022   22.0534 C.ar    1  UNL1        0.0747
      6 C          -9.1571  -16.6339   22.7496 C.ar    1  UNL1        0.0458
      7 C         -10.5928  -16.5198   22.3305 C.ar    1  UNL1        0.1682
      8 O         -11.5026  -15.5516   23.0266 O.3     1  UNL1       -0.5029
      9 C         -11.1187  -17.3741   21.2152 C.ar    1  UNL1        0.1751
     10 O         -12.5544  -17.2600   20.7961 O.3     1  UNL1       -0.5025
     11 C         -10.2089  -18.3423   20.5191 C.ar    1  UNL1        0.0865
     12 S         -10.4417  -19.3078   19.3949 S.2     1  UNL1       -0.0488
     13 H          -8.0394  -21.4809   17.9684 H       1  UNL1        0.1442
     14 H          -9.6716  -21.3512   17.4920 H       1  UNL1        0.1442
     15 H         -11.1741  -15.0180   23.7233 H       1  UNL1        0.2923
     16 H         -13.1228  -16.6551   21.2310 H       1  UNL1        0.2923
     17 C          -6.8115  -17.7163   22.4725 C.2     1  UNL1        0.2477
     18 O          -6.1545  -16.5893   23.2128 O.2     1  UNL1       -0.2701
     19 N          -6.0327  -18.9575   22.1512 N.am    1  UNL1       -0.2969
     20 H          -6.4640  -19.6972   21.6652 H       1  UNL1        0.1501
     21 C          -4.5970  -19.0716   22.5703 C.3     1  UNL1        0.1166
     22 C          -3.5185  -18.4595   21.7264 C.ar    1  UNL1       -0.0026
     23 C          -3.1815  -19.0553   20.3917 C.ar    1  UNL1       -0.0026
     24 C          -2.1030  -18.4432   19.5478 C.ar    1  UNL1       -0.0003
     25 C          -1.3614  -17.2353   20.0387 C.ar    1  UNL1       -0.0000
     26 C          -1.6983  -16.6395   21.3734 C.ar    1  UNL1       -0.0003
     27 C          -2.7769  -17.2516   22.2173 C.ar    1  UNL1       -0.0026
@<TRIPOS>BOND
     1     1     2    1
     2     2     3   ar
     3     3     4   ar
     4     4     5   ar
     5     5    17    1
     6    17    18    2
     7    17    19   am
     8    19    21    1
     9    21    22    1
    10    22    23   ar
    11    23    24   ar
    12    24    25   ar
    13    25    26   ar
    14    26    27   ar
    15     5     6   ar
    16     6     7   ar
    17     7     8    1
    18     7     9   ar
    19     9    10    1
    20     9    11   ar
    21    11    12   ar
    22    12     2   ar
    23    11     4   ar
    24    27    22   ar
    25     1    13    1
    26     1    14    1
    27    19    20    1
    28     8    15    1
    29    10    16    1
@<TRIPOS>MOLECULE
*****
 27 29 0 0 0
SMALL
GASTEIGER

@<TRIPOS>ATOM
      1 N          -6.9412  -14.7905   25.6145 N.pl3   1  UNL1       -0.3375
      2 C          -7.5422  -15.7345   24.6157 C.ar    1  UNL1        0.1568
      3 N          -6.7836  -16.6319   23.6834 N.ar    1  UNL1       -0.2242
      4 C          -7.7798  -17.3990   22.8653 C.ar    1  UNL1        0.0967
      5 C          -7.6131  -18.4282   21.7870 C.ar    1  UNL1        0.0747
      6 C          -8.8207  -19.0342   21.1354 C.ar    1  UNL1        0.0458
      7 C         -10.1950  -18.6109   21.5622 C.ar    1  UNL1        0.1682
      8 O         -11.4026  -19.2169   20.9106 O.3     1  UNL1       -0.5029
      9 C         -10.3617  -17.5817   22.6406 C.ar    1  UNL1        0.1751
     10 O         -11.7360  -17.1584   23.0674 O.3     1  UNL1       -0.5025
     11 C          -9.1541  -16.9757   23.2921 C.ar    1  UNL1        0.0865
     12 S          -9.0072  -15.9471   24.3739 S.2     1  UNL1       -0.0488
     13 H          -5.9629  -14.7212   25.6997 H       1  UNL1        0.1442
     14 H          -7.5252  -14.2401   26.1849 H       1  UNL1        0.1442
     15 H         -11.2984  -19.8598   20.2370 H       1  UNL1        0.2923
     16 H         -12.4903  -17.5369   22.6604 H       1  UNL1        0.2923
     17 C          -6.2388  -18.8514   21.3602 C.2     1  UNL1        0.2477
     18 O          -5.8830  -18.8850   19.9034 O.2     1  UNL1       -0.2701
     19 N          -5.2203  -19.2411   22.3902 N.am    1  UNL1       -0.2969
     20 H          -5.4539  -19.2191   23.3464 H       1  UNL1        0.1501
     21 C          -3.8460  -19.6644   21.9634 C.3     1  UNL1        0.1166
     22 C          -2.8717  -18.6444   21.4533 C.ar    1  UNL1       -0.0026
     23 C          -2.7700  -17.3048   22.1206 C.ar    1  UNL1       -0.0026
     24 C          -1.7957  -16.2848   21.6105 C.ar    1  UNL1       -0.0003
     25 C          -0.9230  -16.6043   20.4330 C.ar    1  UNL1       -0.0000
     26 C          -1.0246  -17.9439   19.7657 C.ar    1  UNL1       -0.0003
     27 C          -1.9990  -18.9639   20.2759 C.ar    1  UNL1       -0.0026
@<TRIPOS>BOND
     1     1     2    1
     2     2     3   ar
     3     3     4   ar
     4     4     5   ar
     5     5    17    1
     6    17    18    2
     7    17    19   am
     8    19    21    1
     9    21    22    1
    10    22    23   ar
    11    23    24   ar
    12    24    25   ar
    13    25    26   ar
    14    26    27   ar
    15     5     6   ar
    16     6     7   ar
    17     7     8    1
    18     7     9   ar
    19     9    10    1
    20     9    11   ar
    21    11    12   ar
    22    12     2   ar
    23    11     4   ar
    24    27    22   ar
    25     1    13    1
    26     1    14    1
    27    19    20    1
    28     8    15    1
    29    10    16    1
@<TRIPOS>MOLECULE
*****
 27 29 0 0 0
SMALL
GASTEIGER

@<TRIPOS>ATOM
      1 N          -9.3916  -17.7671   21.0020 N.pl3   1  UNL1       -0.3375
      2 C          -8.5872  -17.2010   22.1345 C.ar    1  UNL1        0.1568
      3 N          -7.0904  -17.1370   22.2070 N.ar    1  UNL1       -0.2242
      4 C          -6.7164  -16.4960   23.5106 C.ar    1  UNL1        0.0967
      5 C          -5.3869  -16.1719   24.1248 C.ar    1  UNL1        0.0747
      6 C          -5.3232  -15.5156   25.4722 C.ar    1  UNL1        0.0458
      7 C          -6.5890  -15.1835   26.2053 C.ar    1  UNL1        0.1682
      8 O          -6.5253  -14.5272   27.5526 O.3     1  UNL1       -0.5029
      9 C          -7.9185  -15.5077   25.5910 C.ar    1  UNL1        0.1751
     10 O          -9.1843  -15.1756   26.3242 O.3     1  UNL1       -0.5025
     11 C          -7.9823  -16.1639   24.2438 C.ar    1  UNL1        0.0865
     12 S          -9.1384  -16.5996   23.3932 S.2     1  UNL1       -0.0488
     13 H          -8.9361  -18.1416   20.2136 H       1  UNL1        0.1442
     14 H         -10.3751  -17.7641   21.0470 H       1  UNL1        0.1442
     15 H          -5.6947  -14.3247   27.9363 H       1  UNL1        0.2923
     16 H          -9.1445  -14.7656   27.1658 H       1  UNL1        0.2923
     17 C          -4.1211  -16.5040   23.3917 C.2     1  UNL1        0.2477
     18 O          -3.5225  -15.5104   22.4407 O.2     1  UNL1       -0.2701
     19 N          -3.4540  -17.8297   23.6096 N.am    1  UNL1       -0.2969
     20 H          -3.8469  -18.4818   24.2338 H       1  UNL1        0.1501
     21 C          -2.1882  -18.1618   22.8765 C.3     1  UNL1        0.1166
     22 C          -2.1836  -18.2236   21.3778 C.ar    1  UNL1       -0.0026
     23 C          -1.0611  -17.5973   20.6048 C.ar    1  UNL1       -0.0026
     24 C          -1.0565  -17.6591   19.1061 C.ar    1  UNL1       -0.0003
     25 C          -2.1745  -18.3472   18.3804 C.ar    1  UNL1       -0.0000
     26 C          -3.2971  -18.9735   19.1535 C.ar    1  UNL1       -0.0003
     27 C          -3.3016  -18.9117   20.6522 C.ar    1  UNL1       -0.0026
@<TRIPOS>BOND
     1     1     2    1
     2     2     3   ar
     3     3     4   ar
     4     4     5   ar
     5     5    17    1
     6    17    18    2
     7    17    19   am
     8    19    21    1
     9    21    22    1
    10    22    23   ar
    11    23    24   ar
    12    24    25   ar
    13    25    26   ar
    14    26    27   ar
    15     5     6   ar
    16     6     7   ar
    17     7     8    1
    18     7     9   ar
    19     9    10    1
    20     9    11   ar
    21    11    12   ar
    22    12     2   ar
    23    11     4   ar
    24    27    22   ar
    25     1    13    1
    26     1    14    1
    27    19    20    1
    28     8    15    1
    29    10    16    1
@<TRIPOS>MOLECULE
*****
 27 29 0 0 0
SMALL
GASTEIGER

@<TRIPOS>ATOM
      1 N         -10.3909  -19.8223   18.6281 N.pl3   1  UNL1       -0.3375
      2 C          -9.9554  -19.0191   19.8178 C.ar    1  UNL1        0.1568
      3 N          -8.6004  -19.0584   20.4599 N.ar    1  UNL1       -0.2242
      4 C          -8.6060  -18.0993   21.6132 C.ar    1  UNL1        0.0967
      5 C          -7.5496  -17.7198   22.6082 C.ar    1  UNL1        0.0747
      6 C          -7.8516  -16.7082   23.6738 C.ar    1  UNL1        0.0458
      7 C          -9.2101  -16.0762   23.7444 C.ar    1  UNL1        0.1682
      8 O          -9.5122  -15.0646   24.8100 O.3     1  UNL1       -0.5029
      9 C         -10.2665  -16.4557   22.7494 C.ar    1  UNL1        0.1751
     10 O         -11.6250  -15.8236   22.8200 O.3     1  UNL1       -0.5025
     11 C          -9.9644  -17.4672   21.6838 C.ar    1  UNL1        0.0865
     12 S         -10.7984  -18.0357   20.5742 S.2     1  UNL1       -0.0488
     13 H          -9.7616  -20.4451   18.1975 H       1  UNL1        0.1442
     14 H         -11.3059  -19.7265   18.2778 H       1  UNL1        0.1442
     15 H          -8.8524  -14.8276   25.4315 H       1  UNL1        0.2923
     16 H         -11.8137  -15.1917   23.4856 H       1  UNL1        0.2923
     17 C          -6.1911  -18.3519   22.5376 C.2     1  UNL1        0.2477
     18 O          -6.0536  -19.7919   22.1408 O.2     1  UNL1       -0.2701
     19 N          -4.9701  -17.5439   22.8638 N.am    1  UNL1       -0.2969
     20 H          -5.0603  -16.5988   23.1242 H       1  UNL1        0.1501
     21 C          -3.6116  -18.1760   22.7932 C.3     1  UNL1        0.1166
     22 C          -2.7818  -18.0338   21.5517 C.ar    1  UNL1       -0.0026
     23 C          -1.6618  -17.0370   21.5083 C.ar    1  UNL1       -0.0026
     24 C          -0.8320  -16.8949   20.2668 C.ar    1  UNL1       -0.0003
     25 C          -1.1223  -17.7496   19.0687 C.ar    1  UNL1       -0.0000
     26 C          -2.2423  -18.7464   19.1122 C.ar    1  UNL1       -0.0003
     27 C          -3.0721  -18.8885   20.3538 C.ar    1  UNL1       -0.0026
@<TRIPOS>BOND
     1     1     2    1
     2     2     3   ar
     3     3     4   ar
     4     4     5   ar
     5     5    17    1
     6    17    18    2
     7    17    19   am
     8    19    21    1
     9    21    22    1
    10    22    23   ar
    11    23    24   ar
    12    24    25   ar
    13    25    26   ar
    14    26    27   ar
    15     5     6   ar
    16     6     7   ar
    17     7     8    1
    18     7     9   ar
    19     9    10    1
    20     9    11   ar
    21    11    12   ar
    22    12     2   ar
    23    11     4   ar
    24    27    22   ar
    25     1    13    1
    26     1    14    1
    27    19    20    1
    28     8    15    1
    29    10    16    1
@<TRIPOS>MOLECULE
*****
 27 29 0 0 0
SMALL
GASTEIGER

@<TRIPOS>ATOM
      1 N         -11.1037  -20.0270   21.1774 N.pl3   1  UNL1       -0.3375
      2 C         -10.1089  -19.1034   21.8156 C.ar    1  UNL1        0.1568
      3 N          -8.6159  -19.2226   21.7333 N.ar    1  UNL1       -0.2242
      4 C          -8.0166  -18.0913   22.5150 C.ar    1  UNL1        0.0967
      5 C          -6.5938  -17.7007   22.7849 C.ar    1  UNL1        0.0747
      6 C          -6.2935  -16.4916   23.6204 C.ar    1  UNL1        0.0458
      7 C          -7.4162  -15.6732   24.1860 C.ar    1  UNL1        0.1682
      8 O          -7.1159  -14.4642   25.0214 O.3     1  UNL1       -0.5029
      9 C          -8.8391  -16.0639   23.9160 C.ar    1  UNL1        0.1751
     10 O          -9.9617  -15.2454   24.4815 O.3     1  UNL1       -0.5025
     11 C          -9.1393  -17.2729   23.0805 C.ar    1  UNL1        0.0865
     12 S         -10.4323  -17.8984   22.6483 S.2     1  UNL1       -0.0488
     13 H         -10.7921  -20.7953   20.6465 H       1  UNL1        0.1442
     14 H         -12.0683  -19.8649   21.2895 H       1  UNL1        0.1442
     15 H          -6.2271  -14.2201   25.1900 H       1  UNL1        0.2923
     16 H          -9.7742  -14.4902   25.0034 H       1  UNL1        0.2923
     17 C          -5.4712  -18.5192   22.2193 C.2     1  UNL1        0.2477
     18 O          -4.3360  -18.9465   23.1018 O.2     1  UNL1       -0.2701
     19 N          -5.4837  -18.9102   20.7712 N.am    1  UNL1       -0.2969
     20 H          -6.2287  -18.6298   20.1920 H       1  UNL1        0.1501
     21 C          -4.3610  -19.7287   20.2057 C.3     1  UNL1        0.1166
     22 C          -3.0360  -19.0871   19.9183 C.ar    1  UNL1       -0.0026
     23 C          -2.8465  -18.2868   18.6639 C.ar    1  UNL1       -0.0026
     24 C          -1.5215  -17.6453   18.3765 C.ar    1  UNL1       -0.0003
     25 C          -0.3858  -17.8040   19.3436 C.ar    1  UNL1       -0.0000
     26 C          -0.5753  -18.6044   20.5980 C.ar    1  UNL1       -0.0003
     27 C          -1.9004  -19.2459   20.8854 C.ar    1  UNL1       -0.0026
@<TRIPOS>BOND
     1     1     2    1
     2     2     3   ar
     3     3     4   ar
     4     4     5   ar
     5     5    17    1
     6    17    18    2
     7    17    19   am
     8    19    21    1
     9    21    22    1
    10    22    23   ar
    11    23    24   ar
    12    24    25   ar
    13    25    26   ar
    14    26    27   ar
    15     5     6   ar
    16     6     7   ar
    17     7     8    1
    18     7     9   ar
    19     9    10    1
    20     9    11   ar
    21    11    12   ar
    22    12     2   ar
    23    11     4   ar
    24    27    22   ar
    25     1    13    1
    26     1    14    1
    27    19    20    1
    28     8    15    1
    29    10    16    1
@<TRIPOS>MOLECULE
*****
 27 29 0 0 0
SMALL
GASTEIGER

@<TRIPOS>ATOM
      1 N         -15.3066   -2.6048   20.1714 N.pl3   1  UNL1       -0.3375
      2 C         -14.3132   -3.6398   19.7333 C.ar    1  UNL1        0.1568
      3 N         -14.6385   -4.9910   19.1689 N.ar    1  UNL1       -0.2242
      4 C         -13.3465   -5.6917   18.8694 C.ar    1  UNL1        0.0967
      5 C         -13.0482   -7.0471   18.3004 C.ar    1  UNL1        0.0747
      6 C         -11.6259   -7.4844   18.1106 C.ar    1  UNL1        0.0458
      7 C         -10.5020   -6.5663   18.4898 C.ar    1  UNL1        0.1682
      8 O          -9.0798   -7.0035   18.3000 O.3     1  UNL1       -0.5029
      9 C         -10.8004   -5.2108   19.0589 C.ar    1  UNL1        0.1751
     10 O          -9.6764   -4.2927   19.4381 O.3     1  UNL1       -0.5025
     11 C         -12.2226   -4.7735   19.2487 C.ar    1  UNL1        0.0865
     12 S         -12.8200   -3.5055   19.7825 S.2     1  UNL1       -0.0488
     13 H         -16.2714   -2.7870   20.0996 H       1  UNL1        0.1442
     14 H         -14.9937   -1.7433   20.5307 H       1  UNL1        0.1442
     15 H          -8.8934   -7.8502   17.9446 H       1  UNL1        0.2923
     16 H          -8.7880   -4.5658   19.3195 H       1  UNL1        0.2923
     17 C         -14.1721   -7.9653   17.9212 C.2     1  UNL1        0.2477
     18 O         -14.9859   -7.6869   16.6923 O.2     1  UNL1       -0.2701
     19 N         -14.4823   -9.1619   18.7710 N.am    1  UNL1       -0.2969
     20 H         -13.9482   -9.3446   19.5776 H       1  UNL1        0.1501
     21 C         -15.6062  -10.0800   18.3917 C.3     1  UNL1        0.1166
     22 C         -17.0166   -9.7339   18.7672 C.ar    1  UNL1       -0.0026
     23 C         -17.2807   -8.8026   19.9130 C.ar    1  UNL1       -0.0026
     24 C         -18.6911   -8.4565   20.2884 C.ar    1  UNL1       -0.0003
     25 C         -19.8374   -9.0417   19.5180 C.ar    1  UNL1       -0.0000
     26 C         -19.5733   -9.9730   18.3722 C.ar    1  UNL1       -0.0003
     27 C         -18.1628  -10.3191   17.9968 C.ar    1  UNL1       -0.0026
@<TRIPOS>BOND
     1     1     2    1
     2     2     3   ar
     3     3     4   ar
     4     4     5   ar
     5     5    17    1
     6    17    18    2
     7    17    19   am
     8    19    21    1
     9    21    22    1
    10    22    23   ar
    11    23    24   ar
    12    24    25   ar
    13    25    26   ar
    14    26    27   ar
    15     5     6   ar
    16     6     7   ar
    17     7     8    1
    18     7     9   ar
    19     9    10    1
    20     9    11   ar
    21    11    12   ar
    22    12     2   ar
    23    11     4   ar
    24    27    22   ar
    25     1    13    1
    26     1    14    1
    27    19    20    1
    28     8    15    1
    29    10    16    1
@<TRIPOS>MOLECULE
*****
 27 29 0 0 0
SMALL
GASTEIGER

@<TRIPOS>ATOM
      1 N          -8.8232   -7.8977   19.2533 N.pl3   1  UNL1       -0.3375
      2 C          -9.9356   -6.9148   19.0378 C.ar    1  UNL1        0.1568
      3 N         -11.3531   -7.2517   18.6812 N.ar    1  UNL1       -0.2242
      4 C         -12.1194   -5.9675   18.5641 C.ar    1  UNL1        0.0967
      5 C         -13.5547   -5.6815   18.2354 C.ar    1  UNL1        0.0747
      6 C         -14.0461   -4.2650   18.1910 C.ar    1  UNL1        0.0458
      7 C         -13.1022   -3.1344   18.4753 C.ar    1  UNL1        0.1682
      8 O         -13.5936   -1.7179   18.4309 O.3     1  UNL1       -0.5029
      9 C         -11.6668   -3.4204   18.8041 C.ar    1  UNL1        0.1751
     10 O         -10.7229   -2.2899   19.0884 O.3     1  UNL1       -0.5025
     11 C         -11.1755   -4.8369   18.8485 C.ar    1  UNL1        0.0865
     12 S          -9.8258   -5.4224   19.1412 S.2     1  UNL1       -0.0488
     13 H          -8.9947   -8.8629   19.1623 H       1  UNL1        0.1442
     14 H          -7.9216   -7.5777   19.4856 H       1  UNL1        0.1442
     15 H         -14.4902   -1.5393   18.2256 H       1  UNL1        0.2923
     16 H         -11.0299   -1.4050   19.0606 H       1  UNL1        0.2923
     17 C         -14.4986   -6.8121   17.9511 C.2     1  UNL1        0.2477
     18 O         -15.5595   -6.6576   16.9020 O.2     1  UNL1       -0.2701
     19 N         -14.3816   -8.0972   18.7159 N.am    1  UNL1       -0.2969
     20 H         -13.6853   -8.1986   19.4045 H       1  UNL1        0.1501
     21 C         -15.3255   -9.2278   18.4316 C.3     1  UNL1        0.1166
     22 C         -16.7659   -9.1221   18.8367 C.ar    1  UNL1       -0.0026
     23 C         -17.1608   -8.2325   19.9780 C.ar    1  UNL1       -0.0026
     24 C         -18.6011   -8.1269   20.3830 C.ar    1  UNL1       -0.0003
     25 C         -19.6468   -8.9108   19.6467 C.ar    1  UNL1       -0.0000
     26 C         -19.2519   -9.8005   18.5054 C.ar    1  UNL1       -0.0003
     27 C         -17.8114   -9.9061   18.1003 C.ar    1  UNL1       -0.0026
@<TRIPOS>BOND
     1     1     2    1
     2     2     3   ar
     3     3     4   ar
     4     4     5   ar
     5     5    17    1
     6    17    18    2
     7    17    19   am
     8    19    21    1
     9    21    22    1
    10    22    23   ar
    11    23    24   ar
    12    24    25   ar
    13    25    26   ar
    14    26    27   ar
    15     5     6   ar
    16     6     7   ar
    17     7     8    1
    18     7     9   ar
    19     9    10    1
    20     9    11   ar
    21    11    12   ar
    22    12     2   ar
    23    11     4   ar
    24    27    22   ar
    25     1    13    1
    26     1    14    1
    27    19    20    1
    28     8    15    1
    29    10    16    1
