@<TRIPOS>MOLECULE
*****
 42 44 0 0 0
SMALL
GASTEIGER

@<TRIPOS>ATOM
      1 CA          4.3941   -2.2447   20.1888 C.3     1  ILE1        0.1487
      2 N           3.3970   -1.3725   19.4852 N.am    1  ILE1       -0.2970
      3 C           2.3213   -0.3284   19.5346 C.2     4  PHE4        0.2412
      4 O           1.9164   -0.1202   18.1053 O.2     4  PHE4       -0.2733
      5 CA          1.4551    0.6081   20.3238 C.3     4  PHE4        0.1562
      6 N           1.0307    1.1858   21.6414 N.am    4  PHE4       -0.2696
      7 C          -0.0423    2.1778   21.3027 C.3     0  ACE0        0.1153
      8 C           1.1616    1.2500   23.1342 C.2     3  ILE3        0.2439
      9 O           0.1564    2.2753   23.5684 O.2     3  ILE3       -0.2731
     10 CA          1.8129    0.7836   24.4025 C.3     3  ILE3        0.1487
     11 N           2.8100   -0.0886   25.1061 N.am    3  ILE3       -0.2970
     12 C           3.8857   -1.1327   25.0567 C.2     2  PHE2        0.2412
     13 O           4.2906   -1.3410   26.4860 O.2     2  PHE2       -0.2733
     14 CA          4.7519   -2.0692   24.2675 C.3     2  PHE2        0.1562
     15 N           5.1763   -2.6469   22.9498 N.am    2  PHE2       -0.2696
     16 C           6.2493   -3.6389   23.2885 C.3     0  ACE0        0.1153
     17 C           5.0454   -2.7112   21.4570 C.2     1  ILE1        0.2439
     18 O           6.0506   -3.7365   21.0229 O.2     1  ILE1       -0.2731
     19 H           3.4967   -1.5906   18.5303 H       1  ILE1        0.1499
     20 H           2.7103    0.1295   26.0609 H       3  ILE3        0.1499
     21 CB          5.0622   -3.0285   19.0982 C.3     1  ILE1        0.0269
     22 CG2         6.2293   -2.4425   18.3604 C.3     1  ILE1        0.0022
     23 CD1         3.2565   -4.8858   19.2976 C.3     1  ILE1        0.0001
     24 CG1         4.5632   -4.3984   18.7454 C.3     1  ILE1        0.0021
     25 CB          1.1448    1.5674   25.4930 C.3     3  ILE3        0.0269
     26 CG2         1.7749    2.8292   26.0038 C.3     3  ILE3        0.0022
     27 CG1        -0.1534    1.0894   26.0729 C.3     3  ILE3        0.0021
     28 CD1        -0.9660    2.0003   26.9447 C.3     3  ILE3        0.0001
     29 CB          0.6019    1.3010   19.3031 C.3     4  PHE4        0.0555
     30 CG          1.0557    2.5983   18.7022 C.ar    4  PHE4       -0.0200
     31 CD1         0.0907    3.4423   17.9234 C.ar    4  PHE4       -0.0042
     32 CE1         0.5446    4.7396   17.3225 C.ar    4  PHE4       -0.0003
     33 CZ          1.9633    5.1929   17.5004 C.ar    4  PHE4       -0.0000
     34 CE2         2.9283    4.3489   18.2792 C.ar    4  PHE4       -0.0003
     35 CD2         2.4745    3.0515   18.8801 C.ar    4  PHE4       -0.0042
     36 CB          5.6051   -2.7621   25.2882 C.3     2  PHE2        0.0555
     37 CG          6.8574   -2.1058   25.7890 C.ar    2  PHE2       -0.0200
     38 CD1         7.5680   -2.6620   26.9874 C.ar    2  PHE2       -0.0042
     39 CE1         8.8203   -2.0057   27.4882 C.ar    2  PHE2       -0.0003
     40 CZ          9.3622   -0.7933   26.7908 C.ar    2  PHE2       -0.0000
     41 CE2         8.6517   -0.2371   25.5925 C.ar    2  PHE2       -0.0003
     42 CD2         7.3993   -0.8934   25.0916 C.ar    2  PHE2       -0.0042
@<TRIPOS>BOND
     1    23    24    1
     2    24    21    1
     3    21    22    1
     4    21     1    1
     5     1     2    1
     6     2     3   am
     7     3     4    2
     8     3     5    1
     9     5    29    1
    10    29    30    1
    11    30    31   ar
    12    31    32   ar
    13    32    33   ar
    14    33    34   ar
    15    34    35   ar
    16     5     6    1
    17     6     7    1
    18     6     8   am
    19     8     9    2
    20     8    10    1
    21    10    25    1
    22    25    26    1
    23    25    27    1
    24    27    28    1
    25    10    11    1
    26    11    12   am
    27    12    13    2
    28    12    14    1
    29    14    36    1
    30    36    37    1
    31    37    38   ar
    32    38    39   ar
    33    39    40   ar
    34    40    41   ar
    35    41    42   ar
    36    14    15    1
    37    15    16    1
    38    15    17   am
    39    17    18    2
    40    17     1    1
    41    35    30   ar
    42    42    37   ar
    43     2    19    1
    44    11    20    1
@<TRIPOS>MOLECULE
*****
 42 44 0 0 0
SMALL
GASTEIGER

@<TRIPOS>ATOM
      1 CA          6.5074   -4.0009   25.9510 C.3     1  ILE1        0.1487
      2 N           6.1489   -4.0340   24.4948 N.am    1  ILE1       -0.2970
      3 C           5.3742   -3.4825   23.3349 C.2     4  PHE4        0.2412
      4 O           5.7775   -4.3265   22.1621 O.2     4  PHE4       -0.2733
      5 CA          4.3906   -2.4942   22.7818 C.3     4  PHE4        0.1562
      6 N           3.4619   -1.3338   22.9841 N.am    4  PHE4       -0.2696
      7 C           2.8753   -1.0654   21.6298 C.3     0  ACE0        0.1153
      8 C           2.8368   -0.3123   23.8872 C.2     3  ILE3        0.2439
      9 O           1.9266    0.4848   23.0005 O.2     3  ILE3       -0.2731
     10 CA          2.6827    0.2966   25.2494 C.3     3  ILE3        0.1487
     11 N           3.0412    0.3297   26.7056 N.am    3  ILE3       -0.2970
     12 C           3.8159   -0.2218   27.8655 C.2     2  PHE2        0.2412
     13 O           3.4126    0.6222   29.0382 O.2     2  PHE2       -0.2733
     14 CA          4.7995   -1.2102   28.4186 C.3     2  PHE2        0.1562
     15 N           5.7283   -2.3706   28.2163 N.am    2  PHE2       -0.2696
     16 C           6.3148   -2.6389   29.5706 C.3     0  ACE0        0.1153
     17 C           6.3534   -3.3920   27.3132 C.2     1  ILE1        0.2439
     18 O           7.2636   -4.1891   28.1999 O.2     1  ILE1       -0.2731
     19 H           6.6769   -4.7753   24.1192 H       1  ILE1        0.1499
     20 H           2.5133    1.0710   27.0812 H       3  ILE3        0.1499
     21 CB          7.4973   -5.1132   26.1325 C.3     1  ILE1        0.0269
     22 CG2         8.9627   -4.8501   25.9506 C.3     1  ILE1        0.0022
     23 CD1         7.6011   -7.6888   25.8078 C.3     1  ILE1        0.0001
     24 CG1         7.0217   -6.4885   26.4961 C.3     1  ILE1        0.0021
     25 CB          1.6928    1.4089   25.0678 C.3     3  ILE3        0.0269
     26 CG2         2.1727    2.7995   24.7750 C.3     3  ILE3        0.0022
     27 CG1         0.2231    1.1305   25.1792 C.3     3  ILE3        0.0021
     28 CD1        -0.5682    1.7190   26.3095 C.3     3  ILE3        0.0001
     29 CB          4.2848   -2.8265   21.3229 C.3     4  PHE4        0.0555
     30 CG          5.3076   -2.3034   20.3584 C.ar    4  PHE4       -0.0200
     31 CD1         5.4022   -2.8828   18.9780 C.ar    4  PHE4       -0.0042
     32 CE1         6.4250   -2.3597   18.0136 C.ar    4  PHE4       -0.0003
     33 CZ          7.3532   -1.2572   18.4294 C.ar    4  PHE4       -0.0000
     34 CE2         7.2587   -0.6778   19.8097 C.ar    4  PHE4       -0.0003
     35 CD2         6.2358   -1.2009   20.7743 C.ar    4  PHE4       -0.0042
     36 CB          4.9053   -0.8778   29.8775 C.3     2  PHE2        0.0555
     37 CG          5.9077    0.1353   30.3451 C.ar    2  PHE2       -0.0200
     38 CD1         6.0397    0.4399   31.8080 C.ar    2  PHE2       -0.0042
     39 CE1         7.0421    1.4530   32.2756 C.ar    2  PHE2       -0.0003
     40 CZ          7.9126    2.1615   31.2805 C.ar    2  PHE2       -0.0000
     41 CE2         7.7806    1.8570   29.8177 C.ar    2  PHE2       -0.0003
     42 CD2         6.7781    0.8438   29.3500 C.ar    2  PHE2       -0.0042
@<TRIPOS>BOND
     1    23    24    1
     2    24    21    1
     3    21    22    1
     4    21     1    1
     5     1     2    1
     6     2     3   am
     7     3     4    2
     8     3     5    1
     9     5    29    1
    10    29    30    1
    11    30    31   ar
    12    31    32   ar
    13    32    33   ar
    14    33    34   ar
    15    34    35   ar
    16     5     6    1
    17     6     7    1
    18     6     8   am
    19     8     9    2
    20     8    10    1
    21    10    25    1
    22    25    26    1
    23    25    27    1
    24    27    28    1
    25    10    11    1
    26    11    12   am
    27    12    13    2
    28    12    14    1
    29    14    36    1
    30    36    37    1
    31    37    38   ar
    32    38    39   ar
    33    39    40   ar
    34    40    41   ar
    35    41    42   ar
    36    14    15    1
    37    15    16    1
    38    15    17   am
    39    17    18    2
    40    17     1    1
    41    35    30   ar
    42    42    37   ar
    43     2    19    1
    44    11    20    1
@<TRIPOS>MOLECULE
*****
 42 44 0 0 0
SMALL
GASTEIGER

@<TRIPOS>ATOM
      1 CA          4.3228   -0.5967   25.8556 C.3     1  ILE1        0.1487
      2 N           5.5515   -1.4511   25.9571 N.am    1  ILE1       -0.2970
      3 C           6.5417   -2.3828   25.3239 C.2     4  PHE4        0.2412
      4 O           7.5151   -2.7155   26.4157 O.2     4  PHE4       -0.2733
      5 CA          7.0282   -3.1426   24.1255 C.3     4  PHE4        0.1562
      6 N           6.8804   -3.5265   22.6829 N.am    4  PHE4       -0.2696
      7 C           8.0291   -4.4511   22.4077 C.3     0  ACE0        0.1153
      8 C           6.1382   -3.4318   21.3830 C.2     3  ILE3        0.2439
      9 O           6.9026   -4.3074   20.4348 O.2     3  ILE3       -0.2731
     10 CA          5.0002   -2.8839   20.5737 C.3     3  ILE3        0.1487
     11 N           3.7715   -2.0295   20.4722 N.am    3  ILE3       -0.2970
     12 C           2.7813   -1.0977   21.1055 C.2     2  PHE2        0.2412
     13 O           1.8079   -0.7651   20.0136 O.2     2  PHE2       -0.2733
     14 CA          2.2948   -0.3380   22.3039 C.3     2  PHE2        0.1562
     15 N           2.4425    0.0459   23.7464 N.am    2  PHE2       -0.2696
     16 C           1.2938    0.9705   24.0216 C.3     0  ACE0        0.1153
     17 C           3.1848   -0.0488   25.0464 C.2     1  ILE1        0.2439
     18 O           2.4204    0.8268   25.9946 O.2     1  ILE1       -0.2731
     19 H           5.8539   -1.3528   26.8889 H       1  ILE1        0.1499
     20 H           3.4691   -2.1278   19.5405 H       3  ILE3        0.1499
     21 CB          4.1474   -0.0047   27.2227 C.3     1  ILE1        0.0269
     22 CG2         4.7589    1.3258   27.5479 C.3     1  ILE1        0.0022
     23 CD1         2.7572    0.0028   29.4175 C.3     1  ILE1        0.0001
     24 CG1         3.3606   -0.7432   28.2645 C.3     1  ILE1        0.0021
     25 CB          5.1756   -3.4759   19.2067 C.3     3  ILE3        0.0269
     26 CG2         5.9667   -2.7397   18.1664 C.3     3  ILE3        0.0022
     27 CG1         4.5598   -4.8040   18.8799 C.3     3  ILE3        0.0021
     28 CD1         3.4300   -5.3323   19.7132 C.3     3  ILE3        0.0001
     29 CB          8.2533   -3.8684   24.5969 C.3     4  PHE4        0.0555
     30 CG          8.1375   -5.2628   25.1373 C.ar    4  PHE4       -0.0200
     31 CD1         9.2393   -6.2529   24.9007 C.ar    4  PHE4       -0.0042
     32 CE1         9.1234   -7.6473   25.4411 C.ar    4  PHE4       -0.0003
     33 CZ          7.9058   -8.0518   26.2181 C.ar    4  PHE4       -0.0000
     34 CE2         6.8040   -7.0619   26.4548 C.ar    4  PHE4       -0.0003
     35 CD2         6.9198   -5.6673   25.9144 C.ar    4  PHE4       -0.0042
     36 CB          1.0697    0.3878   21.8324 C.3     2  PHE2        0.0555
     37 CG          1.2055    1.6783   21.0800 C.ar    2  PHE2       -0.0200
     38 CD1         0.0433    2.2176   20.2999 C.ar    2  PHE2       -0.0042
     39 CE1         0.1791    3.5081   19.5476 C.ar    2  PHE2       -0.0003
     40 CZ          1.4772    4.2593   19.5752 C.ar    2  PHE2       -0.0000
     41 CE2         2.6394    3.7201   20.3552 C.ar    2  PHE2       -0.0003
     42 CD2         2.5035    2.4295   21.1077 C.ar    2  PHE2       -0.0042
@<TRIPOS>BOND
     1    23    24    1
     2    24    21    1
     3    21    22    1
     4    21     1    1
     5     1     2    1
     6     2     3   am
     7     3     4    2
     8     3     5    1
     9     5    29    1
    10    29    30    1
    11    30    31   ar
    12    31    32   ar
    13    32    33   ar
    14    33    34   ar
    15    34    35   ar
    16     5     6    1
    17     6     7    1
    18     6     8   am
    19     8     9    2
    20     8    10    1
    21    10    25    1
    22    25    26    1
    23    25    27    1
    24    27    28    1
    25    10    11    1
    26    11    12   am
    27    12    13    2
    28    12    14    1
    29    14    36    1
    30    36    37    1
    31    37    38   ar
    32    38    39   ar
    33    39    40   ar
    34    40    41   ar
    35    41    42   ar
    36    14    15    1
    37    15    16    1
    38    15    17   am
    39    17    18    2
    40    17     1    1
    41    35    30   ar
    42    42    37   ar
    43     2    19    1
    44    11    20    1
@<TRIPOS>MOLECULE
*****
 42 44 0 0 0
SMALL
GASTEIGER

@<TRIPOS>ATOM
      1 CA          4.9729   -2.6715   20.5536 C.3     1  ILE1        0.1487
      2 N           6.0999   -3.2052   21.3873 N.am    1  ILE1       -0.2970
      3 C           6.7996   -3.3129   22.7096 C.2     4  PHE4        0.2412
      4 O           7.9873   -4.1916   22.4500 O.2     4  PHE4       -0.2733
      5 CA          6.8846   -2.9658   24.1665 C.3     4  PHE4        0.1562
      6 N           6.3320   -2.2568   25.3673 N.am    4  PHE4       -0.2696
      7 C           7.2776   -2.5889   26.4834 C.3     0  ACE0        0.1153
      8 C           5.2900   -1.3761   25.9904 C.2     3  ILE3        0.2439
      9 O           5.6961   -1.2522   27.4291 O.2     3  ILE3       -0.2731
     10 CA          4.0376   -0.5594   25.8689 C.3     3  ILE3        0.1487
     11 N           2.9106   -0.0257   25.0352 N.am    3  ILE3       -0.2970
     12 C           2.2109    0.0820   23.7129 C.2     2  PHE2        0.2412
     13 O           1.0232    0.9607   23.9725 O.2     2  PHE2       -0.2733
     14 CA          2.1259   -0.2651   22.2560 C.3     2  PHE2        0.1562
     15 N           2.6786   -0.9740   21.0552 N.am    2  PHE2       -0.2696
     16 C           1.7329   -0.6420   19.9391 C.3     0  ACE0        0.1153
     17 C           3.7206   -1.8548   20.4321 C.2     1  ILE1        0.2439
     18 O           3.3144   -1.9787   18.9934 O.2     1  ILE1       -0.2731
     19 H           6.6417   -3.7453   20.7676 H       1  ILE1        0.1499
     20 H           2.3688    0.5144   25.6549 H       3  ILE3        0.1499
     21 CB          5.2150   -3.2181   19.1778 C.3     1  ILE1        0.0269
     22 CG2         5.9993   -2.4183   18.1803 C.3     1  ILE1        0.0022
     23 CD1         3.6350   -5.2236   19.6592 C.3     1  ILE1        0.0001
     24 CG1         4.6728   -4.5646   18.7997 C.3     1  ILE1        0.0021
     25 CB          3.7956   -0.0128   27.2447 C.3     3  ILE3        0.0269
     26 CG2         4.3427    1.3312   27.6247 C.3     3  ILE3        0.0022
     27 CG1         3.0064   -0.8101   28.2404 C.3     3  ILE3        0.0021
     28 CD1         1.6791   -0.3046   28.7230 C.3     3  ILE3        0.0001
     29 CB          8.1163   -3.6648   24.6609 C.3     4  PHE4        0.0555
     30 CG          8.0480   -5.1070   25.0675 C.ar    4  PHE4       -0.0200
     31 CD1         6.9449   -5.5814   25.9666 C.ar    4  PHE4       -0.0042
     32 CE1         6.8766   -7.0236   26.3732 C.ar    4  PHE4       -0.0003
     33 CZ          7.9113   -7.9915   25.8807 C.ar    4  PHE4       -0.0000
     34 CE2         9.0143   -7.5172   24.9817 C.ar    4  PHE4       -0.0003
     35 CD2         9.0827   -6.0749   24.5751 C.ar    4  PHE4       -0.0042
     36 CB          0.8943    0.4339   21.7615 C.3     2  PHE2        0.0555
     37 CG          0.9837    1.8434   21.2563 C.ar    2  PHE2       -0.0200
     38 CD1         2.2921    2.5755   21.3033 C.ar    2  PHE2       -0.0042
     39 CE1         2.3814    3.9850   20.7980 C.ar    2  PHE2       -0.0003
     40 CZ          1.1624    4.6624   20.2458 C.ar    2  PHE2       -0.0000
     41 CE2        -0.1460    3.9304   20.1988 C.ar    2  PHE2       -0.0003
     42 CD2        -0.2354    2.5209   20.7040 C.ar    2  PHE2       -0.0042
@<TRIPOS>BOND
     1    23    24    1
     2    24    21    1
     3    21    22    1
     4    21     1    1
     5     1     2    1
     6     2     3   am
     7     3     4    2
     8     3     5    1
     9     5    29    1
    10    29    30    1
    11    30    31   ar
    12    31    32   ar
    13    32    33   ar
    14    33    34   ar
    15    34    35   ar
    16     5     6    1
    17     6     7    1
    18     6     8   am
    19     8     9    2
    20     8    10    1
    21    10    25    1
    22    25    26    1
    23    25    27    1
    24    27    28    1
    25    10    11    1
    26    11    12   am
    27    12    13    2
    28    12    14    1
    29    14    36    1
    30    36    37    1
    31    37    38   ar
    32    38    39   ar
    33    39    40   ar
    34    40    41   ar
    35    41    42   ar
    36    14    15    1
    37    15    16    1
    38    15    17   am
    39    17    18    2
    40    17     1    1
    41    35    30   ar
    42    42    37   ar
    43     2    19    1
    44    11    20    1
@<TRIPOS>MOLECULE
*****
 42 44 0 0 0
SMALL
GASTEIGER

@<TRIPOS>ATOM
      1 CA          2.7440    0.3134   25.3509 C.3     1  ILE1        0.1487
      2 N           3.1091    0.3403   26.8055 N.am    1  ILE1       -0.2970
      3 C           3.8854   -0.2192   27.9605 C.2     4  PHE4        0.2412
      4 O           3.4929    0.6243   29.1372 O.2     4  PHE4       -0.2733
      5 CA          4.8648   -1.2155   28.5066 C.3     4  PHE4        0.1562
      6 N           5.7850   -2.3815   28.2972 N.am    4  PHE4       -0.2696
      7 C           6.3758   -2.6572   29.6482 C.3     0  ACE0        0.1153
      8 C           6.3993   -3.4047   27.3887 C.2     3  ILE3        0.2439
      9 O           7.3081   -4.2101   28.2693 O.2     3  ILE3       -0.2731
     10 CA          6.5432   -4.0111   26.0243 C.3     3  ILE3        0.1487
     11 N           6.1780   -4.0380   24.5696 N.am    3  ILE3       -0.2970
     12 C           5.4018   -3.4785   23.4146 C.2     2  PHE2        0.2412
     13 O           5.7943   -4.3220   22.2379 O.2     2  PHE2       -0.2733
     14 CA          4.4224   -2.4822   22.8685 C.3     2  PHE2        0.1562
     15 N           3.5022   -1.3162   23.0779 N.am    2  PHE2       -0.2696
     16 C           2.9114   -1.0405   21.7269 C.3     0  ACE0        0.1153
     17 C           2.8879   -0.2930   23.9864 C.2     1  ILE1        0.2439
     18 O           1.9790    0.5124   23.1059 O.2     1  ILE1       -0.2731
     19 H           2.5878    1.0841   27.1853 H       1  ILE1        0.1499
     20 H           6.6994   -4.7818   24.1898 H       3  ILE3        0.1499
     21 CB          1.7607    1.4327   25.1766 C.3     1  ILE1        0.0269
     22 CG2         2.2475    2.8174   24.8676 C.3     1  ILE1        0.0022
     23 CD1        -0.4087    1.4583   26.6060 C.3     1  ILE1        0.0001
     24 CG1         0.2905    1.1672   25.3112 C.3     1  ILE1        0.0021
     25 CB          7.5265   -5.1304   26.1986 C.3     3  ILE3        0.0269
     26 CG2         8.9966   -4.8650   26.0635 C.3     3  ILE3        0.0022
     27 CG1         7.0397   -6.5150   26.5080 C.3     3  ILE3        0.0021
     28 CD1         7.6271   -7.6943   25.7908 C.3     3  ILE3        0.0001
     29 CB          4.9793   -0.8877   29.9659 C.3     4  PHE4        0.0555
     30 CG          5.9201    0.1882   30.4213 C.ar    4  PHE4       -0.0200
     31 CD1         5.8790    0.6686   31.8418 C.ar    4  PHE4       -0.0042
     32 CE1         6.8197    1.7445   32.2972 C.ar    4  PHE4       -0.0003
     33 CZ          7.8015    2.3401   31.3322 C.ar    4  PHE4       -0.0000
     34 CE2         7.8427    1.8598   29.9118 C.ar    4  PHE4       -0.0003
     35 CD2         6.9019    0.7838   29.4563 C.ar    4  PHE4       -0.0042
     36 CB          4.3078   -2.8100   21.4092 C.3     2  PHE2        0.0555
     37 CG          5.3350   -2.2992   20.4429 C.ar    2  PHE2       -0.0200
     38 CD1         6.2665   -1.1967   20.8516 C.ar    2  PHE2       -0.0042
     39 CE1         7.2937   -0.6859   19.8853 C.ar    2  PHE2       -0.0003
     40 CZ          7.3895   -1.2774   18.5102 C.ar    2  PHE2       -0.0000
     41 CE2         6.4581   -2.3799   18.1015 C.ar    2  PHE2       -0.0003
     42 CD2         5.4309   -2.8908   19.0678 C.ar    2  PHE2       -0.0042
@<TRIPOS>BOND
     1    23    24    1
     2    24    21    1
     3    21    22    1
     4    21     1    1
     5     1     2    1
     6     2     3   am
     7     3     4    2
     8     3     5    1
     9     5    29    1
    10    29    30    1
    11    30    31   ar
    12    31    32   ar
    13    32    33   ar
    14    33    34   ar
    15    34    35   ar
    16     5     6    1
    17     6     7    1
    18     6     8   am
    19     8     9    2
    20     8    10    1
    21    10    25    1
    22    25    26    1
    23    25    27    1
    24    27    28    1
    25    10    11    1
    26    11    12   am
    27    12    13    2
    28    12    14    1
    29    14    36    1
    30    36    37    1
    31    37    38   ar
    32    38    39   ar
    33    39    40   ar
    34    40    41   ar
    35    41    42   ar
    36    14    15    1
    37    15    16    1
    38    15    17   am
    39    17    18    2
    40    17     1    1
    41    35    30   ar
    42    42    37   ar
    43     2    19    1
    44    11    20    1
@<TRIPOS>MOLECULE
*****
 42 44 0 0 0
SMALL
GASTEIGER

@<TRIPOS>ATOM
      1 CA          5.0372   -2.9208   20.5821 C.3     1  ILE1        0.1487
      2 N           3.8052   -2.0747   20.4539 N.am    1  ILE1       -0.2970
      3 C           2.8016   -1.1408   21.0625 C.2     4  PHE4        0.2412
      4 O           1.8411   -0.8270   19.9538 O.2     4  PHE4       -0.2733
      5 CA          2.2951   -0.3693   22.2449 C.3     4  PHE4        0.1562
      6 N           2.4215    0.0330   23.6845 N.am    4  PHE4       -0.2696
      7 C           1.2642    0.9545   23.9331 C.3     0  ACE0        0.1153
      8 C           3.1469   -0.0416   24.9952 C.2     3  ILE3        0.2439
      9 O           2.3651    0.8412   25.9224 O.2     3  ILE3       -0.2731
     10 CA          4.2769   -0.5732   25.8261 C.3     3  ILE3        0.1487
     11 N           5.5089   -1.4193   25.9544 N.am    3  ILE3       -0.2970
     12 C           6.5125   -2.3532   25.3458 C.2     2  PHE2        0.2412
     13 O           7.4730   -2.6670   26.4544 O.2     2  PHE2       -0.2733
     14 CA          7.0191   -3.1247   24.1633 C.3     2  PHE2        0.1562
     15 N           6.8926   -3.5270   22.7238 N.am    2  PHE2       -0.2696
     16 C           8.0499   -4.4484   22.4752 C.3     0  ACE0        0.1153
     17 C           6.1672   -3.4524   21.4131 C.2     1  ILE1        0.2439
     18 O           6.9490   -4.3352   20.4858 O.2     1  ILE1       -0.2731
     19 H           3.5158   -2.1860   19.5195 H       1  ILE1        0.1499
     20 H           5.7983   -1.3080   26.8888 H       3  ILE3        0.1499
     21 CB          5.2339   -3.5284   19.2249 C.3     1  ILE1        0.0269
     22 CG2         6.0043   -2.7845   18.1746 C.3     1  ILE1        0.0022
     23 CD1         3.5204   -5.4138   19.7337 C.3     1  ILE1        0.0001
     24 CG1         4.6603   -4.8799   18.9179 C.3     1  ILE1        0.0021
     25 CB          4.0802    0.0344   27.1834 C.3     3  ILE3        0.0269
     26 CG2         4.7151    1.3525   27.5142 C.3     3  ILE3        0.0022
     27 CG1         3.2485   -0.6761   28.2098 C.3     3  ILE3        0.0021
     28 CD1         2.7174    0.0744   29.3950 C.3     3  ILE3        0.0001
     29 CB          1.0724    0.3439   21.7484 C.3     4  PHE4        0.0555
     30 CG          1.2131    1.5964   20.9352 C.ar    4  PHE4       -0.0200
     31 CD1         0.0644    2.0825   20.1018 C.ar    4  PHE4       -0.0042
     32 CE1         0.2051    3.3350   19.2885 C.ar    4  PHE4       -0.0003
     33 CZ          1.4944    4.1014   19.3086 C.ar    4  PHE4       -0.0000
     34 CE2         2.6430    3.6153   20.1419 C.ar    4  PHE4       -0.0003
     35 CD2         2.5023    2.3628   20.9552 C.ar    4  PHE4       -0.0042
     36 CB          8.2417   -3.8379   24.6598 C.3     2  PHE2        0.0555
     37 CG          8.1314   -5.2382   25.1860 C.ar    2  PHE2       -0.0200
     38 CD1         9.2390   -6.2202   24.9430 C.ar    2  PHE2       -0.0042
     39 CE1         9.1287   -7.6205   25.4692 C.ar    2  PHE2       -0.0003
     40 CZ          7.9108   -8.0389   26.2384 C.ar    2  PHE2       -0.0000
     41 CE2         6.8032   -7.0570   26.4814 C.ar    2  PHE2       -0.0003
     42 CD2         6.9135   -5.6566   25.9552 C.ar    2  PHE2       -0.0042
@<TRIPOS>BOND
     1    23    24    1
     2    24    21    1
     3    21    22    1
     4    21     1    1
     5     1     2    1
     6     2     3   am
     7     3     4    2
     8     3     5    1
     9     5    29    1
    10    29    30    1
    11    30    31   ar
    12    31    32   ar
    13    32    33   ar
    14    33    34   ar
    15    34    35   ar
    16     5     6    1
    17     6     7    1
    18     6     8   am
    19     8     9    2
    20     8    10    1
    21    10    25    1
    22    25    26    1
    23    25    27    1
    24    27    28    1
    25    10    11    1
    26    11    12   am
    27    12    13    2
    28    12    14    1
    29    14    36    1
    30    36    37    1
    31    37    38   ar
    32    38    39   ar
    33    39    40   ar
    34    40    41   ar
    35    41    42   ar
    36    14    15    1
    37    15    16    1
    38    15    17   am
    39    17    18    2
    40    17     1    1
    41    35    30   ar
    42    42    37   ar
    43     2    19    1
    44    11    20    1
@<TRIPOS>MOLECULE
*****
 42 44 0 0 0
SMALL
GASTEIGER

@<TRIPOS>ATOM
      1 CA          4.0448   -0.5432   25.8812 C.3     1  ILE1        0.1487
      2 N           2.9184   -0.0092   25.0468 N.am    1  ILE1       -0.2970
      3 C           2.2177    0.0959   23.7248 C.2     4  PHE4        0.2412
      4 O           1.0328    0.9789   23.9825 O.2     4  PHE4       -0.2733
      5 CA          2.1303   -0.2559   22.2692 C.3     4  PHE4        0.1562
      6 N           2.6797   -0.9706   21.0703 N.am    4  PHE4       -0.2696
      7 C           1.7339   -0.6397   19.9540 C.3     0  ACE0        0.1153
      8 C           3.7186   -1.8564   20.4492 C.2     3  ILE3        0.2439
      9 O           3.3106   -1.9841   19.0113 O.2     3  ILE3       -0.2731
     10 CA          4.9687   -2.6762   20.5722 C.3     3  ILE3        0.1487
     11 N           6.0951   -3.2102   21.4067 N.am    3  ILE3       -0.2970
     12 C           6.7958   -3.3153   22.7287 C.2     2  PHE2        0.2412
     13 O           7.9807   -4.1983   22.4709 O.2     2  PHE2       -0.2733
     14 CA          6.8832   -2.9635   24.1842 C.3     2  PHE2        0.1562
     15 N           6.3338   -2.2488   25.3832 N.am    2  PHE2       -0.2696
     16 C           7.2796   -2.5797   26.4994 C.3     0  ACE0        0.1153
     17 C           5.2949   -1.3630   26.0043 C.2     1  ILE1        0.2439
     18 O           5.7029   -1.2353   27.4421 O.2     1  ILE1       -0.2731
     19 H           2.3788    0.5345   25.6651 H       1  ILE1        0.1499
     20 H           6.6347   -3.7539   20.7883 H       3  ILE3        0.1499
     21 CB          3.8056    0.0088   27.2553 C.3     1  ILE1        0.0269
     22 CG2         4.3719    1.3447   27.6359 C.3     1  ILE1        0.0022
     23 CD1         1.6748   -0.2528   28.7186 C.3     1  ILE1        0.0001
     24 CG1         3.0002   -0.7749   28.2487 C.3     1  ILE1        0.0021
     25 CB          5.2079   -3.2282   19.1981 C.3     3  ILE3        0.0269
     26 CG2         5.9958   -2.4353   18.1980 C.3     3  ILE3        0.0022
     27 CG1         4.6591   -4.5732   18.8243 C.3     3  ILE3        0.0021
     28 CD1         3.6043   -5.2159   19.6754 C.3     3  ILE3        0.0001
     29 CB          0.9001    0.4449   21.7736 C.3     4  PHE4        0.0555
     30 CG          0.9838    1.8687   21.3092 C.ar    4  PHE4       -0.0200
     31 CD1         2.3156    2.5541   21.2281 C.ar    4  PHE4       -0.0042
     32 CE1         2.3993    3.9779   20.7637 C.ar    4  PHE4       -0.0003
     33 CZ          1.1512    4.7164   20.3804 C.ar    4  PHE4       -0.0000
     34 CE2        -0.1806    4.0310   20.4615 C.ar    4  PHE4       -0.0003
     35 CD2        -0.2643    2.6072   20.9259 C.ar    4  PHE4       -0.0042
     36 CB          8.1134   -3.6643   24.6798 C.3     2  PHE2        0.0555
     37 CG          8.0453   -5.1097   25.0749 C.ar    2  PHE2       -0.0200
     38 CD1         9.0647   -6.0786   24.5532 C.ar    2  PHE2       -0.0042
     39 CE1         8.9967   -7.5240   24.9482 C.ar    2  PHE2       -0.0003
     40 CZ          7.9093   -8.0006   25.8650 C.ar    2  PHE2       -0.0000
     41 CE2         6.8899   -7.0317   26.3867 C.ar    2  PHE2       -0.0003
     42 CD2         6.9579   -5.5862   25.9917 C.ar    2  PHE2       -0.0042
@<TRIPOS>BOND
     1    23    24    1
     2    24    21    1
     3    21    22    1
     4    21     1    1
     5     1     2    1
     6     2     3   am
     7     3     4    2
     8     3     5    1
     9     5    29    1
    10    29    30    1
    11    30    31   ar
    12    31    32   ar
    13    32    33   ar
    14    33    34   ar
    15    34    35   ar
    16     5     6    1
    17     6     7    1
    18     6     8   am
    19     8     9    2
    20     8    10    1
    21    10    25    1
    22    25    26    1
    23    25    27    1
    24    27    28    1
    25    10    11    1
    26    11    12   am
    27    12    13    2
    28    12    14    1
    29    14    36    1
    30    36    37    1
    31    37    38   ar
    32    38    39   ar
    33    39    40   ar
    34    40    41   ar
    35    41    42   ar
    36    14    15    1
    37    15    16    1
    38    15    17   am
    39    17    18    2
    40    17     1    1
    41    35    30   ar
    42    42    37   ar
    43     2    19    1
    44    11    20    1
@<TRIPOS>MOLECULE
*****
 42 44 0 0 0
SMALL
GASTEIGER

@<TRIPOS>ATOM
      1 CA          6.6044   -3.9247   24.9036 C.3     1  ILE1        0.1487
      2 N           6.5634   -3.4616   26.3297 N.am    1  ILE1       -0.2970
      3 C           5.9966   -2.5619   27.3876 C.2     4  PHE4        0.2412
      4 O           6.7190   -2.9400   28.6467 O.2     4  PHE4       -0.2733
      5 CA          5.0558   -1.4665   27.7938 C.3     4  PHE4        0.1562
      6 N           3.9932   -0.4689   27.4393 N.am    4  PHE4       -0.2696
      7 C           3.6785    0.2365   28.7253 C.3     0  ACE0        0.1153
      8 C           3.0935    0.1636   26.4194 C.2     3  ILE3        0.2439
      9 O           2.3131    1.1964   27.1772 O.2     3  ILE3       -0.2731
     10 CA          2.5976    0.2615   25.0071 C.3     3  ILE3        0.1487
     11 N           2.6387   -0.2015   23.5809 N.am    3  ILE3       -0.2970
     12 C           3.2055   -1.1012   22.5230 C.2     2  PHE2        0.2412
     13 O           2.4831   -0.7232   21.2639 O.2     2  PHE2       -0.2733
     14 CA          4.1462   -2.1967   22.1168 C.3     2  PHE2        0.1562
     15 N           5.2089   -3.1943   22.4713 N.am    2  PHE2       -0.2696
     16 C           5.5235   -3.8997   21.1854 C.3     0  ACE0        0.1153
     17 C           6.1086   -3.8268   23.4912 C.2     1  ILE1        0.2439
     18 O           6.8890   -4.8596   22.7334 O.2     1  ILE1       -0.2731
     19 H           7.2301   -4.0155   26.7967 H       1  ILE1        0.1499
     20 H           1.9720    0.3523   23.1139 H       3  ILE3        0.1499
     21 CB          7.6414   -5.0081   24.8768 C.3     1  ILE1        0.0269
     22 CG2         9.0255   -4.7095   24.3816 C.3     1  ILE1        0.0022
     23 CD1         8.1059   -7.5643   24.8837 C.3     1  ILE1        0.0001
     24 CG1         7.2944   -6.3902   25.3452 C.3     1  ILE1        0.0021
     25 CB          1.5606    1.3449   25.0339 C.3     3  ILE3        0.0269
     26 CG2         1.9563    2.7684   24.7751 C.3     3  ILE3        0.0022
     27 CG1         0.1279    1.0049   25.3194 C.3     3  ILE3        0.0021
     28 CD1        -0.8392    2.0878   25.6965 C.3     3  ILE3        0.0001
     29 CB          5.2912   -1.2775   29.2631 C.3     4  PHE4        0.0555
     30 CG          6.4337   -0.4286   29.7366 C.ar    4  PHE4       -0.0200
     31 CD1         7.1533    0.4664   28.7716 C.ar    4  PHE4       -0.0042
     32 CE1         8.2958    1.3153   29.2450 C.ar    4  PHE4       -0.0003
     33 CZ          8.7186    1.2692   30.6834 C.ar    4  PHE4       -0.0000
     34 CE2         7.9991    0.3742   31.6484 C.ar    4  PHE4       -0.0003
     35 CD2         6.8565   -0.4747   31.1750 C.ar    4  PHE4       -0.0042
     36 CB          3.9108   -2.3857   20.6475 C.3     2  PHE2        0.0555
     37 CG          4.5572   -1.4607   19.6593 C.ar    2  PHE2       -0.0200
     38 CD1         5.6981   -0.5855   20.0864 C.ar    2  PHE2       -0.0042
     39 CE1         6.3445    0.3395   19.0982 C.ar    2  PHE2       -0.0003
     40 CZ          5.8501    0.3892   17.6829 C.ar    2  PHE2       -0.0000
     41 CE2         4.7092   -0.4860   17.2558 C.ar    2  PHE2       -0.0003
     42 CD2         4.0628   -1.4110   18.2440 C.ar    2  PHE2       -0.0042
@<TRIPOS>BOND
     1    23    24    1
     2    24    21    1
     3    21    22    1
     4    21     1    1
     5     1     2    1
     6     2     3   am
     7     3     4    2
     8     3     5    1
     9     5    29    1
    10    29    30    1
    11    30    31   ar
    12    31    32   ar
    13    32    33   ar
    14    33    34   ar
    15    34    35   ar
    16     5     6    1
    17     6     7    1
    18     6     8   am
    19     8     9    2
    20     8    10    1
    21    10    25    1
    22    25    26    1
    23    25    27    1
    24    27    28    1
    25    10    11    1
    26    11    12   am
    27    12    13    2
    28    12    14    1
    29    14    36    1
    30    36    37    1
    31    37    38   ar
    32    38    39   ar
    33    39    40   ar
    34    40    41   ar
    35    41    42   ar
    36    14    15    1
    37    15    16    1
    38    15    17   am
    39    17    18    2
    40    17     1    1
    41    35    30   ar
    42    42    37   ar
    43     2    19    1
    44    11    20    1
@<TRIPOS>MOLECULE
*****
 42 44 0 0 0
SMALL
GASTEIGER

@<TRIPOS>ATOM
      1 CA          4.0685    0.9740   25.9146 C.3     1  ILE1        0.1487
      2 N           4.8035    0.9561   27.2220 N.am    1  ILE1       -0.2970
      3 C           5.7274    0.2694   28.1836 C.2     4  PHE4        0.2412
      4 O           5.8407    1.2062   29.3496 O.2     4  PHE4       -0.2733
      5 CA          6.5928   -0.9024   28.5416 C.3     4  PHE4        0.1562
      6 N           7.1677   -2.2451   28.2001 N.am    4  PHE4       -0.2696
      7 C           8.0264   -2.6099   29.3746 C.3     0  ACE0        0.1153
      8 C           7.2980   -3.3990   27.2506 C.2     3  ILE3        0.2439
      9 O           8.2243   -4.3611   27.9337 O.2     3  ILE3       -0.2731
     10 CA          6.9490   -4.0549   25.9476 C.3     3  ILE3        0.1487
     11 N           6.2140   -4.0371   24.6401 N.am    3  ILE3       -0.2970
     12 C           5.2901   -3.3503   23.6786 C.2     2  PHE2        0.2412
     13 O           5.1768   -4.2871   22.5126 O.2     2  PHE2       -0.2733
     14 CA          4.4247   -2.1785   23.3205 C.3     2  PHE2        0.1562
     15 N           3.8498   -0.8358   23.6621 N.am    2  PHE2       -0.2696
     16 C           2.9910   -0.4710   22.4875 C.3     0  ACE0        0.1153
     17 C           3.7194    0.3181   24.6115 C.2     1  ILE1        0.2439
     18 O           2.7932    1.2802   23.9285 O.2     1  ILE1       -0.2731
     19 H           4.5639    1.8043   27.6607 H       1  ILE1        0.1499
     20 H           6.4536   -4.8853   24.2015 H       3  ILE3        0.1499
     21 CB          3.3230    2.2756   25.9060 C.3     1  ILE1        0.0269
     22 CG2         4.0261    3.5401   25.5103 C.3     1  ILE1        0.0022
     23 CD1         1.3505    1.3636   27.3299 C.3     1  ILE1        0.0001
     24 CG1         1.8743    2.3127   26.2932 C.3     1  ILE1        0.0021
     25 CB          7.6945   -5.3565   25.9561 C.3     3  ILE3        0.0269
     26 CG2         9.1010   -5.4187   25.4385 C.3     3  ILE3        0.0022
     27 CG1         7.0336   -6.5960   26.4823 C.3     3  ILE3        0.0021
     28 CD1         7.6126   -7.9444   26.1715 C.3     3  ILE3        0.0001
     29 CB          7.1540   -0.5721   29.8929 C.3     4  PHE4        0.0555
     30 CG          6.3687   -0.8929   31.1300 C.ar    4  PHE4       -0.0200
     31 CD1         5.0467   -1.5931   31.0187 C.ar    4  PHE4       -0.0042
     32 CE1         4.2614   -1.9139   32.2557 C.ar    4  PHE4       -0.0003
     33 CZ          4.7980   -1.5346   33.6041 C.ar    4  PHE4       -0.0000
     34 CE2         6.1199   -0.8344   33.7155 C.ar    4  PHE4       -0.0003
     35 CD2         6.9052   -0.5136   32.4784 C.ar    4  PHE4       -0.0042
     36 CB          3.8635   -2.5088   21.9692 C.3     2  PHE2        0.0555
     37 CG          4.7046   -2.3212   20.7416 C.ar    2  PHE2       -0.0200
     38 CD1         5.9038   -1.4210   20.7844 C.ar    2  PHE2       -0.0042
     39 CE1         6.7449   -1.2333   19.5567 C.ar    2  PHE2       -0.0003
     40 CZ          6.3869   -1.9458   18.2861 C.ar    2  PHE2       -0.0000
     41 CE2         5.1878   -2.8459   18.2433 C.ar    2  PHE2       -0.0003
     42 CD2         4.3466   -3.0336   19.4710 C.ar    2  PHE2       -0.0042
@<TRIPOS>BOND
     1    23    24    1
     2    24    21    1
     3    21    22    1
     4    21     1    1
     5     1     2    1
     6     2     3   am
     7     3     4    2
     8     3     5    1
     9     5    29    1
    10    29    30    1
    11    30    31   ar
    12    31    32   ar
    13    32    33   ar
    14    33    34   ar
    15    34    35   ar
    16     5     6    1
    17     6     7    1
    18     6     8   am
    19     8     9    2
    20     8    10    1
    21    10    25    1
    22    25    26    1
    23    25    27    1
    24    27    28    1
    25    10    11    1
    26    11    12   am
    27    12    13    2
    28    12    14    1
    29    14    36    1
    30    36    37    1
    31    37    38   ar
    32    38    39   ar
    33    39    40   ar
    34    40    41   ar
    35    41    42   ar
    36    14    15    1
    37    15    16    1
    38    15    17   am
    39    17    18    2
    40    17     1    1
    41    35    30   ar
    42    42    37   ar
    43     2    19    1
    44    11    20    1
