@<TRIPOS>MOLECULE
*****
 26 29 0 0 0
SMALL
GASTEIGER

@<TRIPOS>ATOM
      1 C         -12.2726  -18.3069   22.7705 C.2     1  UNL1        0.0919
      2 C         -12.3916  -17.6440   21.4303 C.2     1  UNL1        0.0183
      3 C         -11.2455  -17.6950   20.4639 C.2     1  UNL1        0.0511
      4 C          -9.9804  -18.4090   20.8378 C.2     1  UNL1        0.2322
      5 N          -8.6932  -18.6242   20.0983 N.2     1  UNL1       -0.0308
      6 C          -7.7787  -19.4201   20.9816 C.2     1  UNL1        0.3767
      7 N          -8.5007  -19.6969   22.2669 N.2     1  UNL1       -0.0346
      8 C          -9.8614  -19.0719   22.1780 C.2     1  UNL1        0.2191
      9 C         -11.0075  -19.0209   23.1444 C.3     1  UNL1        0.1226
     10 C          -6.3866  -19.8618   20.6395 C.ar    1  UNL1        0.1075
     11 C          -6.1322  -21.2774   20.2136 C.ar    1  UNL1        0.1065
     12 N          -4.7402  -21.7191   19.8715 N.ar    1  UNL1       -0.2421
     13 C          -3.6025  -20.7452   19.9553 C.ar    1  UNL1        0.0988
     14 C          -3.8568  -19.3296   20.3811 C.ar    1  UNL1        0.0194
     15 C          -5.2489  -18.8879   20.7232 C.ar    1  UNL1        0.0108
     16 C          -2.7190  -18.3557   20.4649 C.ar    1  UNL1        0.0015
     17 C          -1.5199  -18.5253   19.5799 C.ar    1  UNL1        0.0000
     18 C          -0.3822  -17.5514   19.6637 C.ar    1  UNL1        0.0000
     19 C          -0.4436  -16.4078   20.6325 C.ar    1  UNL1        0.0000
     20 C          -1.6427  -16.2382   21.5175 C.ar    1  UNL1        0.0000
     21 C          -2.7804  -17.2121   21.4337 C.ar    1  UNL1        0.0000
     22 S         -13.4187  -18.2559   23.7369 S.O2    1  UNL1        0.0054
     23 O         -14.3606  -17.9711   22.6048 O.2     1  UNL1       -0.1689
     24 O         -12.4768  -18.5407   24.8690 O.2     1  UNL1       -0.1689
     25 C         -14.3407  -18.5300   26.1504 C.3     1  UNL1        0.0276
     26 C         -14.5648  -18.2049   24.7033 C.3     1  UNL1        0.1556
@<TRIPOS>BOND
     1    25    26    1
     2    26    22    1
     3    22    23    2
     4    22    24    2
     5    22     1    1
     6     1     2    2
     7     2     3    1
     8     3     4    2
     9     4     5    1
    10     5     6    2
    11     6    10    1
    12    10    11   ar
    13    11    12   ar
    14    12    13   ar
    15    13    14   ar
    16    14    16    1
    17    16    17   ar
    18    17    18   ar
    19    18    19   ar
    20    19    20   ar
    21    20    21   ar
    22    14    15   ar
    23     6     7    1
    24     7     8    2
    25     8     9    1
    26     9     1    1
    27     8     4    1
    28    15    10   ar
    29    21    16   ar
@<TRIPOS>MOLECULE
*****
 26 29 0 0 0
SMALL
GASTEIGER

@<TRIPOS>ATOM
      1 C          -1.7368  -18.2232   20.7550 C.2     1  UNL1        0.0919
      2 C          -1.8828  -18.8057   22.1295 C.2     1  UNL1        0.0183
      3 C          -3.2312  -19.2442   22.6190 C.2     1  UNL1        0.0511
      4 C          -4.4336  -19.1001   21.7339 C.2     1  UNL1        0.2322
      5 N          -5.8794  -19.4417   21.9415 N.2     1  UNL1       -0.0308
      6 C          -6.6270  -19.0703   20.6952 C.2     1  UNL1        0.3767
      7 N          -5.6433  -18.4991   19.7174 N.2     1  UNL1       -0.0346
      8 C          -4.2877  -18.5176   20.3594 C.2     1  UNL1        0.2191
      9 C          -2.9393  -18.0791   19.8700 C.3     1  UNL1        0.1226
     10 C          -8.0998  -19.2403   20.4669 C.ar    1  UNL1        0.1075
     11 C          -8.6021  -19.7207   19.1376 C.ar    1  UNL1        0.1065
     12 N         -10.0748  -19.8906   18.9092 N.ar    1  UNL1       -0.2421
     13 C         -11.0452  -19.5802   20.0101 C.ar    1  UNL1        0.0988
     14 C         -10.5429  -19.0998   21.3393 C.ar    1  UNL1        0.0194
     15 C          -9.0702  -18.9299   21.5677 C.ar    1  UNL1        0.0108
     16 C         -11.5133  -18.7894   22.4402 C.ar    1  UNL1        0.0015
     17 C         -12.7662  -18.0209   22.1410 C.ar    1  UNL1        0.0000
     18 C         -13.7366  -17.7105   23.2419 C.ar    1  UNL1        0.0000
     19 C         -13.4541  -18.1686   24.6420 C.ar    1  UNL1        0.0000
     20 C         -12.2012  -18.9371   24.9412 C.ar    1  UNL1        0.0000
     21 C         -11.2308  -19.2475   23.8404 C.ar    1  UNL1        0.0000
     22 S          -0.3884  -17.7848   20.2655 S.O2    1  UNL1        0.0054
     23 O          -0.6743  -16.3874   20.7298 O.2     1  UNL1       -0.1689
     24 O          -0.1026  -19.1821   19.8011 O.2     1  UNL1       -0.1689
     25 C           2.1482  -17.4158   20.6887 C.3     1  UNL1        0.0276
     26 C           0.9599  -17.3463   19.7760 C.3     1  UNL1        0.1556
@<TRIPOS>BOND
     1    25    26    1
     2    26    22    1
     3    22    23    2
     4    22    24    2
     5    22     1    1
     6     1     2    2
     7     2     3    1
     8     3     4    2
     9     4     5    1
    10     5     6    2
    11     6    10    1
    12    10    11   ar
    13    11    12   ar
    14    12    13   ar
    15    13    14   ar
    16    14    16    1
    17    16    17   ar
    18    17    18   ar
    19    18    19   ar
    20    19    20   ar
    21    20    21   ar
    22    14    15   ar
    23     6     7    1
    24     7     8    2
    25     8     9    1
    26     9     1    1
    27     8     4    1
    28    15    10   ar
    29    21    16   ar
@<TRIPOS>MOLECULE
*****
 26 29 0 0 0
SMALL
GASTEIGER

@<TRIPOS>ATOM
      1 C           7.3795   -5.6263   26.9106 C.2     1  UNL1        0.0919
      2 C           8.0914   -6.6937   26.1336 C.2     1  UNL1        0.0183
      3 C           8.1850   -6.5977   24.6396 C.2     1  UNL1        0.0511
      4 C           7.5668   -5.4342   23.9226 C.2     1  UNL1        0.2322
      5 N           7.4987   -5.0724   22.4685 N.2     1  UNL1       -0.0308
      6 C           6.7448   -3.7814   22.3468 C.2     1  UNL1        0.3767
      7 N           6.3469   -3.3452   23.7257 N.2     1  UNL1       -0.0346
      8 C           6.8549   -4.3668   24.6997 C.2     1  UNL1        0.2191
      9 C           6.7613   -4.4628   26.1936 C.3     1  UNL1        0.1226
     10 C           6.4419   -3.0542   21.0703 C.ar    1  UNL1        0.1075
     11 C           7.4431   -3.0510   19.9533 C.ar    1  UNL1        0.1065
     12 N           7.1403   -2.3239   18.6768 N.ar    1  UNL1       -0.2421
     13 C           5.8363   -1.5999   18.5173 C.ar    1  UNL1        0.0988
     14 C           4.8351   -1.6031   19.6342 C.ar    1  UNL1        0.0194
     15 C           5.1379   -2.3302   20.9107 C.ar    1  UNL1        0.0108
     16 C           3.5311   -0.8790   19.4747 C.ar    1  UNL1        0.0015
     17 C           3.4006    0.2156   18.4575 C.ar    1  UNL1        0.0000
     18 C           2.0967    0.9396   18.2980 C.ar    1  UNL1        0.0000
     19 C           0.9232    0.5689   19.1556 C.ar    1  UNL1        0.0000
     20 C           1.0537   -0.5258   20.1728 C.ar    1  UNL1        0.0000
     21 C           2.3576   -1.2497   20.3323 C.ar    1  UNL1        0.0000
     22 S           7.2858   -5.7223   28.4046 S.O2    1  UNL1        0.0054
     23 O           5.8049   -5.4974   28.3262 O.2     1  UNL1       -0.1689
     24 O           8.7668   -5.9473   28.4830 O.2     1  UNL1       -0.1689
     25 C           6.8859   -4.5953   30.7110 C.3     1  UNL1        0.0276
     26 C           7.1922   -5.8184   29.8986 C.3     1  UNL1        0.1556
@<TRIPOS>BOND
     1    25    26    1
     2    26    22    1
     3    22    23    2
     4    22    24    2
     5    22     1    1
     6     1     2    2
     7     2     3    1
     8     3     4    2
     9     4     5    1
    10     5     6    2
    11     6    10    1
    12    10    11   ar
    13    11    12   ar
    14    12    13   ar
    15    13    14   ar
    16    14    16    1
    17    16    17   ar
    18    17    18   ar
    19    18    19   ar
    20    19    20   ar
    21    20    21   ar
    22    14    15   ar
    23     6     7    1
    24     7     8    2
    25     8     9    1
    26     9     1    1
    27     8     4    1
    28    15    10   ar
    29    21    16   ar
@<TRIPOS>MOLECULE
*****
 26 29 0 0 0
SMALL
GASTEIGER

@<TRIPOS>ATOM
      1 C           3.1370   -0.8200   19.0604 C.2     1  UNL1        0.0919
      2 C           3.6126    0.3610   18.2673 C.2     1  UNL1        0.0183
      3 C           2.8185    1.6336   18.2677 C.2     1  UNL1        0.0511
      4 C           1.5489    1.7252   19.0611 C.2     1  UNL1        0.2322
      5 N           0.5627    2.8392   19.2519 N.2     1  UNL1       -0.0308
      6 C          -0.5225    2.3467   20.1629 C.2     1  UNL1        0.3767
      7 N          -0.2069    0.9283   20.5352 N.2     1  UNL1       -0.0346
      8 C           1.0733    0.5442   19.8542 C.2     1  UNL1        0.2191
      9 C           1.8673   -0.7284   19.8539 C.3     1  UNL1        0.1226
     10 C          -1.7140    3.1343   20.6212 C.ar    1  UNL1        0.1075
     11 C          -2.5734    3.8460   19.6187 C.ar    1  UNL1        0.1065
     12 N          -3.7648    4.6336   20.0769 N.ar    1  UNL1       -0.2421
     13 C          -4.0969    4.7096   21.5376 C.ar    1  UNL1        0.0988
     14 C          -3.2376    3.9979   22.5402 C.ar    1  UNL1        0.0194
     15 C          -2.0461    3.2103   22.0820 C.ar    1  UNL1        0.0108
     16 C          -3.5698    4.0740   24.0010 C.ar    1  UNL1        0.0015
     17 C          -4.8885    4.6365   24.4420 C.ar    1  UNL1        0.0000
     18 C          -5.2206    4.7125   25.9028 C.ar    1  UNL1        0.0000
     19 C          -4.2340    4.2260   26.9226 C.ar    1  UNL1        0.0000
     20 C          -2.9153    3.6634   26.4816 C.ar    1  UNL1        0.0000
     21 C          -2.5832    3.5874   25.0208 C.ar    1  UNL1        0.0000
     22 S           3.9310   -2.0925   19.0601 S.O2    1  UNL1        0.0054
     23 O           4.3489   -1.8314   17.6433 O.2     1  UNL1       -0.1689
     24 O           3.5132   -2.3537   20.4769 O.2     1  UNL1       -0.1689
     25 C           4.0216   -4.6881   18.9901 C.3     1  UNL1        0.0276
     26 C           4.7251   -3.3651   19.0598 C.3     1  UNL1        0.1556
@<TRIPOS>BOND
     1    25    26    1
     2    26    22    1
     3    22    23    2
     4    22    24    2
     5    22     1    1
     6     1     2    2
     7     2     3    1
     8     3     4    2
     9     4     5    1
    10     5     6    2
    11     6    10    1
    12    10    11   ar
    13    11    12   ar
    14    12    13   ar
    15    13    14   ar
    16    14    16    1
    17    16    17   ar
    18    17    18   ar
    19    18    19   ar
    20    19    20   ar
    21    20    21   ar
    22    14    15   ar
    23     6     7    1
    24     7     8    2
    25     8     9    1
    26     9     1    1
    27     8     4    1
    28    15    10   ar
    29    21    16   ar
@<TRIPOS>MOLECULE
*****
 26 29 0 0 0
SMALL
GASTEIGER

@<TRIPOS>ATOM
      1 C         -11.3070   -4.5694   18.9733 C.2     1  UNL1        0.0919
      2 C         -10.7214   -3.2728   18.4980 C.2     1  UNL1        0.0183
      3 C         -11.5588   -2.0283   18.4946 C.2     1  UNL1        0.0511
      4 C         -12.9817   -2.0803   18.9664 C.2     1  UNL1        0.2322
      5 N         -14.0418   -1.0249   19.0767 N.2     1  UNL1       -0.0308
      6 C         -15.2826   -1.6693   19.6201 C.2     1  UNL1        0.3767
      7 N         -14.9893   -3.1229   19.8456 N.2     1  UNL1       -0.0346
      8 C         -13.5672   -3.3770   19.4416 C.2     1  UNL1        0.2191
      9 C         -12.7299   -4.6215   19.4451 C.3     1  UNL1        0.1226
     10 C         -16.5876   -0.9808   19.8905 C.ar    1  UNL1        0.1075
     11 C         -17.8688   -1.5783   19.3890 C.ar    1  UNL1        0.1065
     12 N         -19.1738   -0.8899   19.6594 N.ar    1  UNL1       -0.2421
     13 C         -19.1975    0.3960   20.4312 C.ar    1  UNL1        0.0988
     14 C         -17.9163    0.9935   20.9327 C.ar    1  UNL1        0.0194
     15 C         -16.6114    0.3051   20.6624 C.ar    1  UNL1        0.0108
     16 C         -17.9401    2.2795   21.7046 C.ar    1  UNL1        0.0015
     17 C         -18.6074    3.4907   21.1236 C.ar    1  UNL1        0.0000
     18 C         -18.6312    4.7766   21.8955 C.ar    1  UNL1        0.0000
     19 C         -17.9876    4.8513   23.2484 C.ar    1  UNL1        0.0000
     20 C         -17.3203    3.6401   23.8294 C.ar    1  UNL1        0.0000
     21 C         -17.2966    2.3542   23.0575 C.ar    1  UNL1        0.0000
     22 S         -10.4696   -5.8139   18.9767 S.O2    1  UNL1        0.0054
     23 O         -11.6408   -6.6033   18.4716 O.2     1  UNL1       -0.1689
     24 O          -9.2984   -5.0245   19.4818 O.2     1  UNL1       -0.1689
     25 C          -9.8979   -8.1439   17.9797 C.3     1  UNL1        0.0276
     26 C          -9.6323   -7.0584   18.9802 C.3     1  UNL1        0.1556
@<TRIPOS>BOND
     1    25    26    1
     2    26    22    1
     3    22    23    2
     4    22    24    2
     5    22     1    1
     6     1     2    2
     7     2     3    1
     8     3     4    2
     9     4     5    1
    10     5     6    2
    11     6    10    1
    12    10    11   ar
    13    11    12   ar
    14    12    13   ar
    15    13    14   ar
    16    14    16    1
    17    16    17   ar
    18    17    18   ar
    19    18    19   ar
    20    19    20   ar
    21    20    21   ar
    22    14    15   ar
    23     6     7    1
    24     7     8    2
    25     8     9    1
    26     9     1    1
    27     8     4    1
    28    15    10   ar
    29    21    16   ar
@<TRIPOS>MOLECULE
*****
 26 29 0 0 0
SMALL
GASTEIGER

@<TRIPOS>ATOM
      1 C           4.0935   -0.5659   29.7811 C.2     1  UNL1        0.0919
      2 C           5.3965   -1.2952   29.9231 C.2     1  UNL1        0.0183
      3 C           6.0162   -1.9627   28.7312 C.2     1  UNL1        0.0511
      4 C           5.3328   -1.9008   27.3974 C.2     1  UNL1        0.2322
      5 N           5.7005   -2.4587   26.0544 N.2     1  UNL1       -0.0308
      6 C           4.6247   -2.0742   25.0824 C.2     1  UNL1        0.3767
      7 N           3.5921   -1.2787   25.8246 N.2     1  UNL1       -0.0346
      8 C           4.0298   -1.1715   27.2554 C.2     1  UNL1        0.2191
      9 C           3.4101   -0.5040   28.4472 C.3     1  UNL1        0.1226
     10 C           4.5880   -2.4239   23.6241 C.ar    1  UNL1        0.1075
     11 C           5.3419   -3.6187   23.1202 C.ar    1  UNL1        0.1065
     12 N           5.3052   -3.9684   21.6620 N.ar    1  UNL1       -0.2421
     13 C           4.5146   -3.1233   20.7078 C.ar    1  UNL1        0.0988
     14 C           3.7606   -1.9284   21.2117 C.ar    1  UNL1        0.0194
     15 C           3.7974   -1.5787   22.6699 C.ar    1  UNL1        0.0108
     16 C           2.9700   -1.0833   20.2574 C.ar    1  UNL1        0.0015
     17 C           1.6007   -0.6035   20.6379 C.ar    1  UNL1        0.0000
     18 C           0.8101    0.2416   19.6836 C.ar    1  UNL1        0.0000
     19 C           1.3889    0.6070   18.3488 C.ar    1  UNL1        0.0000
     20 C           2.7582    0.1272   17.9683 C.ar    1  UNL1        0.0000
     21 C           3.5487   -0.7179   18.9226 C.ar    1  UNL1        0.0000
     22 S           3.4738    0.1016   30.9729 S.O2    1  UNL1        0.0054
     23 O           2.3899   -0.9351   30.9899 O.2     1  UNL1       -0.1689
     24 O           4.5577    1.1383   30.9559 O.2     1  UNL1       -0.1689
     25 C           1.6873    1.6941   31.9839 C.3     1  UNL1        0.0276
     26 C           2.8541    0.7691   32.1647 C.3     1  UNL1        0.1556
@<TRIPOS>BOND
     1    25    26    1
     2    26    22    1
     3    22    23    2
     4    22    24    2
     5    22     1    1
     6     1     2    2
     7     2     3    1
     8     3     4    2
     9     4     5    1
    10     5     6    2
    11     6    10    1
    12    10    11   ar
    13    11    12   ar
    14    12    13   ar
    15    13    14   ar
    16    14    16    1
    17    16    17   ar
    18    17    18   ar
    19    18    19   ar
    20    19    20   ar
    21    20    21   ar
    22    14    15   ar
    23     6     7    1
    24     7     8    2
    25     8     9    1
    26     9     1    1
    27     8     4    1
    28    15    10   ar
    29    21    16   ar
@<TRIPOS>MOLECULE
*****
 26 29 0 0 0
SMALL
GASTEIGER

@<TRIPOS>ATOM
      1 C           3.1870   -1.2062   19.4236 C.2     1  UNL1        0.0919
      2 C           3.3497   -0.2267   18.2992 C.2     1  UNL1        0.0183
      3 C           2.4976    1.0067   18.2498 C.2     1  UNL1        0.0511
      4 C           1.4827    1.2607   19.3246 C.2     1  UNL1        0.2322
      5 N           0.5078    2.3801   19.5403 N.2     1  UNL1       -0.0308
      6 C          -0.2575    2.0925   20.7979 C.2     1  UNL1        0.3767
      7 N           0.2444    0.7954   21.3596 N.2     1  UNL1       -0.0346
      8 C           1.3199    0.2813   20.4490 C.2     1  UNL1        0.2191
      9 C           2.1721   -0.9522   20.4984 C.3     1  UNL1        0.1226
     10 C          -1.3355    2.9513   21.3900 C.ar    1  UNL1        0.1075
     11 C          -1.1430    3.5704   22.7426 C.ar    1  UNL1        0.1065
     12 N          -2.2209    4.4292   23.3347 N.ar    1  UNL1       -0.2421
     13 C          -3.4913    4.6689   22.5740 C.ar    1  UNL1        0.0988
     14 C          -3.6838    4.0498   21.2214 C.ar    1  UNL1        0.0194
     15 C          -2.6059    3.1910   20.6293 C.ar    1  UNL1        0.0108
     16 C          -4.9543    4.2896   20.4607 C.ar    1  UNL1        0.0015
     17 C          -5.9811    5.2424   20.9971 C.ar    1  UNL1        0.0000
     18 C          -7.2515    5.4821   20.2365 C.ar    1  UNL1        0.0000
     19 C          -7.4951    4.7690   18.9395 C.ar    1  UNL1        0.0000
     20 C          -6.4682    3.8162   18.4031 C.ar    1  UNL1        0.0000
     21 C          -5.1979    3.5765   19.1638 C.ar    1  UNL1        0.0000
     22 S           4.0392   -2.4396   19.4730 S.O2    1  UNL1        0.0054
     23 O           4.3003   -2.3182   18.0009 O.2     1  UNL1       -0.1689
     24 O           3.7780   -2.5610   20.9451 O.2     1  UNL1       -0.1689
     25 C           4.4028   -4.9476   18.9006 C.3     1  UNL1        0.0276
     26 C           4.8913   -3.6731   19.5225 C.3     1  UNL1        0.1556
@<TRIPOS>BOND
     1    25    26    1
     2    26    22    1
     3    22    23    2
     4    22    24    2
     5    22     1    1
     6     1     2    2
     7     2     3    1
     8     3     4    2
     9     4     5    1
    10     5     6    2
    11     6    10    1
    12    10    11   ar
    13    11    12   ar
    14    12    13   ar
    15    13    14   ar
    16    14    16    1
    17    16    17   ar
    18    17    18   ar
    19    18    19   ar
    20    19    20   ar
    21    20    21   ar
    22    14    15   ar
    23     6     7    1
    24     7     8    2
    25     8     9    1
    26     9     1    1
    27     8     4    1
    28    15    10   ar
    29    21    16   ar
@<TRIPOS>MOLECULE
*****
 26 29 0 0 0
SMALL
GASTEIGER

@<TRIPOS>ATOM
      1 C           1.5881    0.6644   29.2814 C.2     1  UNL1        0.0919
      2 C           0.1351    1.0270   29.3663 C.2     1  UNL1        0.0183
      3 C          -0.6338    1.3410   28.1173 C.2     1  UNL1        0.0511
      4 C           0.0503    1.2923   26.7833 C.2     1  UNL1        0.2322
      5 N          -0.4453    1.5500   25.3912 N.2     1  UNL1       -0.0308
      6 C           0.7014    1.3466   24.4458 C.2     1  UNL1        0.3767
      7 N           1.9057    0.9632   25.2536 N.2     1  UNL1       -0.0346
      8 C           1.5033    0.9296   26.6983 C.2     1  UNL1        0.2191
      9 C           2.2722    0.6156   27.9474 C.3     1  UNL1        0.1226
     10 C           0.6524    1.4998   22.9544 C.ar    1  UNL1        0.1075
     11 C          -0.2596    2.5166   22.3345 C.ar    1  UNL1        0.1065
     12 N          -0.3087    2.6698   20.8431 N.ar    1  UNL1       -0.2421
     13 C           0.5543    1.8062   19.9718 C.ar    1  UNL1        0.0988
     14 C           1.4664    0.7894   20.5917 C.ar    1  UNL1        0.0194
     15 C           1.5154    0.6362   22.0830 C.ar    1  UNL1        0.0108
     16 C           2.3294   -0.0743   19.7202 C.ar    1  UNL1        0.0015
     17 C           2.7165    0.3938   18.3487 C.ar    1  UNL1        0.0000
     18 C           3.5795   -0.4698   17.4773 C.ar    1  UNL1        0.0000
     19 C           4.0553   -1.8015   17.9774 C.ar    1  UNL1        0.0000
     20 C           3.6682   -2.2696   19.3489 C.ar    1  UNL1        0.0000
     21 C           2.8052   -1.4060   20.2203 C.ar    1  UNL1        0.0000
     22 S           2.3571    0.3504   30.5305 S.O2    1  UNL1        0.0054
     23 O           1.3733    1.1461   31.3361 O.2     1  UNL1       -0.1689
     24 O           3.3408   -0.4454   29.7248 O.2     1  UNL1       -0.1689
     25 C           3.9479   -1.2158   31.8595 C.3     1  UNL1        0.0276
     26 C           3.1260    0.0364   31.7795 C.3     1  UNL1        0.1556
@<TRIPOS>BOND
     1    25    26    1
     2    26    22    1
     3    22    23    2
     4    22    24    2
     5    22     1    1
     6     1     2    2
     7     2     3    1
     8     3     4    2
     9     4     5    1
    10     5     6    2
    11     6    10    1
    12    10    11   ar
    13    11    12   ar
    14    12    13   ar
    15    13    14   ar
    16    14    16    1
    17    16    17   ar
    18    17    18   ar
    19    18    19   ar
    20    19    20   ar
    21    20    21   ar
    22    14    15   ar
    23     6     7    1
    24     7     8    2
    25     8     9    1
    26     9     1    1
    27     8     4    1
    28    15    10   ar
    29    21    16   ar
@<TRIPOS>MOLECULE
*****
 26 29 0 0 0
SMALL
GASTEIGER

@<TRIPOS>ATOM
      1 C           3.6903   -1.7178   20.7190 C.2     1  UNL1        0.0919
      2 C           4.4944   -2.5155   19.7357 C.2     1  UNL1        0.0183
      3 C           5.5253   -3.4893   20.2245 C.2     1  UNL1        0.0511
      4 C           5.7520   -3.6655   21.6967 C.2     1  UNL1        0.2322
      5 N           6.6911   -4.5434   22.4697 N.2     1  UNL1       -0.0308
      6 C           6.4673   -4.2882   23.9308 C.2     1  UNL1        0.3767
      7 N           5.3900   -3.2527   24.0609 N.2     1  UNL1       -0.0346
      8 C           4.9480   -2.8677   22.6801 C.2     1  UNL1        0.2191
      9 C           3.9171   -1.8939   22.1913 C.3     1  UNL1        0.1226
     10 C           7.1935   -4.9522   25.0631 C.ar    1  UNL1        0.1075
     11 C           8.2430   -5.9852   24.7779 C.ar    1  UNL1        0.1065
     12 N           8.9691   -6.6492   25.9100 N.ar    1  UNL1       -0.2421
     13 C           8.6457   -6.2801   27.3275 C.ar    1  UNL1        0.0988
     14 C           7.5961   -5.2471   27.6127 C.ar    1  UNL1        0.0194
     15 C           6.8700   -4.5832   26.4805 C.ar    1  UNL1        0.0108
     16 C           7.2727   -4.8781   29.0302 C.ar    1  UNL1        0.0015
     17 C           7.4471   -5.8871   30.1264 C.ar    1  UNL1        0.0000
     18 C           7.1237   -5.5180   31.5438 C.ar    1  UNL1        0.0000
     19 C           6.6259   -4.1400   31.8651 C.ar    1  UNL1        0.0000
     20 C           6.4515   -3.1310   30.7690 C.ar    1  UNL1        0.0000
     21 C           6.7749   -3.5001   29.3516 C.ar    1  UNL1        0.0000
     22 S           2.6595   -0.7440   20.2302 S.O2    1  UNL1        0.0054
     23 O           2.9793   -1.1169   18.8129 O.2     1  UNL1       -0.1689
     24 O           2.3396   -0.3711   21.6474 O.2     1  UNL1       -0.1689
     25 C           0.2743    0.2744   20.3846 C.3     1  UNL1        0.0276
     26 C           1.6286    0.2299   19.7413 C.3     1  UNL1        0.1556
@<TRIPOS>BOND
     1    25    26    1
     2    26    22    1
     3    22    23    2
     4    22    24    2
     5    22     1    1
     6     1     2    2
     7     2     3    1
     8     3     4    2
     9     4     5    1
    10     5     6    2
    11     6    10    1
    12    10    11   ar
    13    11    12   ar
    14    12    13   ar
    15    13    14   ar
    16    14    16    1
    17    16    17   ar
    18    17    18   ar
    19    18    19   ar
    20    19    20   ar
    21    20    21   ar
    22    14    15   ar
    23     6     7    1
    24     7     8    2
    25     8     9    1
    26     9     1    1
    27     8     4    1
    28    15    10   ar
    29    21    16   ar
