@<TRIPOS>MOLECULE
*****
 39 43 0 0 0
SMALL
GASTEIGER

@<TRIPOS>ATOM
      1 C         -11.9696   -5.0417   18.6097 C.ar    1  UNL1        0.0951
      2 C         -10.5768   -5.5823   18.7436 C.ar    1  UNL1        0.1454
      3 F          -9.5150   -4.7615   19.4136 F       1  UNL1       -0.2040
      4 C         -10.2457   -6.9435   18.2075 C.ar    1  UNL1        0.0312
      5 C         -11.3075   -7.7643   17.5374 C.ar    1  UNL1        0.0204
      6 C         -12.7003   -7.2238   17.4035 C.ar    1  UNL1        0.0924
      7 C         -13.0313   -5.8625   17.9396 C.ar    1  UNL1        0.1598
      8 F         -14.4241   -5.3221   17.8057 F       1  UNL1       -0.2026
      9 C         -12.3006   -3.6805   19.1458 C.2     1  UNL1        0.2036
     10 O         -12.9628   -3.5425   20.4846 O.2     1  UNL1       -0.2863
     11 C         -14.6462    0.5633   18.6936 C.2     1  UNL1        0.0322
     12 C         -13.9477    1.5193   17.7728 C.2     1  UNL1        0.2321
     13 N         -12.6648    1.1177   17.1074 N.2     1  UNL1       -0.0311
     14 C         -12.0804   -0.2399   17.3628 C.2     1  UNL1        0.3721
     15 N         -10.8391   -0.9105   16.8531 N.2     1  UNL1       -0.0307
     16 C         -10.7705   -2.2809   17.4590 C.2     1  UNL1        0.2390
     17 C         -11.9694   -2.4574   18.3431 C.2     1  UNL1        0.0896
     18 C         -12.7789   -1.1960   18.2837 C.2     1  UNL1        0.0774
     19 C         -14.0618   -0.7944   18.9491 C.3     1  UNL1        0.0647
     20 C         -18.4951    1.7679   20.6900 C.ar    1  UNL1        0.3201
     21 N         -17.7904    2.7284   19.7784 N.ar    1  UNL1       -0.1927
     22 C         -16.5074    2.3268   19.1130 C.ar    1  UNL1        0.1050
     23 C         -15.9292    0.9648   19.3591 C.ar    1  UNL1        0.0386
     24 C         -16.6339    0.0043   20.2706 C.ar    1  UNL1        0.1050
     25 N         -17.9169    0.4058   20.9360 N.ar    1  UNL1       -0.1927
     26 C         -19.8246    2.3571   22.8428 C.3     1  UNL1        0.2559
     27 O         -19.7781    2.1694   21.3554 O.3     1  UNL1       -0.4426
     28 N         -13.7621   -8.0445   16.7335 N.pl3   1  UNL1       -0.2127
     29 H         -13.6168   -8.3885   15.8225 H       1  UNL1        0.1738
     30 S         -15.0453   -8.3412   17.4515 S.O2    1  UNL1        0.0758
     31 O         -14.2788   -9.0491   18.5290 O.2     1  UNL1       -0.1499
     32 O         -15.8119   -7.6333   16.3738 O.2     1  UNL1       -0.1499
     33 C         -16.3285   -8.6379   18.1694 C.ar    1  UNL1        0.1524
     34 C         -17.1995   -9.7701   17.7117 C.ar    1  UNL1        0.0225
     35 C         -18.4827  -10.0667   18.4296 C.ar    1  UNL1        0.0015
     36 C         -18.8949   -9.2312   19.6051 C.ar    1  UNL1        0.0024
     37 C         -18.0239   -8.0990   20.0628 C.ar    1  UNL1        0.0310
     38 C         -16.7407   -7.8023   19.3449 C.ar    1  UNL1        0.1589
     39 F         -15.8698   -6.6701   19.8026 F       1  UNL1       -0.2027
@<TRIPOS>BOND
     1    26    27    1
     2    27    20    1
     3    20    21   ar
     4    21    22   ar
     5    22    23   ar
     6    23    11    1
     7    11    12    2
     8    12    13    1
     9    13    14    2
    10    14    15    1
    11    15    16    2
    12    16    17    1
    13    17     9    1
    14     9    10    2
    15     9     1    1
    16     1     2   ar
    17     2     3    1
    18     2     4   ar
    19     4     5   ar
    20     5     6   ar
    21     6    28    1
    22    28    30    1
    23    30    31    2
    24    30    32    2
    25    30    33    1
    26    33    34   ar
    27    34    35   ar
    28    35    36   ar
    29    36    37   ar
    30    37    38   ar
    31    38    39    1
    32     6     7   ar
    33     7     8    1
    34    17    18    2
    35    18    19    1
    36    23    24   ar
    37    24    25   ar
    38    25    20   ar
    39    19    11    1
    40    18    14    1
    41     7     1   ar
    42    38    33   ar
    43    28    29    1
@<TRIPOS>MOLECULE
*****
 39 43 0 0 0
SMALL
GASTEIGER

@<TRIPOS>ATOM
      1 C           5.1780   -3.3765   22.1148 C.ar    1  UNL1        0.0951
      2 C           4.2939   -2.4489   22.8945 C.ar    1  UNL1        0.1454
      3 F           3.0394   -1.9098   22.2736 F       1  UNL1       -0.2040
      4 C           4.6644   -2.0603   24.2951 C.ar    1  UNL1        0.0312
      5 C           5.9189   -2.5993   24.9161 C.ar    1  UNL1        0.0204
      6 C           6.8030   -3.5269   24.1364 C.ar    1  UNL1        0.0924
      7 C           6.4325   -3.9155   22.7357 C.ar    1  UNL1        0.1598
      8 F           7.3167   -4.8431   21.9561 F       1  UNL1       -0.2026
      9 C           4.8075   -3.7650   20.7141 C.2     1  UNL1        0.2036
     10 O           3.9902   -4.9987   20.4695 O.2     1  UNL1       -0.2863
     11 C           2.8969    0.2878   18.8062 C.2     1  UNL1        0.0322
     12 C           3.6815    0.8074   17.6382 C.2     1  UNL1        0.2321
     13 N           4.9131    0.0837   17.1805 N.2     1  UNL1       -0.0311
     14 C           5.3599   -1.1596   17.8908 C.2     1  UNL1        0.3721
     15 N           6.5241   -2.0791   17.6684 N.2     1  UNL1       -0.0307
     16 C           6.4588   -3.1670   18.6990 C.2     1  UNL1        0.2390
     17 C           5.2544   -2.9199   19.5583 C.2     1  UNL1        0.0896
     18 C           4.5753   -1.6793   19.0587 C.2     1  UNL1        0.0774
     19 C           3.3437   -0.9556   19.5165 C.3     1  UNL1        0.0647
     20 C          -0.7979    2.4588   20.1795 C.ar    1  UNL1        0.3201
     21 N          -0.4030    1.1656   20.8288 N.ar    1  UNL1       -0.1927
     22 C           0.8286    0.4419   20.3710 C.ar    1  UNL1        0.1050
     23 C           1.6653    1.0114   19.2640 C.ar    1  UNL1        0.0386
     24 C           1.2704    2.3047   18.6147 C.ar    1  UNL1        0.1050
     25 N           0.0388    3.0284   19.0724 N.ar    1  UNL1       -0.1927
     26 C          -2.9824    3.7528   19.6291 C.3     1  UNL1        0.2559
     27 O          -2.0294    3.1825   20.6372 O.3     1  UNL1       -0.4426
     28 N           8.0575   -4.0659   24.7573 N.pl3   1  UNL1       -0.2127
     29 H           8.8979   -4.0707   24.2445 H       1  UNL1        0.1738
     30 S           8.0316   -4.5977   26.1597 S.O2    1  UNL1        0.0758
     31 O           8.8625   -3.4352   26.6159 O.2     1  UNL1       -0.1499
     32 O           7.2007   -5.7603   25.7035 O.2     1  UNL1       -0.1499
     33 C           8.0057   -5.1295   27.5620 C.ar    1  UNL1        0.1524
     34 C           9.1235   -5.9998   28.0549 C.ar    1  UNL1        0.0225
     35 C           9.0976   -6.5316   29.4573 C.ar    1  UNL1        0.0015
     36 C           7.9538   -6.1930   30.3667 C.ar    1  UNL1        0.0024
     37 C           6.8359   -5.3227   29.8738 C.ar    1  UNL1        0.0310
     38 C           6.8619   -4.7909   28.4715 C.ar    1  UNL1        0.1589
     39 F           5.7440   -3.9206   27.9787 F       1  UNL1       -0.2027
@<TRIPOS>BOND
     1    26    27    1
     2    27    20    1
     3    20    21   ar
     4    21    22   ar
     5    22    23   ar
     6    23    11    1
     7    11    12    2
     8    12    13    1
     9    13    14    2
    10    14    15    1
    11    15    16    2
    12    16    17    1
    13    17     9    1
    14     9    10    2
    15     9     1    1
    16     1     2   ar
    17     2     3    1
    18     2     4   ar
    19     4     5   ar
    20     5     6   ar
    21     6    28    1
    22    28    30    1
    23    30    31    2
    24    30    32    2
    25    30    33    1
    26    33    34   ar
    27    34    35   ar
    28    35    36   ar
    29    36    37   ar
    30    37    38   ar
    31    38    39    1
    32     6     7   ar
    33     7     8    1
    34    17    18    2
    35    18    19    1
    36    23    24   ar
    37    24    25   ar
    38    25    20   ar
    39    19    11    1
    40    18    14    1
    41     7     1   ar
    42    38    33   ar
    43    28    29    1
@<TRIPOS>MOLECULE
*****
 39 43 0 0 0
SMALL
GASTEIGER

@<TRIPOS>ATOM
      1 C         -16.5522   -1.3408   18.9499 C.ar    1  UNL1        0.0951
      2 C         -17.5784   -1.3180   17.8561 C.ar    1  UNL1        0.1454
      3 F         -18.1064   -0.0083   17.3502 F       1  UNL1       -0.2040
      4 C         -18.0764   -2.6050   17.2680 C.ar    1  UNL1        0.0312
      5 C         -17.5484   -3.9146   17.7738 C.ar    1  UNL1        0.0204
      6 C         -16.5223   -3.9374   18.8677 C.ar    1  UNL1        0.0924
      7 C         -16.0242   -2.6505   19.4557 C.ar    1  UNL1        0.1598
      8 F         -14.9981   -2.6734   20.5496 F       1  UNL1       -0.2026
      9 C         -16.0542   -0.0539   19.5380 C.2     1  UNL1        0.2036
     10 O         -16.5880    0.4247   20.8555 O.2     1  UNL1       -0.2863
     11 C         -11.7125   -1.3182   17.7305 C.2     1  UNL1        0.0322
     12 C         -11.0017   -0.1747   17.0693 C.2     1  UNL1        0.2321
     13 N         -11.6438    1.1801   17.0207 N.2     1  UNL1       -0.0311
     14 C         -12.9966    1.3913   17.6333 C.2     1  UNL1        0.3721
     15 N         -13.8724    2.6046   17.7387 N.2     1  UNL1       -0.0307
     16 C         -15.1244    2.2109   18.4650 C.2     1  UNL1        0.2390
     17 C         -15.0224    0.7543   18.8085 C.2     1  UNL1        0.0896
     18 C         -13.7074    0.2478   18.2945 C.2     1  UNL1        0.0774
     19 C         -13.0653   -1.1070   18.3431 C.3     1  UNL1        0.0647
     20 C          -9.7862   -5.3825   17.8763 C.ar    1  UNL1        0.3201
     21 N         -10.8992   -5.0456   18.8238 N.ar    1  UNL1       -0.1927
     22 C         -11.5413   -3.6908   18.7752 C.ar    1  UNL1        0.1050
     23 C         -11.0704   -2.6730   17.7791 C.ar    1  UNL1        0.0386
     24 C          -9.9573   -3.0098   16.8317 C.ar    1  UNL1        0.1050
     25 N          -9.3152   -4.3646   16.8803 N.ar    1  UNL1       -0.1927
     26 C          -9.4766   -7.6852   19.0387 C.3     1  UNL1        0.2559
     27 O          -9.1441   -6.7372   17.9249 O.3     1  UNL1       -0.4426
     28 N         -15.9942   -5.2471   19.3735 N.pl3   1  UNL1       -0.2127
     29 H         -15.2285   -5.2633   19.9921 H       1  UNL1        0.1738
     30 S         -16.6329   -6.5322   18.9368 S.O2    1  UNL1        0.0758
     31 O         -15.4994   -6.7719   17.9842 O.2     1  UNL1       -0.1499
     32 O         -17.7666   -6.2926   19.8894 O.2     1  UNL1       -0.1499
     33 C         -17.2717   -7.8173   18.5001 C.ar    1  UNL1        0.1524
     34 C         -18.1167   -7.8517   17.2613 C.ar    1  UNL1        0.0225
     35 C         -18.7554   -9.1368   16.8246 C.ar    1  UNL1        0.0015
     36 C         -18.5492  -10.3874   17.6268 C.ar    1  UNL1        0.0024
     37 C         -17.7042  -10.3529   18.8656 C.ar    1  UNL1        0.0310
     38 C         -17.0654   -9.0678   19.3023 C.ar    1  UNL1        0.1589
     39 F         -16.2205   -9.0334   20.5412 F       1  UNL1       -0.2027
@<TRIPOS>BOND
     1    26    27    1
     2    27    20    1
     3    20    21   ar
     4    21    22   ar
     5    22    23   ar
     6    23    11    1
     7    11    12    2
     8    12    13    1
     9    13    14    2
    10    14    15    1
    11    15    16    2
    12    16    17    1
    13    17     9    1
    14     9    10    2
    15     9     1    1
    16     1     2   ar
    17     2     3    1
    18     2     4   ar
    19     4     5   ar
    20     5     6   ar
    21     6    28    1
    22    28    30    1
    23    30    31    2
    24    30    32    2
    25    30    33    1
    26    33    34   ar
    27    34    35   ar
    28    35    36   ar
    29    36    37   ar
    30    37    38   ar
    31    38    39    1
    32     6     7   ar
    33     7     8    1
    34    17    18    2
    35    18    19    1
    36    23    24   ar
    37    24    25   ar
    38    25    20   ar
    39    19    11    1
    40    18    14    1
    41     7     1   ar
    42    38    33   ar
    43    28    29    1
@<TRIPOS>MOLECULE
*****
 39 43 0 0 0
SMALL
GASTEIGER

@<TRIPOS>ATOM
      1 C           5.4090   -3.2413   23.0075 C.ar    1  UNL1        0.0951
      2 C           4.5799   -2.1148   23.5494 C.ar    1  UNL1        0.1454
      3 F           3.5998   -1.4095   22.6597 F       1  UNL1       -0.2040
      4 C           4.7310   -1.6937   24.9812 C.ar    1  UNL1        0.0312
      5 C           5.7112   -2.3991   25.8710 C.ar    1  UNL1        0.0204
      6 C           6.5402   -3.5256   25.3290 C.ar    1  UNL1        0.0924
      7 C           6.3891   -3.9467   23.8973 C.ar    1  UNL1        0.1598
      8 F           7.2182   -5.0732   23.3555 F       1  UNL1       -0.2026
      9 C           5.2578   -3.6624   21.5758 C.2     1  UNL1        0.2036
     10 O           4.2346   -4.6933   21.2013 O.2     1  UNL1       -0.2863
     11 C           4.4649    0.0792   18.5612 C.2     1  UNL1        0.0322
     12 C           5.6270    0.3512   17.6527 C.2     1  UNL1        0.2321
     13 N           6.8614   -0.4966   17.7396 N.2     1  UNL1       -0.0311
     14 C           6.9337   -1.6163   18.7350 C.2     1  UNL1        0.3721
     15 N           8.0104   -2.6126   19.0486 N.2     1  UNL1       -0.0307
     16 C           7.5136   -3.5004   20.1509 C.2     1  UNL1        0.2390
     17 C           6.1300   -3.0527   20.5186 C.2     1  UNL1        0.0896
     18 C           5.7716   -1.8883   19.6436 C.2     1  UNL1        0.0774
     19 C           4.5372   -1.0406   19.5566 C.3     1  UNL1        0.0647
     20 C           0.7616    2.6224   18.3005 C.ar    1  UNL1        0.3201
     21 N           0.6456    1.1269   18.3054 N.ar    1  UNL1       -0.1927
     22 C           1.8801    0.2792   18.3923 C.ar    1  UNL1        0.1050
     23 C           3.2305    0.9269   18.4743 C.ar    1  UNL1        0.0386
     24 C           3.3465    2.4224   18.4695 C.ar    1  UNL1        0.1050
     25 N           2.1121    3.2702   18.3826 N.ar    1  UNL1       -0.1927
     26 C          -0.9792    3.9226   16.8762 C.3     1  UNL1        0.2559
     27 O          -0.4728    3.4702   18.2137 O.3     1  UNL1       -0.4426
     28 N           7.5204   -4.2309   26.2188 N.pl3   1  UNL1       -0.2127
     29 H           8.3143   -4.6646   25.8304 H       1  UNL1        0.1738
     30 S           7.2909   -4.2755   27.7005 S.O2    1  UNL1        0.0758
     31 O           8.4045   -3.2911   27.9026 O.2     1  UNL1       -0.1499
     32 O           6.1773   -5.2599   27.4985 O.2     1  UNL1       -0.1499
     33 C           7.0614   -4.3200   29.1822 C.ar    1  UNL1        0.1524
     34 C           6.5400   -3.1089   29.8971 C.ar    1  UNL1        0.0225
     35 C           6.3104   -3.1535   31.3788 C.ar    1  UNL1        0.0015
     36 C           6.6024   -4.4092   32.1455 C.ar    1  UNL1        0.0024
     37 C           7.1238   -5.6204   31.4306 C.ar    1  UNL1        0.0310
     38 C           7.3533   -5.5758   29.9489 C.ar    1  UNL1        0.1589
     39 F           7.8748   -6.7870   29.2341 F       1  UNL1       -0.2027
@<TRIPOS>BOND
     1    26    27    1
     2    27    20    1
     3    20    21   ar
     4    21    22   ar
     5    22    23   ar
     6    23    11    1
     7    11    12    2
     8    12    13    1
     9    13    14    2
    10    14    15    1
    11    15    16    2
    12    16    17    1
    13    17     9    1
    14     9    10    2
    15     9     1    1
    16     1     2   ar
    17     2     3    1
    18     2     4   ar
    19     4     5   ar
    20     5     6   ar
    21     6    28    1
    22    28    30    1
    23    30    31    2
    24    30    32    2
    25    30    33    1
    26    33    34   ar
    27    34    35   ar
    28    35    36   ar
    29    36    37   ar
    30    37    38   ar
    31    38    39    1
    32     6     7   ar
    33     7     8    1
    34    17    18    2
    35    18    19    1
    36    23    24   ar
    37    24    25   ar
    38    25    20   ar
    39    19    11    1
    40    18    14    1
    41     7     1   ar
    42    38    33   ar
    43    28    29    1
@<TRIPOS>MOLECULE
*****
 39 43 0 0 0
SMALL
GASTEIGER

@<TRIPOS>ATOM
      1 C           7.7734   -5.2382   24.2756 C.ar    1  UNL1        0.0951
      2 C           8.2164   -6.6439   23.9963 C.ar    1  UNL1        0.1454
      3 F           8.9610   -6.9585   22.7328 F       1  UNL1       -0.2040
      4 C           7.9146   -7.7348   24.9806 C.ar    1  UNL1        0.0312
      5 C           7.1699   -7.4202   26.2441 C.ar    1  UNL1        0.0204
      6 C           6.7270   -6.0146   26.5233 C.ar    1  UNL1        0.0924
      7 C           7.0287   -4.9236   25.5391 C.ar    1  UNL1        0.1598
      8 F           6.5857   -3.5180   25.8184 F       1  UNL1       -0.2026
      9 C           8.0751   -4.1473   23.2913 C.2     1  UNL1        0.2036
     10 O           9.3485   -3.3632   23.4079 O.2     1  UNL1       -0.2863
     11 C           3.9899   -1.4964   23.2971 C.2     1  UNL1        0.0322
     12 C           3.3202   -1.4561   21.9556 C.2     1  UNL1        0.2321
     13 N           3.9235   -2.1884   20.7939 N.2     1  UNL1       -0.0311
     14 C           5.1965   -2.9611   20.9737 C.2     1  UNL1        0.3721
     15 N           6.0198   -3.7751   20.0199 N.2     1  UNL1       -0.0307
     16 C           7.1983   -4.3185   20.7720 C.2     1  UNL1        0.2390
     17 C           7.1034   -3.8404   22.1906 C.2     1  UNL1        0.0896
     18 C           5.8662   -3.0015   22.3152 C.2     1  UNL1        0.0774
     19 C           5.2629   -2.2691   23.4769 C.3     1  UNL1        0.0647
     20 C           2.1801    0.7007   26.7825 C.ar    1  UNL1        0.3201
     21 N           1.7473    1.0269   25.3838 N.ar    1  UNL1       -0.1927
     22 C           2.3506    0.2945   24.2220 C.ar    1  UNL1        0.1050
     23 C           3.3866   -0.7640   24.4589 C.ar    1  UNL1        0.0386
     24 C           3.8194   -1.0902   25.8576 C.ar    1  UNL1        0.1050
     25 N           3.2162   -0.3579   27.0194 N.ar    1  UNL1       -0.1927
     26 C           0.5001    2.4510   27.7117 C.3     1  UNL1        0.2559
     27 O           1.5769    1.4330   27.9443 O.3     1  UNL1       -0.4426
     28 N           5.9823   -5.7000   27.7868 N.pl3   1  UNL1       -0.2127
     29 H           5.0464   -5.9871   27.8911 H       1  UNL1        0.1738
     30 S           6.6636   -4.9478   28.8914 S.O2    1  UNL1        0.0758
     31 O           5.9433   -3.6968   28.4839 O.2     1  UNL1       -0.1499
     32 O           7.3840   -6.1988   29.2990 O.2     1  UNL1       -0.1499
     33 C           7.3450   -4.1957   29.9960 C.ar    1  UNL1        0.1524
     34 C           6.5904   -3.8520   31.2460 C.ar    1  UNL1        0.0225
     35 C           7.2718   -3.0999   32.3505 C.ar    1  UNL1        0.0015
     36 C           8.7077   -2.6915   32.2052 C.ar    1  UNL1        0.0024
     37 C           9.4623   -3.0352   30.9552 C.ar    1  UNL1        0.0310
     38 C           8.7810   -3.7873   29.8506 C.ar    1  UNL1        0.1589
     39 F           9.5356   -4.1309   28.6007 F       1  UNL1       -0.2027
@<TRIPOS>BOND
     1    26    27    1
     2    27    20    1
     3    20    21   ar
     4    21    22   ar
     5    22    23   ar
     6    23    11    1
     7    11    12    2
     8    12    13    1
     9    13    14    2
    10    14    15    1
    11    15    16    2
    12    16    17    1
    13    17     9    1
    14     9    10    2
    15     9     1    1
    16     1     2   ar
    17     2     3    1
    18     2     4   ar
    19     4     5   ar
    20     5     6   ar
    21     6    28    1
    22    28    30    1
    23    30    31    2
    24    30    32    2
    25    30    33    1
    26    33    34   ar
    27    34    35   ar
    28    35    36   ar
    29    36    37   ar
    30    37    38   ar
    31    38    39    1
    32     6     7   ar
    33     7     8    1
    34    17    18    2
    35    18    19    1
    36    23    24   ar
    37    24    25   ar
    38    25    20   ar
    39    19    11    1
    40    18    14    1
    41     7     1   ar
    42    38    33   ar
    43    28    29    1
@<TRIPOS>MOLECULE
*****
 39 43 0 0 0
SMALL
GASTEIGER

@<TRIPOS>ATOM
      1 C           2.8707    4.0177   37.4583 C.ar    1  UNL1        0.0951
      2 C           1.8275    3.1050   38.0318 C.ar    1  UNL1        0.1454
      3 F           0.5199    3.6655   38.5070 F       1  UNL1       -0.2040
      4 C           2.0921    1.6317   38.1300 C.ar    1  UNL1        0.0312
      5 C           3.3998    1.0712   37.6548 C.ar    1  UNL1        0.0204
      6 C           4.4429    1.9839   37.0814 C.ar    1  UNL1        0.0924
      7 C           4.1783    3.4572   36.9832 C.ar    1  UNL1        0.1598
      8 F           5.2215    4.3698   36.4097 F       1  UNL1       -0.2026
      9 C           2.6061    5.4909   37.3601 C.2     1  UNL1        0.2036
     10 O           3.4722    6.4599   38.1090 O.2     1  UNL1       -0.2863
     11 C           0.8250    3.8633   33.1299 C.2     1  UNL1        0.0322
     12 C          -0.3281    4.6821   32.6302 C.2     1  UNL1        0.2321
     13 N          -0.8097    5.8613   33.4224 N.2     1  UNL1       -0.0311
     14 C          -0.1382    6.2216   34.7144 C.2     1  UNL1        0.3721
     15 N          -0.3903    7.3200   35.7044 N.2     1  UNL1       -0.0307
     16 C           0.6071    7.1799   36.8160 C.2     1  UNL1        0.2390
     17 C           1.4755    5.9950   36.5130 C.2     1  UNL1        0.0896
     18 C           1.0149    5.4027   35.2141 C.2     1  UNL1        0.0774
     19 C           1.4965    4.2236   34.4219 C.3     1  UNL1        0.0647
     20 C           2.2698    0.3258   30.7532 C.ar    1  UNL1        0.3201
     21 N           3.1183    0.8851   31.8565 N.ar    1  UNL1       -0.1927
     22 C           2.6366    2.0643   32.6487 C.ar    1  UNL1        0.1050
     23 C           1.3066    2.6841   32.3377 C.ar    1  UNL1        0.0386
     24 C           0.4582    2.1248   31.2344 C.ar    1  UNL1        0.1050
     25 N           0.9397    0.9456   30.4421 N.ar    1  UNL1       -0.1927
     26 C           3.0302   -0.7081   28.4943 C.3     1  UNL1        0.2559
     27 O           2.7514   -0.8534   29.9610 O.3     1  UNL1       -0.4426
     28 N           5.7505    1.4234   36.6062 N.pl3   1  UNL1       -0.2127
     29 H           6.5949    1.7432   36.9987 H       1  UNL1        0.1738
     30 S           5.7717    0.3757   35.5330 S.O2    1  UNL1        0.0758
     31 O           5.4800    1.4255   34.5022 O.2     1  UNL1       -0.1499
     32 O           6.0633   -0.6743   36.5638 O.2     1  UNL1       -0.1499
     33 C           5.7928   -0.6722   34.4598 C.ar    1  UNL1        0.1524
     34 C           4.5626   -1.4831   34.1791 C.ar    1  UNL1        0.0225
     35 C           4.5837   -2.5309   33.1059 C.ar    1  UNL1        0.0015
     36 C           5.8351   -2.7678   32.3135 C.ar    1  UNL1        0.0024
     37 C           7.0654   -1.9568   32.5943 C.ar    1  UNL1        0.0310
     38 C           7.0442   -0.9090   33.6674 C.ar    1  UNL1        0.1589
     39 F           8.2745   -0.0981   33.9481 F       1  UNL1       -0.2027
@<TRIPOS>BOND
     1    26    27    1
     2    27    20    1
     3    20    21   ar
     4    21    22   ar
     5    22    23   ar
     6    23    11    1
     7    11    12    2
     8    12    13    1
     9    13    14    2
    10    14    15    1
    11    15    16    2
    12    16    17    1
    13    17     9    1
    14     9    10    2
    15     9     1    1
    16     1     2   ar
    17     2     3    1
    18     2     4   ar
    19     4     5   ar
    20     5     6   ar
    21     6    28    1
    22    28    30    1
    23    30    31    2
    24    30    32    2
    25    30    33    1
    26    33    34   ar
    27    34    35   ar
    28    35    36   ar
    29    36    37   ar
    30    37    38   ar
    31    38    39    1
    32     6     7   ar
    33     7     8    1
    34    17    18    2
    35    18    19    1
    36    23    24   ar
    37    24    25   ar
    38    25    20   ar
    39    19    11    1
    40    18    14    1
    41     7     1   ar
    42    38    33   ar
    43    28    29    1
@<TRIPOS>MOLECULE
*****
 39 43 0 0 0
SMALL
GASTEIGER

@<TRIPOS>ATOM
      1 C           6.5660   -2.5815   25.8496 C.ar    1  UNL1        0.0951
      2 C           5.3417   -1.8329   26.2859 C.ar    1  UNL1        0.1454
      3 F           5.2305   -1.3337   27.6960 F       1  UNL1       -0.2040
      4 C           4.2284   -1.5834   25.3120 C.ar    1  UNL1        0.0312
      5 C           4.3395   -2.0826   23.9019 C.ar    1  UNL1        0.0204
      6 C           5.5639   -2.8312   23.4656 C.ar    1  UNL1        0.0924
      7 C           6.6772   -3.0807   24.4395 C.ar    1  UNL1        0.1598
      8 F           7.9015   -3.8294   24.0031 F       1  UNL1       -0.2026
      9 C           7.6793   -2.8310   26.8234 C.2     1  UNL1        0.2036
     10 O           8.7679   -1.8134   26.9948 O.2     1  UNL1       -0.2863
     11 C           6.4950   -3.6815   31.4700 C.2     1  UNL1        0.0322
     12 C           6.6741   -5.1180   31.8628 C.2     1  UNL1        0.2321
     13 N           7.1717   -6.1139   30.8577 N.2     1  UNL1       -0.0311
     14 C           7.4903   -5.6734   29.4597 C.2     1  UNL1        0.3721
     15 N           7.9938   -6.4224   28.2615 N.2     1  UNL1       -0.0307
     16 C           8.1259   -5.4488   27.1281 C.2     1  UNL1        0.2390
     17 C           7.7040   -4.0981   27.6258 C.2     1  UNL1        0.0896
     18 C           7.3112   -4.2370   29.0668 C.2     1  UNL1        0.0774
     19 C           6.8136   -3.2410   30.0719 C.3     1  UNL1        0.0647
     20 C           5.0021   -0.6933   34.4854 C.ar    1  UNL1        0.3201
     21 N           4.1047   -1.8016   34.0201 N.ar    1  UNL1       -0.1927
     22 C           4.6024   -2.7976   33.0149 C.ar    1  UNL1        0.1050
     23 C           5.9974   -2.6854   32.4751 C.ar    1  UNL1        0.0386
     24 C           6.8947   -1.5772   32.9404 C.ar    1  UNL1        0.1050
     25 N           6.3972   -0.5811   33.9455 N.ar    1  UNL1       -0.1927
     26 C           4.9924    0.2457   36.9077 C.3     1  UNL1        0.2559
     27 O           4.5045    0.3027   35.4905 O.3     1  UNL1       -0.4426
     28 N           5.6750   -3.3304   22.0555 N.pl3   1  UNL1       -0.2127
     29 H           6.1529   -4.1702   21.8668 H       1  UNL1        0.1738
     30 S           5.0580   -2.5500   20.9329 S.O2    1  UNL1        0.0758
     31 O           4.0209   -3.6196   20.7592 O.2     1  UNL1       -0.1499
     32 O           6.0951   -1.4802   21.1065 O.2     1  UNL1       -0.1499
     33 C           4.4410   -1.7695   19.8103 C.ar    1  UNL1        0.1524
     34 C           3.3380   -0.7931   20.0931 C.ar    1  UNL1        0.0225
     35 C           2.7211   -0.0126   18.9705 C.ar    1  UNL1        0.0015
     36 C           3.2071   -0.2085   17.5651 C.ar    1  UNL1        0.0024
     37 C           4.3101   -1.1849   17.2822 C.ar    1  UNL1        0.0310
     38 C           4.9271   -1.9653   18.4048 C.ar    1  UNL1        0.1589
     39 F           6.0301   -2.9417   18.1218 F       1  UNL1       -0.2027
@<TRIPOS>BOND
     1    26    27    1
     2    27    20    1
     3    20    21   ar
     4    21    22   ar
     5    22    23   ar
     6    23    11    1
     7    11    12    2
     8    12    13    1
     9    13    14    2
    10    14    15    1
    11    15    16    2
    12    16    17    1
    13    17     9    1
    14     9    10    2
    15     9     1    1
    16     1     2   ar
    17     2     3    1
    18     2     4   ar
    19     4     5   ar
    20     5     6   ar
    21     6    28    1
    22    28    30    1
    23    30    31    2
    24    30    32    2
    25    30    33    1
    26    33    34   ar
    27    34    35   ar
    28    35    36   ar
    29    36    37   ar
    30    37    38   ar
    31    38    39    1
    32     6     7   ar
    33     7     8    1
    34    17    18    2
    35    18    19    1
    36    23    24   ar
    37    24    25   ar
    38    25    20   ar
    39    19    11    1
    40    18    14    1
    41     7     1   ar
    42    38    33   ar
    43    28    29    1
@<TRIPOS>MOLECULE
*****
 39 43 0 0 0
SMALL
GASTEIGER

@<TRIPOS>ATOM
      1 C           3.5072    0.5031   18.5082 C.ar    1  UNL1        0.0951
      2 C           4.4854    1.3596   19.2562 C.ar    1  UNL1        0.1454
      3 F           5.9212    0.9391   19.3640 F       1  UNL1       -0.2040
      4 C           4.0277    2.6366   19.8964 C.ar    1  UNL1        0.0312
      5 C           2.5919    3.0571   19.7886 C.ar    1  UNL1        0.0204
      6 C           1.6138    2.2006   19.0406 C.ar    1  UNL1        0.0924
      7 C           2.0714    0.9235   18.4004 C.ar    1  UNL1        0.1598
      8 F           1.0931    0.0671   17.6524 F       1  UNL1       -0.2026
      9 C           3.9648   -0.7740   17.8680 C.2     1  UNL1        0.2036
     10 O           3.9084   -0.9276   16.3770 O.2     1  UNL1       -0.2863
     11 C           3.7053   -1.5032   22.6760 C.2     1  UNL1        0.0322
     12 C           4.3641   -2.7798   23.1076 C.2     1  UNL1        0.2321
     13 N           5.0089   -3.6726   22.0892 N.2     1  UNL1       -0.0311
     14 C           4.9948   -3.2888   20.6392 C.2     1  UNL1        0.3721
     15 N           5.5448   -3.9629   19.4172 N.2     1  UNL1       -0.0307
     16 C           5.2259   -3.1028   18.2304 C.2     1  UNL1        0.2390
     17 C           4.4788   -1.8973   18.7189 C.2     1  UNL1        0.0896
     18 C           4.3361   -2.0122   20.2076 C.2     1  UNL1        0.0774
     19 C           3.6913   -1.1195   21.2260 C.3     1  UNL1        0.0647
     20 C           1.7710    1.1753   25.7313 C.ar    1  UNL1        0.3201
     21 N           1.3258    1.2266   24.2998 N.ar    1  UNL1       -0.1927
     22 C           1.9706    0.3337   23.2813 C.ar    1  UNL1        0.1050
     23 C           3.0605   -0.6104   23.6944 C.ar    1  UNL1        0.0386
     24 C           3.5057   -0.6617   25.1259 C.ar    1  UNL1        0.1050
     25 N           2.8609    0.2311   26.1443 N.ar    1  UNL1       -0.1927
     26 C          -0.2646    1.7762   27.2296 C.3     1  UNL1        0.2559
     27 O           1.1262    2.0680   26.7497 O.3     1  UNL1       -0.4426
     28 N           0.1780    2.6211   18.9328 N.pl3   1  UNL1       -0.2127
     29 H          -0.2469    2.6996   18.0481 H       1  UNL1        0.1738
     30 S          -0.6105    2.9219   20.1729 S.O2    1  UNL1        0.0758
     31 O          -0.6746    4.3684   19.7813 O.2     1  UNL1       -0.1499
     32 O          -0.5465    1.4753   20.5645 O.2     1  UNL1       -0.1499
     33 C          -1.3990    3.2226   21.4130 C.ar    1  UNL1        0.1524
     34 C          -0.6937    3.4065   22.7240 C.ar    1  UNL1        0.0225
     35 C          -1.4822    3.7073   23.9641 C.ar    1  UNL1        0.0015
     36 C          -2.9759    3.8241   23.8932 C.ar    1  UNL1        0.0024
     37 C          -3.6812    3.6402   22.5822 C.ar    1  UNL1        0.0310
     38 C          -2.8928    3.3395   21.3421 C.ar    1  UNL1        0.1589
     39 F          -3.5981    3.1556   20.0312 F       1  UNL1       -0.2027
@<TRIPOS>BOND
     1    26    27    1
     2    27    20    1
     3    20    21   ar
     4    21    22   ar
     5    22    23   ar
     6    23    11    1
     7    11    12    2
     8    12    13    1
     9    13    14    2
    10    14    15    1
    11    15    16    2
    12    16    17    1
    13    17     9    1
    14     9    10    2
    15     9     1    1
    16     1     2   ar
    17     2     3    1
    18     2     4   ar
    19     4     5   ar
    20     5     6   ar
    21     6    28    1
    22    28    30    1
    23    30    31    2
    24    30    32    2
    25    30    33    1
    26    33    34   ar
    27    34    35   ar
    28    35    36   ar
    29    36    37   ar
    30    37    38   ar
    31    38    39    1
    32     6     7   ar
    33     7     8    1
    34    17    18    2
    35    18    19    1
    36    23    24   ar
    37    24    25   ar
    38    25    20   ar
    39    19    11    1
    40    18    14    1
    41     7     1   ar
    42    38    33   ar
    43    28    29    1
@<TRIPOS>MOLECULE
*****
 39 43 0 0 0
SMALL
GASTEIGER

@<TRIPOS>ATOM
      1 C           0.3379    2.5601   25.0716 C.ar    1  UNL1        0.0951
      2 C          -0.9730    3.0842   25.5786 C.ar    1  UNL1        0.1454
      3 F          -1.7161    4.1272   24.7978 F       1  UNL1       -0.2040
      4 C          -1.5406    2.5651   26.8664 C.ar    1  UNL1        0.0312
      5 C          -0.7974    1.5221   27.6472 C.ar    1  UNL1        0.0204
      6 C           0.5134    0.9980   27.1402 C.ar    1  UNL1        0.0924
      7 C           1.0811    1.5170   25.8524 C.ar    1  UNL1        0.1598
      8 F           2.3919    0.9929   25.3455 F       1  UNL1       -0.2026
      9 C           0.9055    3.0791   23.7838 C.2     1  UNL1        0.2036
     10 O           1.9492    4.1563   23.8045 O.2     1  UNL1       -0.2863
     11 C           2.3997   -0.7975   21.2430 C.2     1  UNL1        0.0322
     12 C           1.6318   -0.9897   19.9689 C.2     1  UNL1        0.2321
     13 N           0.5354   -0.0339   19.6026 N.2     1  UNL1       -0.0311
     14 C           0.2068    1.1142   20.5103 C.2     1  UNL1        0.3721
     15 N          -0.8130    2.2100   20.4138 N.2     1  UNL1       -0.0307
     16 C          -0.6753    3.0795   21.6284 C.2     1  UNL1        0.2390
     17 C           0.4295    2.5210   22.4754 C.2     1  UNL1        0.0896
     18 C           0.9747    1.3064   21.7845 C.2     1  UNL1        0.0774
     19 C           2.0711    0.3506   22.1508 C.3     1  UNL1        0.0647
     20 C           5.6891   -3.6649   22.3423 C.ar    1  UNL1        0.3201
     21 N           5.2208   -3.5701   20.9204 N.ar    1  UNL1       -0.1927
     22 C           4.1243   -2.6143   20.5540 C.ar    1  UNL1        0.1050
     23 C           3.4962   -1.7533   21.6094 C.ar    1  UNL1        0.0386
     24 C           3.9644   -1.8481   23.0313 C.ar    1  UNL1        0.1050
     25 N           5.0608   -2.8038   23.3977 N.ar    1  UNL1       -0.1927
     26 C           8.2169   -4.1756   22.6565 C.3     1  UNL1        0.2559
     27 O           6.7855   -4.6207   22.7087 O.3     1  UNL1       -0.4426
     28 N           1.2566   -0.0451   27.9210 N.pl3   1  UNL1       -0.2127
     29 H           1.4405   -0.9240   27.5175 H       1  UNL1        0.1738
     30 S           1.7197    0.2511   29.3167 S.O2    1  UNL1        0.0758
     31 O           2.9319    0.9431   28.7677 O.2     1  UNL1       -0.1499
     32 O           0.5074   -0.4409   29.8658 O.2     1  UNL1       -0.1499
     33 C           2.1826    0.5473   30.7124 C.ar    1  UNL1        0.1524
     34 C           3.1956   -0.3416   31.3710 C.ar    1  UNL1        0.0225
     35 C           3.6585   -0.0454   32.7667 C.ar    1  UNL1        0.0015
     36 C           3.1086    1.1396   33.5038 C.ar    1  UNL1        0.0024
     37 C           2.0956    2.0285   32.8451 C.ar    1  UNL1        0.0310
     38 C           1.6327    1.7323   31.4494 C.ar    1  UNL1        0.1589
     39 F           0.6197    2.6212   30.7908 F       1  UNL1       -0.2027
@<TRIPOS>BOND
     1    26    27    1
     2    27    20    1
     3    20    21   ar
     4    21    22   ar
     5    22    23   ar
     6    23    11    1
     7    11    12    2
     8    12    13    1
     9    13    14    2
    10    14    15    1
    11    15    16    2
    12    16    17    1
    13    17     9    1
    14     9    10    2
    15     9     1    1
    16     1     2   ar
    17     2     3    1
    18     2     4   ar
    19     4     5   ar
    20     5     6   ar
    21     6    28    1
    22    28    30    1
    23    30    31    2
    24    30    32    2
    25    30    33    1
    26    33    34   ar
    27    34    35   ar
    28    35    36   ar
    29    36    37   ar
    30    37    38   ar
    31    38    39    1
    32     6     7   ar
    33     7     8    1
    34    17    18    2
    35    18    19    1
    36    23    24   ar
    37    24    25   ar
    38    25    20   ar
    39    19    11    1
    40    18    14    1
    41     7     1   ar
    42    38    33   ar
    43    28    29    1
