@<TRIPOS>MOLECULE
*****
 25 28 0 0 0
SMALL
GASTEIGER

@<TRIPOS>ATOM
      1 C          -7.7927  -18.0053   21.7220 C.ar    1  UNL1        0.1355
      2 C          -6.8085  -19.0256   21.2315 C.ar    1  UNL1        0.0413
      3 C          -6.9617  -20.2173   20.3336 C.ar    1  UNL1        0.0032
      4 C          -5.7719  -21.0727   20.0132 C.ar    1  UNL1        0.0001
      5 C          -4.4291  -20.7365   20.5908 C.ar    1  UNL1        0.0016
      6 C          -4.2759  -19.5448   21.4887 C.ar    1  UNL1        0.0209
      7 C          -5.4657  -18.6893   21.8091 C.ar    1  UNL1        0.1025
      8 N          -5.6199  -17.4613   22.6565 N.ar    1  UNL1       -0.1688
      9 N          -7.0581  -17.0385   22.6027 N.ar    1  UNL1       -0.2417
     10 C         -11.4457  -17.1595   20.7194 C.ar    1  UNL1        0.1965
     11 N         -11.5638  -18.6204   21.0389 N.ar    1  UNL1       -0.0587
     12 O         -10.2096  -19.1150   21.4533 O.2     1  UNL1       -0.3311
     13 C          -9.2548  -17.9599   21.3900 C.ar    1  UNL1        0.2772
     14 N         -10.0188  -16.7514   20.9364 N.ar    1  UNL1       -0.1884
     15 N         -12.4172  -15.4780   18.9934 N.3     1  UNL1       -0.3147
     16 C         -12.5593  -16.2641   20.2630 C.3     1  UNL1        0.1355
     17 H         -13.2619  -14.9279   18.8377 H       1  UNL1        0.1192
     18 H         -12.2791  -16.1178   18.2110 H       1  UNL1        0.1192
     19 C          -7.6566  -15.8566   23.3061 C.3     1  UNL1        0.1540
     20 C          -7.4147  -15.6550   24.7726 C.ar    1  UNL1        0.0021
     21 C          -8.5451  -15.8064   25.7470 C.ar    1  UNL1       -0.0023
     22 C          -8.3031  -15.6048   27.2136 C.ar    1  UNL1       -0.0003
     23 C          -6.9308  -15.2518   27.7058 C.ar    1  UNL1       -0.0000
     24 C          -5.8005  -15.1004   26.7314 C.ar    1  UNL1       -0.0003
     25 C          -6.0424  -15.3020   25.2648 C.ar    1  UNL1       -0.0023
@<TRIPOS>BOND
     1    15    16    1
     2    16    10    1
     3    10    11   ar
     4    11    12   ar
     5    12    13   ar
     6    13     1    1
     7     1     2   ar
     8     2     3   ar
     9     3     4   ar
    10     4     5   ar
    11     5     6   ar
    12     6     7   ar
    13     7     8   ar
    14     8     9   ar
    15     9    19    1
    16    19    20    1
    17    20    21   ar
    18    21    22   ar
    19    22    23   ar
    20    23    24   ar
    21    24    25   ar
    22    13    14   ar
    23    14    10   ar
    24     9     1   ar
    25    25    20   ar
    26     7     2   ar
    27    15    17    1
    28    15    18    1
@<TRIPOS>MOLECULE
*****
 25 28 0 0 0
SMALL
GASTEIGER

@<TRIPOS>ATOM
      1 C          -7.8121  -17.5208   21.8654 C.ar    1  UNL1        0.1355
      2 C          -8.9751  -18.1966   21.2014 C.ar    1  UNL1        0.0413
      3 C          -9.1043  -19.5201   20.5074 C.ar    1  UNL1        0.0032
      4 C         -10.4234  -19.9373   19.9278 C.ar    1  UNL1        0.0001
      5 C         -11.6132  -19.0310   20.0422 C.ar    1  UNL1        0.0016
      6 C         -11.4839  -17.7076   20.7363 C.ar    1  UNL1        0.0209
      7 C         -10.1649  -17.2904   21.3159 C.ar    1  UNL1        0.1025
      8 N          -9.7372  -16.0545   22.0506 N.ar    1  UNL1       -0.1688
      9 N          -8.2831  -16.1969   22.3903 N.ar    1  UNL1       -0.2417
     10 C          -4.3340  -19.1978   21.4709 C.ar    1  UNL1        0.1965
     11 N          -4.2324  -18.6435   22.8610 N.ar    1  UNL1       -0.0587
     12 O          -5.5230  -17.9478   23.1779 O.2     1  UNL1       -0.3311
     13 C          -6.4221  -18.0722   21.9838 C.ar    1  UNL1        0.2772
     14 N          -5.6873  -18.8448   20.9287 N.ar    1  UNL1       -0.1884
     15 N          -1.9070  -20.1185   21.3597 N.3     1  UNL1       -0.3147
     16 C          -3.2692  -19.9698   20.7495 C.3     1  UNL1        0.1355
     17 H          -1.3142  -20.6686   20.7381 H       1  UNL1        0.1192
     18 H          -1.9874  -20.5917   22.2597 H       1  UNL1        0.1192
     19 C          -7.4469  -15.1920   23.1256 C.3     1  UNL1        0.1540
     20 C          -7.2901  -15.2921   24.6140 C.ar    1  UNL1        0.0021
     21 C          -8.4988  -15.4631   25.4857 C.ar    1  UNL1       -0.0023
     22 C          -8.3419  -15.5633   26.9741 C.ar    1  UNL1       -0.0003
     23 C          -6.9764  -15.4924   27.5908 C.ar    1  UNL1       -0.0000
     24 C          -5.7677  -15.3214   26.7192 C.ar    1  UNL1       -0.0003
     25 C          -5.9246  -15.2212   25.2307 C.ar    1  UNL1       -0.0023
@<TRIPOS>BOND
     1    15    16    1
     2    16    10    1
     3    10    11   ar
     4    11    12   ar
     5    12    13   ar
     6    13     1    1
     7     1     2   ar
     8     2     3   ar
     9     3     4   ar
    10     4     5   ar
    11     5     6   ar
    12     6     7   ar
    13     7     8   ar
    14     8     9   ar
    15     9    19    1
    16    19    20    1
    17    20    21   ar
    18    21    22   ar
    19    22    23   ar
    20    23    24   ar
    21    24    25   ar
    22    13    14   ar
    23    14    10   ar
    24     9     1   ar
    25    25    20   ar
    26     7     2   ar
    27    15    17    1
    28    15    18    1
@<TRIPOS>MOLECULE
*****
 25 28 0 0 0
SMALL
GASTEIGER

@<TRIPOS>ATOM
      1 C          -7.5852  -17.6854   22.3570 C.ar    1  UNL1        0.1355
      2 C          -8.9289  -17.5416   21.7059 C.ar    1  UNL1        0.0413
      3 C         -10.0049  -16.5055   21.8430 C.ar    1  UNL1        0.0032
      4 C         -11.2697  -16.6279   21.0460 C.ar    1  UNL1        0.0001
      5 C         -11.4585  -17.7862   20.1119 C.ar    1  UNL1        0.0016
      6 C         -10.3825  -18.8223   19.9748 C.ar    1  UNL1        0.0209
      7 C          -9.1177  -18.6999   20.7718 C.ar    1  UNL1        0.1025
      8 N          -7.8907  -19.5596   20.8456 N.ar    1  UNL1       -0.1688
      9 N          -6.9436  -18.9326   21.8253 N.ar    1  UNL1       -0.2417
     10 C          -6.5621  -15.5390   25.4248 C.ar    1  UNL1        0.1965
     11 N          -5.5763  -15.0655   24.3981 N.ar    1  UNL1       -0.0587
     12 O          -5.8396  -15.8120   23.1240 O.2     1  UNL1       -0.3311
     13 C          -6.9881  -16.7467   23.3631 C.ar    1  UNL1        0.2772
     14 N          -7.4346  -16.5780   24.7852 N.ar    1  UNL1       -0.1884
     15 N          -8.0016  -14.7891   27.4535 N.3     1  UNL1       -0.3147
     16 C          -6.6584  -15.0579   26.8424 C.3     1  UNL1        0.1355
     17 H          -7.8802  -14.4715   28.4152 H       1  UNL1        0.1192
     18 H          -8.5562  -15.6451   27.4456 H       1  UNL1        0.1192
     19 C          -5.5921  -19.4602   22.2063 C.3     1  UNL1        0.1540
     20 C          -4.3652  -18.9544   21.5072 C.ar    1  UNL1        0.0021
     21 C          -4.1470  -19.2651   20.0560 C.ar    1  UNL1       -0.0023
     22 C          -2.9201  -18.7594   19.3569 C.ar    1  UNL1       -0.0003
     23 C          -1.9112  -17.9429   20.1089 C.ar    1  UNL1       -0.0000
     24 C          -2.1293  -17.6322   21.5601 C.ar    1  UNL1       -0.0003
     25 C          -3.3563  -18.1380   22.2592 C.ar    1  UNL1       -0.0023
@<TRIPOS>BOND
     1    15    16    1
     2    16    10    1
     3    10    11   ar
     4    11    12   ar
     5    12    13   ar
     6    13     1    1
     7     1     2   ar
     8     2     3   ar
     9     3     4   ar
    10     4     5   ar
    11     5     6   ar
    12     6     7   ar
    13     7     8   ar
    14     8     9   ar
    15     9    19    1
    16    19    20    1
    17    20    21   ar
    18    21    22   ar
    19    22    23   ar
    20    23    24   ar
    21    24    25   ar
    22    13    14   ar
    23    14    10   ar
    24     9     1   ar
    25    25    20   ar
    26     7     2   ar
    27    15    17    1
    28    15    18    1
@<TRIPOS>MOLECULE
*****
 25 28 0 0 0
SMALL
GASTEIGER

@<TRIPOS>ATOM
      1 C          -5.8809  -17.5176   22.4915 C.ar    1  UNL1        0.1355
      2 C          -4.9225  -18.5178   21.9161 C.ar    1  UNL1        0.0413
      3 C          -5.1373  -19.7706   21.1196 C.ar    1  UNL1        0.0032
      4 C          -3.9604  -20.5857   20.6721 C.ar    1  UNL1        0.0001
      5 C          -2.5687  -20.1481   21.0210 C.ar    1  UNL1        0.0016
      6 C          -2.3539  -18.8953   21.8174 C.ar    1  UNL1        0.0209
      7 C          -3.5309  -18.0802   22.2650 C.ar    1  UNL1        0.1025
      8 N          -3.6292  -16.8095   23.0560 N.ar    1  UNL1       -0.1688
      9 N          -5.0816  -16.4617   23.1959 N.ar    1  UNL1       -0.2417
     10 C          -9.6666  -17.0107   21.8008 C.ar    1  UNL1        0.1965
     11 N          -9.6875  -18.2645   22.6241 N.ar    1  UNL1       -0.0587
     12 O          -8.2719  -18.6069   22.9830 O.2     1  UNL1       -0.3311
     13 C          -7.3761  -17.5649   22.3816 C.ar    1  UNL1        0.2772
     14 N          -8.2381  -16.5783   21.6510 N.ar    1  UNL1       -0.1884
     15 N         -10.8042  -15.7324   19.8458 N.3     1  UNL1       -0.3147
     16 C         -10.8640  -16.3120   21.2280 C.3     1  UNL1        0.1355
     17 H         -11.6992  -15.2983   19.6201 H       1  UNL1        0.1192
     18 H         -10.6072  -16.4744   19.1742 H       1  UNL1        0.1192
     19 C          -5.6371  -15.2678   23.9142 C.3     1  UNL1        0.1540
     20 C          -6.5090  -15.4567   25.1200 C.ar    1  UNL1        0.0021
     21 C          -5.8918  -15.7765   26.4493 C.ar    1  UNL1       -0.0023
     22 C          -6.7637  -15.9653   27.6551 C.ar    1  UNL1       -0.0003
     23 C          -8.2529  -15.8344   27.5317 C.ar    1  UNL1       -0.0000
     24 C          -8.8702  -15.5147   26.2026 C.ar    1  UNL1       -0.0003
     25 C          -7.9982  -15.3258   24.9967 C.ar    1  UNL1       -0.0023
@<TRIPOS>BOND
     1    15    16    1
     2    16    10    1
     3    10    11   ar
     4    11    12   ar
     5    12    13   ar
     6    13     1    1
     7     1     2   ar
     8     2     3   ar
     9     3     4   ar
    10     4     5   ar
    11     5     6   ar
    12     6     7   ar
    13     7     8   ar
    14     8     9   ar
    15     9    19    1
    16    19    20    1
    17    20    21   ar
    18    21    22   ar
    19    22    23   ar
    20    23    24   ar
    21    24    25   ar
    22    13    14   ar
    23    14    10   ar
    24     9     1   ar
    25    25    20   ar
    26     7     2   ar
    27    15    17    1
    28    15    18    1
@<TRIPOS>MOLECULE
*****
 25 28 0 0 0
SMALL
GASTEIGER

@<TRIPOS>ATOM
      1 C          -7.1775  -17.5105   22.4191 C.ar    1  UNL1        0.1355
      2 C          -6.2498  -18.5257   21.8200 C.ar    1  UNL1        0.0413
      3 C          -4.8247  -18.8841   22.1210 C.ar    1  UNL1        0.0032
      4 C          -4.1425  -19.9668   21.3387 C.ar    1  UNL1        0.0001
      5 C          -4.8853  -20.6913   20.2554 C.ar    1  UNL1        0.0016
      6 C          -6.3104  -20.3329   19.9545 C.ar    1  UNL1        0.0209
      7 C          -6.9927  -19.2501   20.7368 C.ar    1  UNL1        0.1025
      8 N          -8.3794  -18.6826   20.6664 N.ar    1  UNL1       -0.1688
      9 N          -8.4936  -17.6075   21.7061 N.ar    1  UNL1       -0.2417
     10 C          -6.7952  -15.4889   25.7103 C.ar    1  UNL1        0.1965
     11 N          -5.8817  -14.7284   24.7953 N.ar    1  UNL1       -0.0587
     12 O          -5.9138  -15.3932   23.4510 O.2     1  UNL1       -0.3311
     13 C          -6.8470  -16.5645   23.5352 C.ar    1  UNL1        0.2772
     14 N          -7.3918  -16.6236   24.9315 N.ar    1  UNL1       -0.1884
     15 N          -8.4487  -14.7925   27.5895 N.3     1  UNL1       -0.3147
     16 C          -7.0649  -15.1704   27.1511 C.3     1  UNL1        0.1355
     17 H          -8.4497  -14.6110   28.5932 H       1  UNL1        0.1192
     18 H          -9.0918  -15.5564   27.3815 H       1  UNL1        0.1192
     19 C          -9.7104  -16.7754   21.9840 C.3     1  UNL1        0.1540
     20 C         -10.8351  -17.3406   22.7998 C.ar    1  UNL1        0.0021
     21 C         -10.5472  -18.3284   23.8914 C.ar    1  UNL1       -0.0023
     22 C         -11.6719  -18.8935   24.7072 C.ar    1  UNL1       -0.0003
     23 C         -13.0845  -18.4708   24.4316 C.ar    1  UNL1       -0.0000
     24 C         -13.3724  -17.4830   23.3402 C.ar    1  UNL1       -0.0003
     25 C         -12.2477  -16.9178   22.5242 C.ar    1  UNL1       -0.0023
@<TRIPOS>BOND
     1    15    16    1
     2    16    10    1
     3    10    11   ar
     4    11    12   ar
     5    12    13   ar
     6    13     1    1
     7     1     2   ar
     8     2     3   ar
     9     3     4   ar
    10     4     5   ar
    11     5     6   ar
    12     6     7   ar
    13     7     8   ar
    14     8     9   ar
    15     9    19    1
    16    19    20    1
    17    20    21   ar
    18    21    22   ar
    19    22    23   ar
    20    23    24   ar
    21    24    25   ar
    22    13    14   ar
    23    14    10   ar
    24     9     1   ar
    25    25    20   ar
    26     7     2   ar
    27    15    17    1
    28    15    18    1
@<TRIPOS>MOLECULE
*****
 25 28 0 0 0
SMALL
GASTEIGER

@<TRIPOS>ATOM
      1 C          -6.5213  -18.9356   21.3611 C.ar    1  UNL1        0.1355
      2 C          -7.9734  -18.7973   21.0116 C.ar    1  UNL1        0.0413
      3 C          -9.0614  -17.9278   21.5686 C.ar    1  UNL1        0.0032
      4 C         -10.4492  -18.0099   21.0055 C.ar    1  UNL1        0.0001
      5 C         -10.7491  -18.9616   19.8854 C.ar    1  UNL1        0.0016
      6 C          -9.6611  -19.8310   19.3285 C.ar    1  UNL1        0.0209
      7 C          -8.2733  -19.7489   19.8916 C.ar    1  UNL1        0.1025
      8 N          -7.0064  -20.4753   19.5488 N.ar    1  UNL1       -0.1688
      9 N          -5.9236  -19.9726   20.4570 N.ar    1  UNL1       -0.2417
     10 C          -5.2193  -16.4775   24.0681 C.ar    1  UNL1        0.1965
     11 N          -4.1325  -17.5114   24.0687 N.ar    1  UNL1       -0.0587
     12 O          -4.4880  -18.5580   23.0547 O.2     1  UNL1       -0.3311
     13 C          -5.7944  -18.1710   22.4274 C.ar    1  UNL1        0.2772
     14 N          -6.2464  -16.8851   23.0537 N.ar    1  UNL1       -0.1884
     15 N          -6.5151  -14.4157   24.9737 N.3     1  UNL1       -0.3147
     16 C          -5.2700  -15.2511   24.9305 C.3     1  UNL1        0.1355
     17 H          -6.3740  -13.6277   25.6059 H       1  UNL1        0.1192
     18 H          -7.2942  -14.9835   25.3068 H       1  UNL1        0.1192
     19 C          -4.4942  -20.4272   20.4606 C.3     1  UNL1        0.1540
     20 C          -3.3984  -19.4591   20.1259 C.ar    1  UNL1        0.0021
     21 C          -3.5933  -18.4562   19.0276 C.ar    1  UNL1       -0.0023
     22 C          -2.4976  -17.4880   18.6929 C.ar    1  UNL1       -0.0003
     23 C          -1.2070  -17.5227   19.4566 C.ar    1  UNL1       -0.0000
     24 C          -1.0121  -18.5256   20.5549 C.ar    1  UNL1       -0.0003
     25 C          -2.1078  -19.4938   20.8896 C.ar    1  UNL1       -0.0023
@<TRIPOS>BOND
     1    15    16    1
     2    16    10    1
     3    10    11   ar
     4    11    12   ar
     5    12    13   ar
     6    13     1    1
     7     1     2   ar
     8     2     3   ar
     9     3     4   ar
    10     4     5   ar
    11     5     6   ar
    12     6     7   ar
    13     7     8   ar
    14     8     9   ar
    15     9    19    1
    16    19    20    1
    17    20    21   ar
    18    21    22   ar
    19    22    23   ar
    20    23    24   ar
    21    24    25   ar
    22    13    14   ar
    23    14    10   ar
    24     9     1   ar
    25    25    20   ar
    26     7     2   ar
    27    15    17    1
    28    15    18    1
@<TRIPOS>MOLECULE
*****
 25 28 0 0 0
SMALL
GASTEIGER

@<TRIPOS>ATOM
      1 C          -7.3501  -18.6965   21.7609 C.ar    1  UNL1        0.1355
      2 C          -8.3499  -19.1152   20.7241 C.ar    1  UNL1        0.0413
      3 C          -9.7810  -18.7281   20.4957 C.ar    1  UNL1        0.0032
      4 C         -10.5457  -19.3244   19.3514 C.ar    1  UNL1        0.0001
      5 C          -9.8794  -20.3078   18.4354 C.ar    1  UNL1        0.0016
      6 C          -8.4484  -20.6948   18.6637 C.ar    1  UNL1        0.0209
      7 C          -7.6836  -20.0986   19.8081 C.ar    1  UNL1        0.1025
      8 N          -6.2720  -20.2875   20.2788 N.ar    1  UNL1       -0.1688
      9 N          -6.0658  -19.4210   21.4857 N.ar    1  UNL1       -0.2417
     10 C          -7.3480  -15.8480   24.3974 C.ar    1  UNL1        0.1965
     11 N          -8.5807  -16.6066   24.7913 N.ar    1  UNL1       -0.0587
     12 O          -8.7314  -17.7659   23.8516 O.2     1  UNL1       -0.3311
     13 C          -7.5921  -17.7239   22.8769 C.ar    1  UNL1        0.2772
     14 N          -6.7370  -16.5385   23.2143 N.ar    1  UNL1       -0.1884
     15 N          -5.7907  -14.7349   26.1541 N.3     1  UNL1       -0.3147
     16 C          -6.8192  -14.6152   25.0689 C.3     1  UNL1        0.1355
     17 H          -5.5468  -13.8051   26.4954 H       1  UNL1        0.1192
     18 H          -4.9568  -15.1906   25.7836 H       1  UNL1        0.1192
     19 C          -4.7981  -19.3002   22.2783 C.3     1  UNL1        0.1540
     20 C          -3.6597  -18.4778   21.7514 C.ar    1  UNL1        0.0021
     21 C          -3.2072  -17.2579   22.4979 C.ar    1  UNL1       -0.0023
     22 C          -2.0688  -16.4355   21.9710 C.ar    1  UNL1       -0.0003
     23 C          -1.3828  -16.8329   20.6976 C.ar    1  UNL1       -0.0000
     24 C          -1.8352  -18.0528   19.9512 C.ar    1  UNL1       -0.0003
     25 C          -2.9736  -18.8752   20.4780 C.ar    1  UNL1       -0.0023
@<TRIPOS>BOND
     1    15    16    1
     2    16    10    1
     3    10    11   ar
     4    11    12   ar
     5    12    13   ar
     6    13     1    1
     7     1     2   ar
     8     2     3   ar
     9     3     4   ar
    10     4     5   ar
    11     5     6   ar
    12     6     7   ar
    13     7     8   ar
    14     8     9   ar
    15     9    19    1
    16    19    20    1
    17    20    21   ar
    18    21    22   ar
    19    22    23   ar
    20    23    24   ar
    21    24    25   ar
    22    13    14   ar
    23    14    10   ar
    24     9     1   ar
    25    25    20   ar
    26     7     2   ar
    27    15    17    1
    28    15    18    1
@<TRIPOS>MOLECULE
*****
 25 28 0 0 0
SMALL
GASTEIGER

@<TRIPOS>ATOM
      1 C          -6.9637  -18.4119   22.3287 C.ar    1  UNL1        0.1355
      2 C          -5.6700  -18.8592   21.7151 C.ar    1  UNL1        0.0413
      3 C          -4.2770  -18.3092   21.7978 C.ar    1  UNL1        0.0032
      4 C          -3.1592  -18.9843   21.0596 C.ar    1  UNL1        0.0001
      5 C          -3.4346  -20.2093   20.2389 C.ar    1  UNL1        0.0016
      6 C          -4.8276  -20.7592   20.1562 C.ar    1  UNL1        0.0209
      7 C          -5.9454  -20.0841   20.8944 C.ar    1  UNL1        0.1025
      8 N          -7.4092  -20.3939   21.0007 N.ar    1  UNL1       -0.1688
      9 N          -8.0386  -19.3605   21.8872 N.ar    1  UNL1       -0.2417
     10 C          -7.8959  -15.7990   25.0433 C.ar    1  UNL1        0.1965
     11 N          -6.9764  -14.9959   24.1717 N.ar    1  UNL1       -0.0587
     12 O          -6.5153  -15.8771   23.0487 O.2     1  UNL1       -0.3311
     13 C          -7.1498  -17.2246   23.2263 C.ar    1  UNL1        0.2772
     14 N          -8.0031  -17.1764   24.4590 N.ar    1  UNL1       -0.1884
     15 N          -7.7812  -14.7833   27.4319 N.3     1  UNL1       -0.3147
     16 C          -8.5870  -15.3104   26.2818 C.3     1  UNL1        0.1355
     17 H          -8.4084  -14.4973   28.1837 H       1  UNL1        0.1192
     18 H          -7.2324  -13.9809   27.1231 H       1  UNL1        0.1192
     19 C          -9.4882  -19.2882   22.2656 C.3     1  UNL1        0.1540
     20 C         -10.3700  -18.2367   21.6600 C.ar    1  UNL1        0.0021
     21 C         -10.5361  -18.1637   20.1710 C.ar    1  UNL1       -0.0023
     22 C         -11.4179  -17.1122   19.5654 C.ar    1  UNL1       -0.0003
     23 C         -12.1335  -16.1336   20.4488 C.ar    1  UNL1       -0.0000
     24 C         -11.9673  -16.2066   21.9377 C.ar    1  UNL1       -0.0003
     25 C         -11.0856  -17.2581   22.5434 C.ar    1  UNL1       -0.0023
@<TRIPOS>BOND
     1    15    16    1
     2    16    10    1
     3    10    11   ar
     4    11    12   ar
     5    12    13   ar
     6    13     1    1
     7     1     2   ar
     8     2     3   ar
     9     3     4   ar
    10     4     5   ar
    11     5     6   ar
    12     6     7   ar
    13     7     8   ar
    14     8     9   ar
    15     9    19    1
    16    19    20    1
    17    20    21   ar
    18    21    22   ar
    19    22    23   ar
    20    23    24   ar
    21    24    25   ar
    22    13    14   ar
    23    14    10   ar
    24     9     1   ar
    25    25    20   ar
    26     7     2   ar
    27    15    17    1
    28    15    18    1
@<TRIPOS>MOLECULE
*****
 25 28 0 0 0
SMALL
GASTEIGER

@<TRIPOS>ATOM
      1 C          -6.4390  -17.9876   22.5383 C.ar    1  UNL1        0.1355
      2 C          -5.0325  -18.4209   22.2482 C.ar    1  UNL1        0.0413
      3 C          -4.4769  -19.5128   21.3828 C.ar    1  UNL1        0.0032
      4 C          -2.9934  -19.7122   21.2870 C.ar    1  UNL1        0.0001
      5 C          -2.0654  -18.8197   22.0566 C.ar    1  UNL1        0.0016
      6 C          -2.6210  -17.7278   22.9220 C.ar    1  UNL1        0.0209
      7 C          -4.1046  -17.5284   23.0179 C.ar    1  UNL1        0.1025
      8 N          -4.9375  -16.5436   23.7835 N.ar    1  UNL1       -0.1688
      9 N          -6.3803  -16.8274   23.4871 N.ar    1  UNL1       -0.2417
     10 C          -9.6341  -19.0213   20.5920 C.ar    1  UNL1        0.1965
     11 N          -9.5725  -20.0942   21.6386 N.ar    1  UNL1       -0.0587
     12 O          -8.3681  -19.8375   22.4950 O.2     1  UNL1       -0.3311
     13 C          -7.6854  -18.6061   21.9778 C.ar    1  UNL1        0.2772
     14 N          -8.4678  -18.1016   20.8017 N.ar    1  UNL1       -0.1884
     15 N         -11.5937  -17.7025   19.5099 N.3     1  UNL1       -0.3147
     16 C         -10.6787  -18.8910   19.5234 C.3     1  UNL1        0.1355
     17 H         -12.2357  -17.7766   18.7207 H       1  UNL1        0.1192
     18 H         -11.0418  -16.8495   19.4202 H       1  UNL1        0.1192
     19 C          -7.5577  -16.0819   24.0422 C.3     1  UNL1        0.1540
     20 C          -8.9269  -16.6914   23.9834 C.ar    1  UNL1        0.0021
     21 C          -9.9493  -16.1484   23.0295 C.ar    1  UNL1       -0.0023
     22 C         -11.3186  -16.7580   22.9707 C.ar    1  UNL1       -0.0003
     23 C         -11.6655  -17.9106   23.8657 C.ar    1  UNL1       -0.0000
     24 C         -10.6432  -18.4536   24.8196 C.ar    1  UNL1       -0.0003
     25 C          -9.2738  -17.8440   24.8784 C.ar    1  UNL1       -0.0023
@<TRIPOS>BOND
     1    15    16    1
     2    16    10    1
     3    10    11   ar
     4    11    12   ar
     5    12    13   ar
     6    13     1    1
     7     1     2   ar
     8     2     3   ar
     9     3     4   ar
    10     4     5   ar
    11     5     6   ar
    12     6     7   ar
    13     7     8   ar
    14     8     9   ar
    15     9    19    1
    16    19    20    1
    17    20    21   ar
    18    21    22   ar
    19    22    23   ar
    20    23    24   ar
    21    24    25   ar
    22    13    14   ar
    23    14    10   ar
    24     9     1   ar
    25    25    20   ar
    26     7     2   ar
    27    15    17    1
    28    15    18    1
