@<TRIPOS>MOLECULE
*****
 45 50 0 0 0
SMALL
GASTEIGER

@<TRIPOS>ATOM
      1 C           4.0347   -0.8550   30.1159 C.ar    1  UNL1        0.1348
      2 C           5.3033   -1.5003   30.5892 C.ar    1  UNL1        0.0346
      3 C           6.2939   -2.0266   29.5933 C.ar    1  UNL1        0.0065
      4 C           6.0159   -1.9074   28.1242 C.ar    1  UNL1        0.0432
      5 C           4.7473   -1.2621   27.6509 C.ar    1  UNL1        0.1256
      6 N           3.7566   -0.7358   28.6468 N.ar    1  UNL1       -0.2222
      7 C           7.0065   -2.4337   27.1283 C.ar    1  UNL1        0.0850
      8 C           7.9885   -1.6146   26.3443 C.ar    1  UNL1        0.0991
      9 N           8.7780   -2.5460   25.4730 N.ar    1  UNL1       -0.2265
     10 C           8.2838   -3.9409   25.7185 C.ar    1  UNL1        0.1474
     11 C           8.6893   -5.2653   25.1427 C.ar    1  UNL1        0.0332
     12 C           8.0000   -6.5202   25.5899 C.ar    1  UNL1       -0.0174
     13 C           8.4055   -7.8445   25.0141 C.3     1  UNL1        0.0312
     14 C           6.9051   -6.4508   26.6129 C.ar    1  UNL1        0.0149
     15 C           6.4996   -5.1264   27.1887 C.ar    1  UNL1        0.0811
     16 N           7.1890   -3.8714   26.7415 N.ar    1  UNL1       -0.2888
     17 C           8.1524   -0.1254   26.4186 C.ar    1  UNL1        0.0222
     18 C           8.8621    0.4938   27.5861 C.ar    1  UNL1        0.0222
     19 C           9.0260    1.9830   27.6604 C.ar    1  UNL1        0.0989
     20 N           8.4803    2.8530   26.5671 N.ar    1  UNL1       -0.2423
     21 C           7.7706    2.2338   25.3997 C.ar    1  UNL1        0.0989
     22 C           7.6067    0.7447   25.3254 C.ar    1  UNL1        0.0222
     23 C           3.2239    1.0407   31.6967 C.2     1  UNL1        0.2414
     24 O           4.3944    1.8840   31.2858 O.2     1  UNL1       -0.2733
     25 N           3.0441   -0.3287   31.1118 N.am    1  UNL1       -0.2682
     26 H           2.2758   -0.8822   31.3815 H       1  UNL1        0.1563
     27 C           2.2333    1.5670   32.6926 C.3     1  UNL1        0.1319
     28 C           2.6819    1.9279   34.0778 C.3     1  UNL1        0.0270
     29 C           0.4408    2.2966   30.9593 C.3     1  UNL1        0.0862
     30 N           0.7942    1.7323   32.3034 N.3     1  UNL1       -0.2902
     31 H           0.3668    0.8076   32.3561 H       1  UNL1        0.1237
     32 C           4.4692   -1.1429   26.1817 C.1     1  UNL1       -0.0404
     33 C           4.1911   -1.0238   24.7125 C.1     1  UNL1       -0.0583
     34 C           3.9131   -0.9046   23.2433 C.ar    1  UNL1        0.0421
     35 C           2.7360   -0.1074   22.7650 C.ar    1  UNL1        0.0097
     36 C           2.4579    0.0117   21.2958 C.ar    1  UNL1        0.0179
     37 C           3.3570   -0.6664   20.3050 C.ar    1  UNL1        0.0625
     38 C           4.5341   -1.4636   20.7832 C.ar    1  UNL1        0.0166
     39 C           5.4332   -2.1417   19.7924 C.ar    1  UNL1        0.0063
     40 C           5.1552   -2.0226   18.3232 C.ar    1  UNL1        0.0608
     41 C           3.9780   -1.2253   17.8449 C.ar    1  UNL1        0.2610
     42 O           3.7000   -1.1062   16.3757 O.2     1  UNL1       -0.2670
     43 N           3.0789   -0.5472   18.8357 N.ar    1  UNL1       -0.2935
     44 C           1.9018    0.2500   18.3575 C.3     1  UNL1        0.1335
     45 C           4.8121   -1.5827   22.2524 C.ar    1  UNL1        0.0097
@<TRIPOS>BOND
     1    29    30    1
     2    30    27    1
     3    27    28    1
     4    27    23    1
     5    23    24    2
     6    23    25   am
     7    25     1    1
     8     1     2   ar
     9     2     3   ar
    10     3     4   ar
    11     4     7    1
    12     7     8   ar
    13     8    17    1
    14    17    18   ar
    15    18    19   ar
    16    19    20   ar
    17    20    21   ar
    18    21    22   ar
    19     8     9   ar
    20     9    10   ar
    21    10    11   ar
    22    11    12   ar
    23    12    13    1
    24    12    14   ar
    25    14    15   ar
    26    15    16   ar
    27     4     5   ar
    28     5    32    1
    29    32    33    3
    30    33    34    1
    31    34    35   ar
    32    35    36   ar
    33    36    37   ar
    34    37    38   ar
    35    38    39   ar
    36    39    40   ar
    37    40    41   ar
    38    41    42    2
    39    41    43   ar
    40    43    44    1
    41    38    45   ar
    42     5     6   ar
    43     6     1   ar
    44    16     7   ar
    45    45    34   ar
    46    22    17   ar
    47    16    10   ar
    48    43    37   ar
    49    30    31    1
    50    25    26    1
@<TRIPOS>MOLECULE
*****
 45 50 0 0 0
SMALL
GASTEIGER

@<TRIPOS>ATOM
      1 C           2.5184    0.0524   29.9624 C.ar    1  UNL1        0.1348
      2 C           1.9151    1.3875   30.2840 C.ar    1  UNL1        0.0346
      3 C           1.5750    2.3426   29.1785 C.ar    1  UNL1        0.0065
      4 C           1.8383    1.9627   27.7516 C.ar    1  UNL1        0.0432
      5 C           2.4416    0.6276   27.4300 C.ar    1  UNL1        0.1256
      6 N           2.7817   -0.3275   28.5355 N.ar    1  UNL1       -0.2222
      7 C           1.4982    2.9179   26.6461 C.ar    1  UNL1        0.0850
      8 C           2.4772    3.7237   25.8447 C.ar    1  UNL1        0.0991
      9 N           1.7034    4.5388   24.8513 N.ar    1  UNL1       -0.2265
     10 C           0.2461    4.2368   25.0387 C.ar    1  UNL1        0.1474
     11 C          -0.9817    4.7445   24.3426 C.ar    1  UNL1        0.0332
     12 C          -2.3364    4.2505   24.7558 C.ar    1  UNL1       -0.0174
     13 C          -3.5643    4.7583   24.0597 C.3     1  UNL1        0.0312
     14 C          -2.4634    3.2488   25.8651 C.ar    1  UNL1        0.0149
     15 C          -1.2355    2.7410   26.5611 C.ar    1  UNL1        0.0811
     16 N           0.1193    3.2350   26.1480 N.ar    1  UNL1       -0.2888
     17 C           3.9683    3.7157   26.0081 C.ar    1  UNL1        0.0222
     18 C           4.5883    4.2575   27.2620 C.ar    1  UNL1        0.0222
     19 C           6.0794    4.2496   27.4253 C.ar    1  UNL1        0.0989
     20 N           6.9504    3.6999   26.3349 N.ar    1  UNL1       -0.2423
     21 C           6.3304    3.1582   25.0810 C.ar    1  UNL1        0.0989
     22 C           4.8393    3.1661   24.9177 C.ar    1  UNL1        0.0222
     23 C           4.2202   -0.8688   31.6960 C.2     1  UNL1        0.2414
     24 O           5.2419    0.1205   31.2188 O.2     1  UNL1       -0.2733
     25 N           2.8585   -0.9028   31.0679 N.am    1  UNL1       -0.2682
     26 H           2.1880   -1.5520   31.3811 H       1  UNL1        0.1563
     27 C           4.5603   -1.8239   32.8015 C.3     1  UNL1        0.1319
     28 C           4.2926   -1.4459   34.2282 C.3     1  UNL1        0.0270
     29 C           6.6233   -3.2530   32.1292 C.3     1  UNL1        0.0862
     30 N           5.1681   -3.1571   32.4802 N.3     1  UNL1       -0.2902
     31 H           5.0222   -3.7515   33.2962 H       1  UNL1        0.1237
     32 C           2.7049    0.2477   26.0030 C.1     1  UNL1       -0.0404
     33 C           2.9683   -0.1323   24.5760 C.1     1  UNL1       -0.0583
     34 C           3.2316   -0.5122   23.1490 C.ar    1  UNL1        0.0421
     35 C           3.9127   -1.8105   22.8320 C.ar    1  UNL1        0.0097
     36 C           4.1760   -2.1904   21.4050 C.ar    1  UNL1        0.0179
     37 C           3.7581   -1.2721   20.2950 C.ar    1  UNL1        0.0625
     38 C           3.0770    0.0262   20.6120 C.ar    1  UNL1        0.0166
     39 C           2.6591    0.9445   19.5021 C.ar    1  UNL1        0.0063
     40 C           2.9224    0.5646   18.0751 C.ar    1  UNL1        0.0608
     41 C           3.6036   -0.7337   17.7580 C.ar    1  UNL1        0.2610
     42 O           3.8669   -1.1136   16.3310 O.2     1  UNL1       -0.2670
     43 N           4.0214   -1.6520   18.8680 N.ar    1  UNL1       -0.2935
     44 C           4.7026   -2.9503   18.5510 C.3     1  UNL1        0.1335
     45 C           2.8137    0.4061   22.0390 C.ar    1  UNL1        0.0097
@<TRIPOS>BOND
     1    29    30    1
     2    30    27    1
     3    27    28    1
     4    27    23    1
     5    23    24    2
     6    23    25   am
     7    25     1    1
     8     1     2   ar
     9     2     3   ar
    10     3     4   ar
    11     4     7    1
    12     7     8   ar
    13     8    17    1
    14    17    18   ar
    15    18    19   ar
    16    19    20   ar
    17    20    21   ar
    18    21    22   ar
    19     8     9   ar
    20     9    10   ar
    21    10    11   ar
    22    11    12   ar
    23    12    13    1
    24    12    14   ar
    25    14    15   ar
    26    15    16   ar
    27     4     5   ar
    28     5    32    1
    29    32    33    3
    30    33    34    1
    31    34    35   ar
    32    35    36   ar
    33    36    37   ar
    34    37    38   ar
    35    38    39   ar
    36    39    40   ar
    37    40    41   ar
    38    41    42    2
    39    41    43   ar
    40    43    44    1
    41    38    45   ar
    42     5     6   ar
    43     6     1   ar
    44    16     7   ar
    45    45    34   ar
    46    22    17   ar
    47    16    10   ar
    48    43    37   ar
    49    30    31    1
    50    25    26    1
@<TRIPOS>MOLECULE
*****
 45 50 0 0 0
SMALL
GASTEIGER

@<TRIPOS>ATOM
      1 C          -2.5638    4.9434   24.9436 C.ar    1  UNL1        0.1348
      2 C          -1.9091    5.7047   26.0580 C.ar    1  UNL1        0.0346
      3 C          -0.4912    5.4010   26.4420 C.ar    1  UNL1        0.0065
      4 C           0.2720    4.3361   25.7116 C.ar    1  UNL1        0.0432
      5 C          -0.3827    3.5749   24.5972 C.ar    1  UNL1        0.1256
      6 N          -1.8006    3.8785   24.2133 N.ar    1  UNL1       -0.2222
      7 C           1.6899    4.0325   26.0956 C.ar    1  UNL1        0.0850
      8 C           2.1286    3.0658   27.1553 C.ar    1  UNL1        0.0991
      9 N           3.6279    3.0780   27.2019 N.ar    1  UNL1       -0.2265
     10 C           4.1157    4.0524   26.1710 C.ar    1  UNL1        0.1474
     11 C           5.4958    4.4786   25.7666 C.ar    1  UNL1        0.0332
     12 C           5.6781    5.4948   24.6784 C.ar    1  UNL1       -0.0174
     13 C           7.0582    5.9211   24.2739 C.3     1  UNL1        0.0312
     14 C           4.4804    6.0847   23.9946 C.ar    1  UNL1        0.0149
     15 C           3.1003    5.6584   24.3990 C.ar    1  UNL1        0.0811
     16 N           2.9179    4.6422   25.4873 N.ar    1  UNL1       -0.2888
     17 C           1.2265    2.2330   28.0171 C.ar    1  UNL1        0.0222
     18 C           0.3977    1.1440   27.4026 C.ar    1  UNL1        0.0222
     19 C          -0.5044    0.3112   28.2644 C.ar    1  UNL1        0.0989
     20 N          -0.5777    0.5673   29.7406 N.ar    1  UNL1       -0.2423
     21 C           0.2511    1.6561   30.3550 C.ar    1  UNL1        0.0989
     22 C           1.1532    2.4889   29.4932 C.ar    1  UNL1        0.0222
     23 C          -5.1136    4.7032   25.3798 C.2     1  UNL1        0.2414
     24 O          -4.8278    3.8557   26.5841 O.2     1  UNL1       -0.2733
     25 N          -3.9816    5.2471   24.5597 N.am    1  UNL1       -0.2682
     26 H          -4.1692    5.8033   23.7693 H       1  UNL1        0.1563
     27 C          -6.5315    5.0069   24.9959 C.3     1  UNL1        0.1319
     28 C          -7.2563    6.1486   25.6450 C.3     1  UNL1        0.0270
     29 C          -6.8990    4.3486   22.5096 C.3     1  UNL1        0.0862
     30 N          -7.2246    4.1689   23.9628 N.3     1  UNL1       -0.2902
     31 H          -7.0248    3.1951   24.1911 H       1  UNL1        0.1237
     32 C           0.3805    2.5099   23.8668 C.1     1  UNL1       -0.0404
     33 C           1.1436    1.4450   23.1363 C.1     1  UNL1       -0.0583
     34 C           1.9068    0.3801   22.4059 C.ar    1  UNL1        0.0421
     35 C           1.7451    0.2250   20.9227 C.ar    1  UNL1        0.0097
     36 C           2.5082   -0.8399   20.1924 C.ar    1  UNL1        0.0179
     37 C           3.4331   -1.7498   20.9451 C.ar    1  UNL1        0.0625
     38 C           3.5949   -1.5947   22.4283 C.ar    1  UNL1        0.0166
     39 C           4.5198   -2.5046   23.1810 C.ar    1  UNL1        0.0063
     40 C           5.2830   -3.5695   22.4507 C.ar    1  UNL1        0.0608
     41 C           5.1212   -3.7246   20.9675 C.ar    1  UNL1        0.2610
     42 O           5.8844   -4.7895   20.2371 O.2     1  UNL1       -0.2670
     43 N           4.1963   -2.8147   20.2147 N.ar    1  UNL1       -0.2935
     44 C           4.0346   -2.9697   18.7315 C.3     1  UNL1        0.1335
     45 C           2.8317   -0.5298   23.1586 C.ar    1  UNL1        0.0097
@<TRIPOS>BOND
     1    29    30    1
     2    30    27    1
     3    27    28    1
     4    27    23    1
     5    23    24    2
     6    23    25   am
     7    25     1    1
     8     1     2   ar
     9     2     3   ar
    10     3     4   ar
    11     4     7    1
    12     7     8   ar
    13     8    17    1
    14    17    18   ar
    15    18    19   ar
    16    19    20   ar
    17    20    21   ar
    18    21    22   ar
    19     8     9   ar
    20     9    10   ar
    21    10    11   ar
    22    11    12   ar
    23    12    13    1
    24    12    14   ar
    25    14    15   ar
    26    15    16   ar
    27     4     5   ar
    28     5    32    1
    29    32    33    3
    30    33    34    1
    31    34    35   ar
    32    35    36   ar
    33    36    37   ar
    34    37    38   ar
    35    38    39   ar
    36    39    40   ar
    37    40    41   ar
    38    41    42    2
    39    41    43   ar
    40    43    44    1
    41    38    45   ar
    42     5     6   ar
    43     6     1   ar
    44    16     7   ar
    45    45    34   ar
    46    22    17   ar
    47    16    10   ar
    48    43    37   ar
    49    30    31    1
    50    25    26    1
@<TRIPOS>MOLECULE
*****
 45 50 0 0 0
SMALL
GASTEIGER

@<TRIPOS>ATOM
      1 C          -2.4316    4.4685   18.4833 C.ar    1  UNL1        0.1348
      2 C          -1.5093    4.3922   17.3029 C.ar    1  UNL1        0.0346
      3 C          -0.1436    3.7909   17.4557 C.ar    1  UNL1        0.0065
      4 C           0.2998    3.2658   18.7890 C.ar    1  UNL1        0.0432
      5 C          -0.6226    3.3421   19.9695 C.ar    1  UNL1        0.1256
      6 N          -1.9882    3.9435   19.8166 N.ar    1  UNL1       -0.2222
      7 C           1.6654    2.6645   18.9419 C.ar    1  UNL1        0.0850
      8 C           2.9701    3.3806   18.7546 C.ar    1  UNL1        0.0991
      9 N           4.0772    2.4001   19.0058 N.ar    1  UNL1       -0.2265
     10 C           3.4568    1.0781   19.3483 C.ar    1  UNL1        0.1474
     11 C           4.0565   -0.2533   19.6911 C.ar    1  UNL1        0.0332
     12 C           3.1656   -1.4214   19.9944 C.ar    1  UNL1       -0.0174
     13 C           3.7653   -2.7529   20.3372 C.3     1  UNL1        0.0312
     14 C           1.6750   -1.2581   19.9549 C.ar    1  UNL1        0.0149
     15 C           1.0753    0.0734   19.6121 C.ar    1  UNL1        0.0811
     16 N           1.9662    1.2415   19.3088 N.ar    1  UNL1       -0.2888
     17 C           3.1382    4.8237   18.3816 C.ar    1  UNL1        0.0222
     18 C           2.9441    5.8931   19.4155 C.ar    1  UNL1        0.0222
     19 C           3.1122    7.3362   19.0425 C.ar    1  UNL1        0.0989
     20 N           3.4744    7.7100   17.6357 N.ar    1  UNL1       -0.2423
     21 C           3.6684    6.6406   16.6018 C.ar    1  UNL1        0.0989
     22 C           3.5003    5.1975   16.9749 C.ar    1  UNL1        0.0222
     23 C          -4.8009    4.4293   17.4182 C.2     1  UNL1        0.2414
     24 O          -4.4390    3.1874   16.6588 O.2     1  UNL1       -0.2733
     25 N          -3.7972    5.0698   18.3305 N.am    1  UNL1       -0.2682
     26 H          -4.0348    5.8849   18.8289 H       1  UNL1        0.1563
     27 C          -6.1666    5.0307   17.2654 C.3     1  UNL1        0.1319
     28 C          -6.4284    6.0306   16.1783 C.3     1  UNL1        0.0270
     29 C          -7.3348    5.2193   19.5783 C.3     1  UNL1        0.0862
     30 N          -7.2704    4.6321   18.1995 N.3     1  UNL1       -0.2902
     31 H          -8.1479    4.8698   17.7369 H       1  UNL1        0.1237
     32 C          -0.1792    2.8171   21.3028 C.1     1  UNL1       -0.0404
     33 C           0.2641    2.2920   22.6361 C.1     1  UNL1       -0.0583
     34 C           0.7075    1.7669   23.9695 C.ar    1  UNL1        0.0421
     35 C           2.0790    1.1801   24.1262 C.ar    1  UNL1        0.0097
     36 C           2.5222    0.6551   25.4595 C.ar    1  UNL1        0.0179
     37 C           1.5940    0.7169   26.6362 C.ar    1  UNL1        0.0625
     38 C           0.2225    1.3037   26.4795 C.ar    1  UNL1        0.0166
     39 C          -0.7057    1.3655   27.6562 C.ar    1  UNL1        0.0063
     40 C          -0.2624    0.8405   28.9895 C.ar    1  UNL1        0.0608
     41 C           1.1091    0.2536   29.1462 C.ar    1  UNL1        0.2610
     42 O           1.5524   -0.2714   30.4796 O.2     1  UNL1       -0.2670
     43 N           2.0374    0.1918   27.9695 N.ar    1  UNL1       -0.2935
     44 C           3.4089   -0.3950   28.1262 C.3     1  UNL1        0.1335
     45 C          -0.2207    1.8288   25.1462 C.ar    1  UNL1        0.0097
@<TRIPOS>BOND
     1    29    30    1
     2    30    27    1
     3    27    28    1
     4    27    23    1
     5    23    24    2
     6    23    25   am
     7    25     1    1
     8     1     2   ar
     9     2     3   ar
    10     3     4   ar
    11     4     7    1
    12     7     8   ar
    13     8    17    1
    14    17    18   ar
    15    18    19   ar
    16    19    20   ar
    17    20    21   ar
    18    21    22   ar
    19     8     9   ar
    20     9    10   ar
    21    10    11   ar
    22    11    12   ar
    23    12    13    1
    24    12    14   ar
    25    14    15   ar
    26    15    16   ar
    27     4     5   ar
    28     5    32    1
    29    32    33    3
    30    33    34    1
    31    34    35   ar
    32    35    36   ar
    33    36    37   ar
    34    37    38   ar
    35    38    39   ar
    36    39    40   ar
    37    40    41   ar
    38    41    42    2
    39    41    43   ar
    40    43    44    1
    41    38    45   ar
    42     5     6   ar
    43     6     1   ar
    44    16     7   ar
    45    45    34   ar
    46    22    17   ar
    47    16    10   ar
    48    43    37   ar
    49    30    31    1
    50    25    26    1
@<TRIPOS>MOLECULE
*****
 45 50 0 0 0
SMALL
GASTEIGER

@<TRIPOS>ATOM
      1 C          -3.0170    4.5944   23.7560 C.ar    1  UNL1        0.1348
      2 C          -2.6804    5.2104   25.0815 C.ar    1  UNL1        0.0346
      3 C          -1.4196    4.8174   25.7927 C.ar    1  UNL1        0.0065
      4 C          -0.4953    3.8084   25.1784 C.ar    1  UNL1        0.0432
      5 C          -0.8319    3.1923   23.8528 C.ar    1  UNL1        0.1256
      6 N          -2.0927    3.5853   23.1416 N.ar    1  UNL1       -0.2222
      7 C           0.7656    3.4154   25.8896 C.ar    1  UNL1        0.0850
      8 C           2.1281    3.9971   25.6550 C.ar    1  UNL1        0.0991
      9 N           3.0899    3.3129   26.5807 N.ar    1  UNL1       -0.2265
     10 C           2.3218    2.3083   27.3874 C.ar    1  UNL1        0.1474
     11 C           2.7448    1.3441   28.4557 C.ar    1  UNL1        0.0332
     12 C           1.7312    0.4432   29.0968 C.ar    1  UNL1       -0.0174
     13 C           2.1542   -0.5211   30.1651 C.3     1  UNL1        0.0312
     14 C           0.2947    0.5065   28.6697 C.ar    1  UNL1        0.0149
     15 C          -0.1283    1.4707   27.6014 C.ar    1  UNL1        0.0811
     16 N           0.8853    2.3717   26.9602 N.ar    1  UNL1       -0.2888
     17 C           2.4691    5.0740   24.6680 C.ar    1  UNL1        0.0222
     18 C           3.2496    4.7385   23.4317 C.ar    1  UNL1        0.0222
     19 C           3.5906    5.8153   22.4447 C.ar    1  UNL1        0.0989
     20 N           3.1510    7.2277   22.6940 N.ar    1  UNL1       -0.2423
     21 C           2.3705    7.5631   23.9302 C.ar    1  UNL1        0.0989
     22 C           2.0296    6.4862   24.9172 C.ar    1  UNL1        0.0222
     23 C          -5.3174    3.9517   22.7336 C.2     1  UNL1        0.2414
     24 O          -5.0961    2.5231   23.1337 O.2     1  UNL1       -0.2733
     25 N          -4.2779    4.9873   23.0447 N.am    1  UNL1       -0.2682
     26 H          -4.4231    5.9250   22.7822 H       1  UNL1        0.1563
     27 C          -6.5783    4.3447   22.0224 C.3     1  UNL1        0.1319
     28 C          -6.5636    4.5709   20.5396 C.3     1  UNL1        0.0270
     29 C          -7.8219    5.0795   24.1819 C.3     1  UNL1        0.0862
     30 N          -7.8537    4.5116   22.7940 N.3     1  UNL1       -0.2902
     31 H          -8.4553    5.1212   22.2401 H       1  UNL1        0.1237
     32 C           0.0924    2.1832   23.2384 C.1     1  UNL1       -0.0404
     33 C           1.0167    1.1742   22.6240 C.1     1  UNL1       -0.0583
     34 C           1.9410    0.1650   22.0096 C.ar    1  UNL1        0.0421
     35 C           1.9962    0.0084   20.5189 C.ar    1  UNL1        0.0097
     36 C           2.9204   -1.0007   19.9045 C.ar    1  UNL1        0.0179
     37 C           3.7896   -1.8531   20.7809 C.ar    1  UNL1        0.0625
     38 C           3.7344   -1.6964   22.2717 C.ar    1  UNL1        0.0166
     39 C           4.6036   -2.5488   23.1480 C.ar    1  UNL1        0.0063
     40 C           5.5278   -3.5578   22.5337 C.ar    1  UNL1        0.0608
     41 C           5.5830   -3.7146   21.0429 C.ar    1  UNL1        0.2610
     42 O           6.5073   -4.7236   20.4285 O.2     1  UNL1       -0.2670
     43 N           4.7139   -2.8622   20.1665 N.ar    1  UNL1       -0.2935
     44 C           4.7690   -3.0189   18.6757 C.3     1  UNL1        0.1335
     45 C           2.8102   -0.6873   22.8860 C.ar    1  UNL1        0.0097
@<TRIPOS>BOND
     1    29    30    1
     2    30    27    1
     3    27    28    1
     4    27    23    1
     5    23    24    2
     6    23    25   am
     7    25     1    1
     8     1     2   ar
     9     2     3   ar
    10     3     4   ar
    11     4     7    1
    12     7     8   ar
    13     8    17    1
    14    17    18   ar
    15    18    19   ar
    16    19    20   ar
    17    20    21   ar
    18    21    22   ar
    19     8     9   ar
    20     9    10   ar
    21    10    11   ar
    22    11    12   ar
    23    12    13    1
    24    12    14   ar
    25    14    15   ar
    26    15    16   ar
    27     4     5   ar
    28     5    32    1
    29    32    33    3
    30    33    34    1
    31    34    35   ar
    32    35    36   ar
    33    36    37   ar
    34    37    38   ar
    35    38    39   ar
    36    39    40   ar
    37    40    41   ar
    38    41    42    2
    39    41    43   ar
    40    43    44    1
    41    38    45   ar
    42     5     6   ar
    43     6     1   ar
    44    16     7   ar
    45    45    34   ar
    46    22    17   ar
    47    16    10   ar
    48    43    37   ar
    49    30    31    1
    50    25    26    1
@<TRIPOS>MOLECULE
*****
 45 50 0 0 0
SMALL
GASTEIGER

@<TRIPOS>ATOM
      1 C          -3.6748    4.1141   25.1267 C.ar    1  UNL1        0.1348
      2 C          -3.1524    4.9672   26.2443 C.ar    1  UNL1        0.0346
      3 C          -1.6828    4.9934   26.5439 C.ar    1  UNL1        0.0065
      4 C          -0.7357    4.1665   25.7258 C.ar    1  UNL1        0.0432
      5 C          -1.2582    3.3134   24.6082 C.ar    1  UNL1        0.1256
      6 N          -2.7278    3.2872   24.3086 N.ar    1  UNL1       -0.2222
      7 C           0.7338    4.1927   26.0254 C.ar    1  UNL1        0.0850
      8 C           1.4343    3.3815   27.0748 C.ar    1  UNL1        0.0991
      9 N           2.8943    3.7222   27.0261 N.ar    1  UNL1       -0.2265
     10 C           3.0962    4.7440   25.9467 C.ar    1  UNL1        0.1474
     11 C           4.3233    5.4472   25.4470 C.ar    1  UNL1        0.0332
     12 C           4.2151    6.4412   24.3289 C.ar    1  UNL1       -0.0174
     13 C           5.4422    7.1444   23.8293 C.3     1  UNL1        0.0312
     14 C           2.8799    6.7320   23.7104 C.ar    1  UNL1        0.0149
     15 C           1.6527    6.0288   24.2100 C.ar    1  UNL1        0.0811
     16 N           1.7609    5.0348   25.3282 N.ar    1  UNL1       -0.2888
     17 C           0.7883    2.4016   28.0088 C.ar    1  UNL1        0.0222
     18 C           0.0662    1.2066   27.4602 C.ar    1  UNL1        0.0222
     19 C          -0.5798    0.2267   28.3943 C.ar    1  UNL1        0.0989
     20 N          -0.5038    0.4417   29.8768 N.ar    1  UNL1       -0.2423
     21 C           0.2182    1.6366   30.4253 C.ar    1  UNL1        0.0989
     22 C           0.8642    2.6165   29.4913 C.ar    1  UNL1        0.0222
     23 C          -5.7603    5.1755   23.9978 C.2     1  UNL1        0.2414
     24 O          -4.9066    6.2894   23.4681 O.2     1  UNL1       -0.2733
     25 N          -5.1444    4.0879   24.8271 N.am    1  UNL1       -0.2682
     26 H          -5.7047    3.3568   25.1747 H       1  UNL1        0.1563
     27 C          -7.2298    5.1493   23.6982 C.3     1  UNL1        0.1319
     28 C          -8.2068    5.7151   24.6859 C.3     1  UNL1        0.0270
     29 C          -6.9543    4.7779   21.1417 C.3     1  UNL1        0.0862
     30 N          -7.7224    4.5573   22.4111 N.3     1  UNL1       -0.2902
     31 H          -7.7748    3.5484   22.5520 H       1  UNL1        0.1237
     32 C          -0.3111    2.4865   23.7900 C.1     1  UNL1       -0.0404
     33 C           0.6359    1.6597   22.9719 C.1     1  UNL1       -0.0583
     34 C           1.5830    0.8327   22.1537 C.ar    1  UNL1        0.0421
     35 C           2.4981   -0.1463   22.8275 C.ar    1  UNL1        0.0097
     36 C           3.4451   -0.9732   22.0093 C.ar    1  UNL1        0.0179
     37 C           3.4770   -0.8210   20.5174 C.ar    1  UNL1        0.0625
     38 C           2.5619    0.1581   19.8436 C.ar    1  UNL1        0.0166
     39 C           2.5939    0.3103   18.3517 C.ar    1  UNL1        0.0063
     40 C           3.5409   -0.5165   17.5336 C.ar    1  UNL1        0.0608
     41 C           4.4560   -1.4957   18.2073 C.ar    1  UNL1        0.2610
     42 O           5.4030   -2.3225   17.3891 O.2     1  UNL1       -0.2670
     43 N           4.4241   -1.6479   19.6992 N.ar    1  UNL1       -0.2935
     44 C           5.3392   -2.6270   20.3730 C.3     1  UNL1        0.1335
     45 C           1.6149    0.9850   20.6618 C.ar    1  UNL1        0.0097
@<TRIPOS>BOND
     1    29    30    1
     2    30    27    1
     3    27    28    1
     4    27    23    1
     5    23    24    2
     6    23    25   am
     7    25     1    1
     8     1     2   ar
     9     2     3   ar
    10     3     4   ar
    11     4     7    1
    12     7     8   ar
    13     8    17    1
    14    17    18   ar
    15    18    19   ar
    16    19    20   ar
    17    20    21   ar
    18    21    22   ar
    19     8     9   ar
    20     9    10   ar
    21    10    11   ar
    22    11    12   ar
    23    12    13    1
    24    12    14   ar
    25    14    15   ar
    26    15    16   ar
    27     4     5   ar
    28     5    32    1
    29    32    33    3
    30    33    34    1
    31    34    35   ar
    32    35    36   ar
    33    36    37   ar
    34    37    38   ar
    35    38    39   ar
    36    39    40   ar
    37    40    41   ar
    38    41    42    2
    39    41    43   ar
    40    43    44    1
    41    38    45   ar
    42     5     6   ar
    43     6     1   ar
    44    16     7   ar
    45    45    34   ar
    46    22    17   ar
    47    16    10   ar
    48    43    37   ar
    49    30    31    1
    50    25    26    1
@<TRIPOS>MOLECULE
*****
 45 50 0 0 0
SMALL
GASTEIGER

@<TRIPOS>ATOM
      1 C          -0.2307    2.0085   20.7564 C.ar    1  UNL1        0.1348
      2 C           0.1647    2.0619   19.3105 C.ar    1  UNL1        0.0346
      3 C           1.4201    1.3818   18.8506 C.ar    1  UNL1        0.0065
      4 C           2.2800    0.6483   19.8367 C.ar    1  UNL1        0.0432
      5 C           1.8846    0.5948   21.2826 C.ar    1  UNL1        0.1256
      6 N           0.6292    1.2749   21.7424 N.ar    1  UNL1       -0.2222
      7 C           3.5354   -0.0318   19.3768 C.ar    1  UNL1        0.0850
      8 C           4.8088    0.6488   18.9703 C.ar    1  UNL1        0.0991
      9 N           5.7982   -0.4107   18.5849 N.ar    1  UNL1       -0.2265
     10 C           5.1364   -1.7462   18.7533 C.ar    1  UNL1        0.1474
     11 C           5.6264   -3.1452   18.5242 C.ar    1  UNL1        0.0332
     12 C           4.7180   -4.3101   18.7845 C.ar    1  UNL1       -0.0174
     13 C           5.2081   -5.7092   18.5554 C.3     1  UNL1        0.0312
     14 C           3.3195   -4.0761   19.2739 C.ar    1  UNL1        0.0149
     15 C           2.8294   -2.6770   19.5030 C.ar    1  UNL1        0.0811
     16 N           3.7379   -1.5120   19.2427 N.ar    1  UNL1       -0.2888
     17 C           5.0503    2.1292   18.9522 C.ar    1  UNL1        0.0222
     18 C           5.1479    2.8889   20.2420 C.ar    1  UNL1        0.0222
     19 C           5.3894    4.3693   20.2240 C.ar    1  UNL1        0.0989
     20 N           5.5334    5.0898   18.9163 N.ar    1  UNL1       -0.2423
     21 C           5.4358    4.3301   17.6266 C.ar    1  UNL1        0.0989
     22 C           5.1943    2.8498   17.6447 C.ar    1  UNL1        0.0222
     23 C          -1.4041    3.9718   21.9885 C.2     1  UNL1        0.2414
     24 O          -0.0668    4.5751   22.3009 O.2     1  UNL1       -0.2733
     25 N          -1.4861    2.6885   21.2163 N.am    1  UNL1       -0.2682
     26 H          -2.3639    2.2926   21.0113 H       1  UNL1        0.1563
     27 C          -2.6595    4.6519   22.4484 C.3     1  UNL1        0.1319
     28 C          -2.5859    5.7602   23.4566 C.3     1  UNL1        0.0270
     29 C          -4.8410    3.2581   22.6685 C.3     1  UNL1        0.0862
     30 N          -3.9884    4.2239   21.9001 N.3     1  UNL1       -0.2902
     31 H          -4.5424    5.0712   21.7757 H       1  UNL1        0.1237
     32 C           2.7445   -0.1389   22.2687 C.1     1  UNL1       -0.0404
     33 C           3.6044   -0.8725   23.2548 C.1     1  UNL1       -0.0583
     34 C           4.4643   -1.6061   24.2409 C.ar    1  UNL1        0.0421
     35 C           4.4756   -1.1896   25.6818 C.ar    1  UNL1        0.0097
     36 C           5.3355   -1.9232   26.6679 C.ar    1  UNL1        0.0179
     37 C           6.1842   -3.0733   26.2130 C.ar    1  UNL1        0.0625
     38 C           6.1729   -3.4899   24.7721 C.ar    1  UNL1        0.0166
     39 C           7.0216   -4.6400   24.3172 C.ar    1  UNL1        0.0063
     40 C           7.8815   -5.3736   25.3032 C.ar    1  UNL1        0.0608
     41 C           7.8928   -4.9571   26.7442 C.ar    1  UNL1        0.2610
     42 O           8.7527   -5.6907   27.7303 O.2     1  UNL1       -0.2670
     43 N           7.0441   -3.8069   27.1991 N.ar    1  UNL1       -0.2935
     44 C           7.0554   -3.3904   28.6400 C.3     1  UNL1        0.1335
     45 C           5.3130   -2.7562   23.7860 C.ar    1  UNL1        0.0097
@<TRIPOS>BOND
     1    29    30    1
     2    30    27    1
     3    27    28    1
     4    27    23    1
     5    23    24    2
     6    23    25   am
     7    25     1    1
     8     1     2   ar
     9     2     3   ar
    10     3     4   ar
    11     4     7    1
    12     7     8   ar
    13     8    17    1
    14    17    18   ar
    15    18    19   ar
    16    19    20   ar
    17    20    21   ar
    18    21    22   ar
    19     8     9   ar
    20     9    10   ar
    21    10    11   ar
    22    11    12   ar
    23    12    13    1
    24    12    14   ar
    25    14    15   ar
    26    15    16   ar
    27     4     5   ar
    28     5    32    1
    29    32    33    3
    30    33    34    1
    31    34    35   ar
    32    35    36   ar
    33    36    37   ar
    34    37    38   ar
    35    38    39   ar
    36    39    40   ar
    37    40    41   ar
    38    41    42    2
    39    41    43   ar
    40    43    44    1
    41    38    45   ar
    42     5     6   ar
    43     6     1   ar
    44    16     7   ar
    45    45    34   ar
    46    22    17   ar
    47    16    10   ar
    48    43    37   ar
    49    30    31    1
    50    25    26    1
@<TRIPOS>MOLECULE
*****
 45 50 0 0 0
SMALL
GASTEIGER

@<TRIPOS>ATOM
      1 C           2.6246    0.2886   28.2209 C.ar    1  UNL1        0.1348
      2 C           3.7099    0.3577   27.1879 C.ar    1  UNL1        0.0346
      3 C           3.4621    1.0593   25.8855 C.ar    1  UNL1        0.0065
      4 C           2.1290    1.6919   25.6161 C.ar    1  UNL1        0.0432
      5 C           1.0437    1.6228   26.6492 C.ar    1  UNL1        0.1256
      6 N           1.2915    0.9212   27.9516 N.ar    1  UNL1       -0.2222
      7 C           1.8812    2.3936   24.3137 C.ar    1  UNL1        0.0850
      8 C           1.7155    3.8726   24.1266 C.ar    1  UNL1        0.0991
      9 N           1.4875    4.1325   22.6670 N.ar    1  UNL1       -0.2265
     10 C           1.5123    2.8141   21.9520 C.ar    1  UNL1        0.1474
     11 C           1.3448    2.4534   20.5057 C.ar    1  UNL1        0.0332
     12 C           1.4206    1.0179   20.0771 C.ar    1  UNL1       -0.0174
     13 C           1.2531    0.6571   18.6308 C.3     1  UNL1        0.0312
     14 C           1.6640   -0.0569   21.0948 C.ar    1  UNL1        0.0149
     15 C           1.8315    0.3039   22.5411 C.ar    1  UNL1        0.0811
     16 N           1.7557    1.7394   22.9697 N.ar    1  UNL1       -0.2888
     17 C           1.7684    4.9097   25.2090 C.ar    1  UNL1        0.0222
     18 C           0.5800    5.7888   25.4642 C.ar    1  UNL1        0.0222
     19 C           0.6330    6.8259   26.5466 C.ar    1  UNL1        0.0989
     20 N           1.8742    6.9838   27.3739 N.ar    1  UNL1       -0.2423
     21 C           3.0625    6.1047   27.1188 C.ar    1  UNL1        0.0989
     22 C           3.0095    5.0677   26.0363 C.ar    1  UNL1        0.0222
     23 C           3.1754    0.3827   30.7582 C.2     1  UNL1        0.2414
     24 O           3.2307    1.8802   30.6907 O.2     1  UNL1       -0.2733
     25 N           2.8724   -0.4130   29.5234 N.am    1  UNL1       -0.2682
     26 H           2.8361   -1.3959   29.5677 H       1  UNL1        0.1563
     27 C           3.4232   -0.3189   32.0606 C.3     1  UNL1        0.1319
     28 C           3.5253    0.4720   33.3311 C.3     1  UNL1        0.0270
     29 C           4.6442   -2.4423   32.9267 C.3     1  UNL1        0.0862
     30 N           3.5690   -1.8114   32.0926 N.3     1  UNL1       -0.2902
     31 H           2.6805   -2.1870   32.4243 H       1  UNL1        0.1237
     32 C          -0.2895    2.2554   26.3798 C.1     1  UNL1       -0.0404
     33 C          -1.6226    2.8880   26.1105 C.1     1  UNL1       -0.0583
     34 C          -2.9559    3.5206   25.8411 C.ar    1  UNL1        0.0421
     35 C          -3.6097    4.3683   26.8917 C.ar    1  UNL1        0.0097
     36 C          -4.9428    5.0008   26.6224 C.ar    1  UNL1        0.0179
     37 C          -5.6221    4.7856   25.3024 C.ar    1  UNL1        0.0625
     38 C          -4.9683    3.9379   24.2518 C.ar    1  UNL1        0.0166
     39 C          -5.6476    3.7227   22.9319 C.ar    1  UNL1        0.0063
     40 C          -6.9807    4.3552   22.6625 C.ar    1  UNL1        0.0608
     41 C          -7.6346    5.2030   23.7132 C.ar    1  UNL1        0.2610
     42 O          -8.9678    5.8355   23.4438 O.2     1  UNL1       -0.2670
     43 N          -6.9553    5.4182   25.0331 N.ar    1  UNL1       -0.2935
     44 C          -7.6092    6.2660   26.0837 C.3     1  UNL1        0.1335
     45 C          -3.6352    3.3053   24.5212 C.ar    1  UNL1        0.0097
@<TRIPOS>BOND
     1    29    30    1
     2    30    27    1
     3    27    28    1
     4    27    23    1
     5    23    24    2
     6    23    25   am
     7    25     1    1
     8     1     2   ar
     9     2     3   ar
    10     3     4   ar
    11     4     7    1
    12     7     8   ar
    13     8    17    1
    14    17    18   ar
    15    18    19   ar
    16    19    20   ar
    17    20    21   ar
    18    21    22   ar
    19     8     9   ar
    20     9    10   ar
    21    10    11   ar
    22    11    12   ar
    23    12    13    1
    24    12    14   ar
    25    14    15   ar
    26    15    16   ar
    27     4     5   ar
    28     5    32    1
    29    32    33    3
    30    33    34    1
    31    34    35   ar
    32    35    36   ar
    33    36    37   ar
    34    37    38   ar
    35    38    39   ar
    36    39    40   ar
    37    40    41   ar
    38    41    42    2
    39    41    43   ar
    40    43    44    1
    41    38    45   ar
    42     5     6   ar
    43     6     1   ar
    44    16     7   ar
    45    45    34   ar
    46    22    17   ar
    47    16    10   ar
    48    43    37   ar
    49    30    31    1
    50    25    26    1
@<TRIPOS>MOLECULE
*****
 45 50 0 0 0
SMALL
GASTEIGER

@<TRIPOS>ATOM
      1 C           3.4597   -0.5641   24.9557 C.ar    1  UNL1        0.1348
      2 C           4.8273   -0.8367   24.4030 C.ar    1  UNL1        0.0346
      3 C           5.1671   -0.4195   23.0028 C.ar    1  UNL1        0.0065
      4 C           4.1395    0.2702   22.1554 C.ar    1  UNL1        0.0432
      5 C           2.7720    0.5427   22.7081 C.ar    1  UNL1        0.1256
      6 N           2.4321    0.1255   24.1082 N.ar    1  UNL1       -0.2222
      7 C           4.4794    0.6873   20.7552 C.ar    1  UNL1        0.0850
      8 C           4.7571   -0.2331   19.6038 C.ar    1  UNL1        0.0991
      9 N           5.0506    0.6088   18.3976 N.ar    1  UNL1       -0.2265
     10 C           4.9543    2.0497   18.8035 C.ar    1  UNL1        0.1474
     11 C           5.1424    3.3238   18.0346 C.ar    1  UNL1        0.0332
     12 C           4.9776    4.6463   18.7227 C.ar    1  UNL1       -0.0174
     13 C           5.1657    5.9204   17.9538 C.3     1  UNL1        0.0312
     14 C           4.6246    4.6949   20.1798 C.ar    1  UNL1        0.0149
     15 C           4.4364    3.4208   20.9487 C.ar    1  UNL1        0.0811
     16 N           4.6013    2.0981   20.2606 N.ar    1  UNL1       -0.2888
     17 C           4.7436   -1.7323   19.6504 C.ar    1  UNL1        0.0222
     18 C           5.9809   -2.4815   20.0482 C.ar    1  UNL1        0.0222
     19 C           5.9674   -3.9807   20.0948 C.ar    1  UNL1        0.0989
     20 N           4.7168   -4.7308   19.7437 N.ar    1  UNL1       -0.2423
     21 C           3.4796   -3.9817   19.3460 C.ar    1  UNL1        0.0989
     22 C           3.4931   -2.4825   19.2994 C.ar    1  UNL1        0.0222
     23 C           2.9584    0.0545   27.4287 C.2     1  UNL1        0.2414
     24 O           3.1368    1.5075   27.1015 O.2     1  UNL1       -0.2733
     25 N           3.1198   -0.9813   26.3559 N.am    1  UNL1       -0.2682
     26 H           3.0027   -1.9349   26.5707 H       1  UNL1        0.1563
     27 C           2.6185   -0.3627   28.8289 C.3     1  UNL1        0.1319
     28 C           3.7108   -0.5692   29.8360 C.3     1  UNL1        0.0270
     29 C           0.1007    0.2143   28.5505 C.3     1  UNL1        0.0862
     30 N           1.1864   -0.5734   29.2220 N.3     1  UNL1       -0.2902
     31 H           0.9785   -1.5587   29.0600 H       1  UNL1        0.1237
     32 C           1.7442    1.2324   21.8606 C.1     1  UNL1       -0.0404
     33 C           0.7165    1.9220   21.0132 C.1     1  UNL1       -0.0583
     34 C          -0.3112    2.6117   20.1657 C.ar    1  UNL1        0.0421
     35 C           0.0445    3.0756   18.7843 C.ar    1  UNL1        0.0097
     36 C          -0.9833    3.7652   17.9370 C.ar    1  UNL1        0.0179
     37 C          -2.3667    3.9911   18.4710 C.ar    1  UNL1        0.0625
     38 C          -2.7224    3.5272   19.8523 C.ar    1  UNL1        0.0166
     39 C          -4.1058    3.7530   20.3863 C.ar    1  UNL1        0.0063
     40 C          -5.1335    4.4427   19.5390 C.ar    1  UNL1        0.0608
     41 C          -4.7778    4.9066   18.1575 C.ar    1  UNL1        0.2610
     42 O          -5.8056    5.5963   17.3101 O.2     1  UNL1       -0.2670
     43 N          -3.3944    4.6808   17.6235 N.ar    1  UNL1       -0.2935
     44 C          -3.0387    5.1446   16.2421 C.3     1  UNL1        0.1335
     45 C          -1.6947    2.8376   20.6997 C.ar    1  UNL1        0.0097
@<TRIPOS>BOND
     1    29    30    1
     2    30    27    1
     3    27    28    1
     4    27    23    1
     5    23    24    2
     6    23    25   am
     7    25     1    1
     8     1     2   ar
     9     2     3   ar
    10     3     4   ar
    11     4     7    1
    12     7     8   ar
    13     8    17    1
    14    17    18   ar
    15    18    19   ar
    16    19    20   ar
    17    20    21   ar
    18    21    22   ar
    19     8     9   ar
    20     9    10   ar
    21    10    11   ar
    22    11    12   ar
    23    12    13    1
    24    12    14   ar
    25    14    15   ar
    26    15    16   ar
    27     4     5   ar
    28     5    32    1
    29    32    33    3
    30    33    34    1
    31    34    35   ar
    32    35    36   ar
    33    36    37   ar
    34    37    38   ar
    35    38    39   ar
    36    39    40   ar
    37    40    41   ar
    38    41    42    2
    39    41    43   ar
    40    43    44    1
    41    38    45   ar
    42     5     6   ar
    43     6     1   ar
    44    16     7   ar
    45    45    34   ar
    46    22    17   ar
    47    16    10   ar
    48    43    37   ar
    49    30    31    1
    50    25    26    1
