@<TRIPOS>MOLECULE
*****
 19 21 0 0 0
SMALL
GASTEIGER

@<TRIPOS>ATOM
      1 C          -7.8127  -17.5130   22.3354 C.ar    1  UNL1        0.1431
      2 N          -8.2727  -18.3213   21.1585 N.ar    1  UNL1       -0.2292
      3 C          -7.3051  -19.2103   20.4349 C.ar    1  UNL1        0.0972
      4 C          -5.8775  -19.2910   20.8883 C.ar    1  UNL1        0.0120
      5 C          -5.4176  -18.4827   22.0651 C.ar    1  UNL1        0.0593
      6 N          -6.3850  -17.5937   22.7887 N.ar    1  UNL1       -0.2349
      7 C          -4.0495  -18.4164   22.6769 C.3     1  UNL1        0.0626
      8 C          -2.8037  -19.1421   22.2628 C.3     1  UNL1        0.0749
      9 N          -2.6183  -20.1132   21.1349 N.3     1  UNL1       -0.2969
     10 C          -3.6327  -20.5986   20.1422 C.3     1  UNL1        0.0734
     11 C          -5.0832  -20.2326   20.0325 C.3     1  UNL1        0.0462
     12 H          -2.2725  -20.9619   21.5827 H       1  UNL1        0.1233
     13 C          -8.7802  -16.6240   23.0589 C.3     1  UNL1        0.0919
     14 C         -13.0784  -17.8765   23.5139 C.ar    1  UNL1       -0.0000
     15 C         -12.7186  -16.7537   22.5867 C.ar    1  UNL1       -0.0003
     16 C         -11.2859  -16.3362   22.4350 C.ar    1  UNL1       -0.0038
     17 C         -10.2130  -17.0415   23.2106 C.ar    1  UNL1       -0.0146
     18 C         -10.5729  -18.1644   24.1378 C.ar    1  UNL1       -0.0038
     19 C         -12.0056  -18.5819   24.2895 C.ar    1  UNL1       -0.0003
@<TRIPOS>BOND
     1    14    15   ar
     2    15    16   ar
     3    16    17   ar
     4    17    13    1
     5    13     1    1
     6     1     2   ar
     7     2     3   ar
     8     3     4   ar
     9     4     5   ar
    10     5     6   ar
    11     5     7    1
    12     7     8    1
    13     8     9    1
    14     9    10    1
    15    10    11    1
    16    17    18   ar
    17    18    19   ar
    18    19    14   ar
    19     6     1   ar
    20    11     4    1
    21     9    12    1
@<TRIPOS>MOLECULE
*****
 19 21 0 0 0
SMALL
GASTEIGER

@<TRIPOS>ATOM
      1 C          -5.6037  -19.1498   21.7551 C.ar    1  UNL1        0.1431
      2 N          -5.9859  -20.1376   20.6929 N.ar    1  UNL1       -0.2292
      3 C          -7.3577  -20.0947   20.0874 C.ar    1  UNL1        0.0972
      4 C          -8.3471  -19.0638   20.5441 C.ar    1  UNL1        0.0120
      5 C          -7.9648  -18.0761   21.6061 C.ar    1  UNL1        0.0593
      6 N          -6.5932  -18.1190   22.2116 N.ar    1  UNL1       -0.2349
      7 C          -8.7922  -16.9754   22.2012 C.3     1  UNL1        0.0626
      8 C         -10.2064  -16.5908   21.8810 C.3     1  UNL1        0.0749
      9 N         -11.1422  -17.2118   20.8868 N.3     1  UNL1       -0.2969
     10 C         -10.8952  -18.3708   19.9672 C.3     1  UNL1        0.0734
     11 C          -9.6512  -19.1950   19.8146 C.3     1  UNL1        0.0462
     12 H         -11.4022  -16.4447   20.2669 H       1  UNL1        0.1233
     13 C          -4.2320  -19.1928   22.3605 C.3     1  UNL1        0.0919
     14 C          -0.8247  -17.0314   20.3684 C.ar    1  UNL1       -0.0000
     15 C          -1.6261  -16.3462   21.4353 C.ar    1  UNL1       -0.0003
     16 C          -2.7618  -17.0666   22.0993 C.ar    1  UNL1       -0.0038
     17 C          -3.0962  -18.4723   21.6965 C.ar    1  UNL1       -0.0146
     18 C          -2.2948  -19.1576   20.6296 C.ar    1  UNL1       -0.0038
     19 C          -1.1590  -18.4371   19.9655 C.ar    1  UNL1       -0.0003
@<TRIPOS>BOND
     1    14    15   ar
     2    15    16   ar
     3    16    17   ar
     4    17    13    1
     5    13     1    1
     6     1     2   ar
     7     2     3   ar
     8     3     4   ar
     9     4     5   ar
    10     5     6   ar
    11     5     7    1
    12     7     8    1
    13     8     9    1
    14     9    10    1
    15    10    11    1
    16    17    18   ar
    17    18    19   ar
    18    19    14   ar
    19     6     1   ar
    20    11     4    1
    21     9    12    1
@<TRIPOS>MOLECULE
*****
 19 21 0 0 0
SMALL
GASTEIGER

@<TRIPOS>ATOM
      1 C          -6.7076  -19.1503   21.1947 C.ar    1  UNL1        0.1431
      2 N          -6.4265  -18.1120   22.2402 N.ar    1  UNL1       -0.2292
      3 C          -7.5421  -17.2613   22.7713 C.ar    1  UNL1        0.0972
      4 C          -8.9386  -17.4490   22.2569 C.ar    1  UNL1        0.0120
      5 C          -9.2196  -18.4872   21.2115 C.ar    1  UNL1        0.0593
      6 N          -8.1041  -19.3379   20.6803 N.ar    1  UNL1       -0.2349
      7 C         -10.5287  -18.8353   20.5672 C.3     1  UNL1        0.0626
      8 C         -11.8802  -18.2310   20.8093 C.3     1  UNL1        0.0749
      9 N         -12.2561  -17.1296   21.7554 N.3     1  UNL1       -0.2969
     10 C         -11.3737  -16.3602   22.6932 C.3     1  UNL1        0.0734
     11 C          -9.8972  -16.5023   22.9164 C.3     1  UNL1        0.0462
     12 H         -12.9699  -17.5415   22.3564 H       1  UNL1        0.1233
     13 C          -5.5921  -20.0009   20.6636 C.3     1  UNL1        0.0919
     14 C          -1.4253  -18.3255   20.3779 C.ar    1  UNL1       -0.0000
     15 C          -1.8696  -19.0216   21.6301 C.ar    1  UNL1       -0.0003
     16 C          -3.2584  -19.5800   21.7254 C.ar    1  UNL1       -0.0038
     17 C          -4.2032  -19.4424   20.5684 C.ar    1  UNL1       -0.0146
     18 C          -3.7589  -18.7463   19.3161 C.ar    1  UNL1       -0.0038
     19 C          -2.3700  -18.1878   19.2208 C.ar    1  UNL1       -0.0003
@<TRIPOS>BOND
     1    14    15   ar
     2    15    16   ar
     3    16    17   ar
     4    17    13    1
     5    13     1    1
     6     1     2   ar
     7     2     3   ar
     8     3     4   ar
     9     4     5   ar
    10     5     6   ar
    11     5     7    1
    12     7     8    1
    13     8     9    1
    14     9    10    1
    15    10    11    1
    16    17    18   ar
    17    18    19   ar
    18    19    14   ar
    19     6     1   ar
    20    11     4    1
    21     9    12    1
@<TRIPOS>MOLECULE
*****
 19 21 0 0 0
SMALL
GASTEIGER

@<TRIPOS>ATOM
      1 C          -6.4612  -19.5770   20.6527 C.ar    1  UNL1        0.1431
      2 N          -7.7242  -19.9132   19.9166 N.ar    1  UNL1       -0.2292
      3 C          -9.0072  -19.2232   20.2744 C.ar    1  UNL1        0.0972
      4 C          -9.0271  -18.1969   21.3682 C.ar    1  UNL1        0.0120
      5 C          -7.7641  -17.8607   22.1042 C.ar    1  UNL1        0.0593
      6 N          -6.4812  -18.5507   21.7465 N.ar    1  UNL1       -0.2349
      7 C          -7.5647  -16.8764   23.2184 C.3     1  UNL1        0.0626
      8 C          -8.5792  -15.9851   23.8716 C.3     1  UNL1        0.0749
      9 N         -10.0434  -15.8582   23.5721 N.3     1  UNL1       -0.2969
     10 C         -10.8550  -16.5910   22.5453 C.3     1  UNL1        0.0734
     11 C         -10.4027  -17.6319   21.5645 C.3     1  UNL1        0.0462
     12 H         -10.1730  -14.8724   23.3442 H       1  UNL1        0.1233
     13 C          -5.1783  -20.2670   20.2949 C.3     1  UNL1        0.0919
     14 C          -1.2655  -18.0755   20.6661 C.ar    1  UNL1       -0.0000
     15 C          -1.8278  -18.8116   21.8461 C.ar    1  UNL1       -0.0003
     16 C          -3.1320  -19.5421   21.7223 C.ar    1  UNL1       -0.0038
     17 C          -3.8741  -19.5365   20.4187 C.ar    1  UNL1       -0.0146
     18 C          -3.3118  -18.8004   19.2388 C.ar    1  UNL1       -0.0038
     19 C          -2.0075  -18.0699   19.3625 C.ar    1  UNL1       -0.0003
@<TRIPOS>BOND
     1    14    15   ar
     2    15    16   ar
     3    16    17   ar
     4    17    13    1
     5    13     1    1
     6     1     2   ar
     7     2     3   ar
     8     3     4   ar
     9     4     5   ar
    10     5     6   ar
    11     5     7    1
    12     7     8    1
    13     8     9    1
    14     9    10    1
    15    10    11    1
    16    17    18   ar
    17    18    19   ar
    18    19    14   ar
    19     6     1   ar
    20    11     4    1
    21     9    12    1
@<TRIPOS>MOLECULE
*****
 19 21 0 0 0
SMALL
GASTEIGER

@<TRIPOS>ATOM
      1 C          -7.4158  -19.8531   20.9395 C.ar    1  UNL1        0.1431
      2 N          -8.1124  -19.4477   19.6744 N.ar    1  UNL1       -0.2292
      3 C          -9.4988  -18.8778   19.7312 C.ar    1  UNL1        0.0972
      4 C         -10.1885  -18.7134   21.0531 C.ar    1  UNL1        0.0120
      5 C          -9.4919  -19.1188   22.3180 C.ar    1  UNL1        0.0593
      6 N          -8.1056  -19.6887   22.2613 N.ar    1  UNL1       -0.2349
      7 C          -9.9947  -19.0401   23.7291 C.3     1  UNL1        0.0626
      8 C         -11.3184  -18.5365   24.2235 C.3     1  UNL1        0.0749
      9 N         -12.4660  -17.9874   23.4291 N.3     1  UNL1       -0.2969
     10 C         -12.5736  -17.8060   21.9440 C.3     1  UNL1        0.0734
     11 C         -11.5600  -18.1291   20.8865 C.3     1  UNL1        0.0462
     12 H         -12.6186  -17.0544   23.8121 H       1  UNL1        0.1233
     13 C          -6.0294  -20.4230   20.8827 C.3     1  UNL1        0.0919
     14 C          -2.4625  -17.7037   21.2473 C.ar    1  UNL1       -0.0000
     15 C          -2.8427  -18.2668   19.9100 C.ar    1  UNL1       -0.0003
     16 C          -4.0316  -19.1732   19.7885 C.ar    1  UNL1       -0.0038
     17 C          -4.8404  -19.5166   21.0042 C.ar    1  UNL1       -0.0146
     18 C          -4.4602  -18.9535   22.3416 C.ar    1  UNL1       -0.0038
     19 C          -3.2712  -18.0471   22.4631 C.ar    1  UNL1       -0.0003
@<TRIPOS>BOND
     1    14    15   ar
     2    15    16   ar
     3    16    17   ar
     4    17    13    1
     5    13     1    1
     6     1     2   ar
     7     2     3   ar
     8     3     4   ar
     9     4     5   ar
    10     5     6   ar
    11     5     7    1
    12     7     8    1
    13     8     9    1
    14     9    10    1
    15    10    11    1
    16    17    18   ar
    17    18    19   ar
    18    19    14   ar
    19     6     1   ar
    20    11     4    1
    21     9    12    1
@<TRIPOS>MOLECULE
*****
 19 21 0 0 0
SMALL
GASTEIGER

@<TRIPOS>ATOM
      1 C          -8.1349  -19.1239   21.0362 C.ar    1  UNL1        0.1431
      2 N          -7.8411  -18.1892   22.1720 N.ar    1  UNL1       -0.2292
      3 C          -6.4300  -18.0060   22.6467 C.ar    1  UNL1        0.0972
      4 C          -5.3128  -18.7575   21.9855 C.ar    1  UNL1        0.0120
      5 C          -5.6066  -19.6921   20.8498 C.ar    1  UNL1        0.0593
      6 N          -7.0177  -19.8754   20.3751 N.ar    1  UNL1       -0.2349
      7 C          -4.6486  -20.5314   20.0574 C.3     1  UNL1        0.0626
      8 C          -3.1600  -20.6433   20.2053 C.3     1  UNL1        0.0749
      9 N          -2.2620  -19.9435   21.1818 N.3     1  UNL1       -0.2969
     10 C          -2.6306  -18.9590   22.2519 C.3     1  UNL1        0.0734
     11 C          -3.9883  -18.4312   22.6095 C.3     1  UNL1        0.0462
     12 H          -1.5883  -19.4469   20.5989 H       1  UNL1        0.1233
     13 C          -9.5460  -19.3071   20.5615 C.3     1  UNL1        0.0919
     14 C         -12.9359  -17.3353   22.7685 C.ar    1  UNL1       -0.0000
     15 C         -12.2218  -18.5040   23.3803 C.ar    1  UNL1       -0.0003
     16 C         -11.0919  -19.1612   22.6447 C.ar    1  UNL1       -0.0038
     17 C         -10.6760  -18.6498   21.2972 C.ar    1  UNL1       -0.0146
     18 C         -11.3901  -17.4812   20.6854 C.ar    1  UNL1       -0.0038
     19 C         -12.5201  -16.8239   21.4210 C.ar    1  UNL1       -0.0003
@<TRIPOS>BOND
     1    14    15   ar
     2    15    16   ar
     3    16    17   ar
     4    17    13    1
     5    13     1    1
     6     1     2   ar
     7     2     3   ar
     8     3     4   ar
     9     4     5   ar
    10     5     6   ar
    11     5     7    1
    12     7     8    1
    13     8     9    1
    14     9    10    1
    15    10    11    1
    16    17    18   ar
    17    18    19   ar
    18    19    14   ar
    19     6     1   ar
    20    11     4    1
    21     9    12    1
@<TRIPOS>MOLECULE
*****
 19 21 0 0 0
SMALL
GASTEIGER

@<TRIPOS>ATOM
      1 C          -7.6615  -17.4137   22.3076 C.ar    1  UNL1        0.1431
      2 N          -8.1869  -18.2017   21.1444 N.ar    1  UNL1       -0.2292
      3 C          -7.2789  -19.1346   20.3991 C.ar    1  UNL1        0.0972
      4 C          -5.8456  -19.2795   20.8171 C.ar    1  UNL1        0.0120
      5 C          -5.3203  -18.4915   21.9803 C.ar    1  UNL1        0.0593
      6 N          -6.2282  -17.5586   22.7256 N.ar    1  UNL1       -0.2349
      7 C          -3.9359  -18.4867   22.5579 C.3     1  UNL1        0.0626
      8 C          -2.7350  -19.2688   22.1148 C.3     1  UNL1        0.0749
      9 N          -2.6219  -20.2486   20.9848 N.3     1  UNL1       -0.2969
     10 C          -3.6817  -20.6886   20.0187 C.3     1  UNL1        0.0734
     11 C          -5.1164  -20.2573   19.9441 C.3     1  UNL1        0.0462
     12 H          -2.3040  -21.1117   21.4259 H       1  UNL1        0.1233
     13 C          -8.5694  -16.4808   23.0528 C.3     1  UNL1        0.0919
     14 C          -8.3569  -16.2421   27.5415 C.ar    1  UNL1       -0.0000
     15 C          -7.6804  -15.1990   26.7020 C.ar    1  UNL1       -0.0003
     16 C          -7.7513  -15.2786   25.2059 C.ar    1  UNL1       -0.0038
     17 C          -8.4986  -16.4013   24.5490 C.ar    1  UNL1       -0.0146
     18 C          -9.1750  -17.4443   25.3885 C.ar    1  UNL1       -0.0038
     19 C          -9.1042  -17.3647   26.8847 C.ar    1  UNL1       -0.0003
@<TRIPOS>BOND
     1    14    15   ar
     2    15    16   ar
     3    16    17   ar
     4    17    13    1
     5    13     1    1
     6     1     2   ar
     7     2     3   ar
     8     3     4   ar
     9     4     5   ar
    10     5     6   ar
    11     5     7    1
    12     7     8    1
    13     8     9    1
    14     9    10    1
    15    10    11    1
    16    17    18   ar
    17    18    19   ar
    18    19    14   ar
    19     6     1   ar
    20    11     4    1
    21     9    12    1
@<TRIPOS>MOLECULE
*****
 19 21 0 0 0
SMALL
GASTEIGER

@<TRIPOS>ATOM
      1 C          -7.2208  -19.5226   21.8155 C.ar    1  UNL1        0.1431
      2 N          -6.8660  -20.3168   20.5935 N.ar    1  UNL1       -0.2292
      3 C          -5.4459  -20.3587   20.1123 C.ar    1  UNL1        0.0972
      4 C          -4.3805  -19.6062   20.8533 C.ar    1  UNL1        0.0120
      5 C          -4.7353  -18.8121   22.0752 C.ar    1  UNL1        0.0593
      6 N          -6.1554  -18.7702   22.5564 N.ar    1  UNL1       -0.2349
      7 C          -3.8346  -17.9960   22.9544 C.3     1  UNL1        0.0626
      8 C          -2.3566  -17.7728   22.8287 C.3     1  UNL1        0.0749
      9 N          -1.4144  -18.3104   21.7929 N.3     1  UNL1       -0.2969
     10 C          -1.7173  -19.2040   20.6268 C.3     1  UNL1        0.0734
     11 C          -3.0374  -19.7807   20.2086 C.3     1  UNL1        0.0462
     12 H          -0.7096  -18.8181   22.3275 H       1  UNL1        0.1233
     13 C          -8.6410  -19.4808   22.2965 C.3     1  UNL1        0.0919
     14 C         -11.5392  -16.5439   20.5006 C.ar    1  UNL1       -0.0000
     15 C         -10.9541  -16.2859   21.8576 C.ar    1  UNL1       -0.0003
     16 C          -9.9881  -17.2649   22.4561 C.ar    1  UNL1       -0.0038
     17 C          -9.6070  -18.5018   21.6979 C.ar    1  UNL1       -0.0146
     18 C         -10.1921  -18.7597   20.3409 C.ar    1  UNL1       -0.0038
     19 C         -11.1581  -17.7807   19.7423 C.ar    1  UNL1       -0.0003
@<TRIPOS>BOND
     1    14    15   ar
     2    15    16   ar
     3    16    17   ar
     4    17    13    1
     5    13     1    1
     6     1     2   ar
     7     2     3   ar
     8     3     4   ar
     9     4     5   ar
    10     5     6   ar
    11     5     7    1
    12     7     8    1
    13     8     9    1
    14     9    10    1
    15    10    11    1
    16    17    18   ar
    17    18    19   ar
    18    19    14   ar
    19     6     1   ar
    20    11     4    1
    21     9    12    1
@<TRIPOS>MOLECULE
*****
 19 21 0 0 0
SMALL
GASTEIGER

@<TRIPOS>ATOM
      1 C          -4.6172  -16.3765   23.2751 C.ar    1  UNL1        0.1431
      2 N          -3.2095  -16.5073   22.7738 N.ar    1  UNL1       -0.2292
      3 C          -2.8351  -17.6521   21.8797 C.ar    1  UNL1        0.0972
      4 C          -3.8684  -18.6661   21.4870 C.ar    1  UNL1        0.0120
      5 C          -5.2760  -18.5352   21.9882 C.ar    1  UNL1        0.0593
      6 N          -5.6505  -17.3905   22.8823 N.ar    1  UNL1       -0.2349
      7 C          -6.4512  -19.4281   21.7199 C.3     1  UNL1        0.0626
      8 C          -6.5087  -20.6723   20.8840 C.3     1  UNL1        0.0749
      9 N          -5.4055  -21.3309   20.1101 N.3     1  UNL1       -0.2969
     10 C          -3.9722  -20.9080   19.9808 C.3     1  UNL1        0.0734
     11 C          -3.2881  -19.7220   20.5935 C.3     1  UNL1        0.0462
     12 H          -5.7502  -21.3625   19.1506 H       1  UNL1        0.1233
     13 C          -4.9916  -15.2318   24.1691 C.3     1  UNL1        0.0919
     14 C          -8.4044  -15.6654   27.0700 C.ar    1  UNL1       -0.0000
     15 C          -6.9922  -15.8524   27.5399 C.ar    1  UNL1       -0.0003
     16 C          -5.8547  -15.7079   26.5730 C.ar    1  UNL1       -0.0038
     17 C          -6.1292  -15.3763   25.1361 C.ar    1  UNL1       -0.0146
     18 C          -7.5414  -15.1893   24.6661 C.ar    1  UNL1       -0.0038
     19 C          -8.6790  -15.3338   25.6331 C.ar    1  UNL1       -0.0003
@<TRIPOS>BOND
     1    14    15   ar
     2    15    16   ar
     3    16    17   ar
     4    17    13    1
     5    13     1    1
     6     1     2   ar
     7     2     3   ar
     8     3     4   ar
     9     4     5   ar
    10     5     6   ar
    11     5     7    1
    12     7     8    1
    13     8     9    1
    14     9    10    1
    15    10    11    1
    16    17    18   ar
    17    18    19   ar
    18    19    14   ar
    19     6     1   ar
    20    11     4    1
    21     9    12    1
