@<TRIPOS>MOLECULE
*****
 43 47 0 0 0
SMALL
GASTEIGER

@<TRIPOS>ATOM
      1 C           4.5854   -1.1236   26.0117 C.3     1  UNL1        0.0942
      2 C           3.5184   -0.4620   26.8325 C.3     1  UNL1        0.1129
      3 N           3.8953    0.3694   28.0227 N.am    1  UNL1       -0.2779
      4 C           2.8284    1.0310   28.8437 C.2     1  UNL1        0.2252
      5 O           3.2053    1.8625   30.0339 O.2     1  UNL1       -0.2749
      6 C           5.3392    0.5392   28.3921 C.3     1  UNL1        0.0936
      7 C           6.4062   -0.1224   27.5712 C.3     1  UNL1        0.0246
      8 C           6.0293   -0.9538   26.3810 C.3     1  UNL1        0.0374
      9 N           3.6114   -2.1329   22.2992 N.am    1  UNL1       -0.2485
     10 C           3.9882   -1.3015   23.4894 C.2     1  UNL1        0.3059
     11 O           4.1448    0.1836   23.3477 O.2     1  UNL1       -0.2524
     12 N           4.2085   -1.9551   24.8214 N.am    1  UNL1       -0.2885
     13 H           3.5086   -3.1076   22.3922 H       1  UNL1        0.1583
     14 H           4.1058   -2.9298   24.9145 H       1  UNL1        0.1510
     15 C           3.7035   -0.7530   18.6725 C.ar    1  UNL1        0.0803
     16 S           4.3156   -1.5474   19.7879 S.2     1  UNL1       -0.0488
     17 C           3.3911   -1.4793   20.9672 C.ar    1  UNL1        0.1664
     18 N           2.2076   -0.6427   20.5805 N.ar    1  UNL1       -0.2282
     19 C           2.4006   -0.1939   19.1623 C.ar    1  UNL1        0.0701
     20 C           1.4566    0.6636   18.3726 C.3     1  UNL1        0.0528
     21 C           5.5092    0.3049   17.1330 C.3     1  UNL1        0.0779
     22 C           4.2911   -0.5529   17.3069 C.2     1  UNL1        0.1807
     23 O           3.6605   -1.2105   16.1154 O.2     1  UNL1       -0.2908
     24 C           1.3845    0.8612   28.4743 C.3     1  UNL1        0.0767
     25 C           0.5994    1.7488   27.5547 C.3     1  UNL1        0.0091
     26 C          -0.7981    1.2101   27.4717 C.3     1  UNL1        0.0005
     27 C          -0.8767   -0.0104   28.3401 C.3     1  UNL1        0.0005
     28 C           0.4722   -0.2260   28.9597 C.3     1  UNL1        0.0091
     29 C           7.0963   -1.6154   25.5601 C.3     1  UNL1        0.0738
     30 N           7.3257   -3.0930   25.6788 N.3     1  UNL1       -0.2726
     31 C           7.3267   -3.9530   24.4497 C.3     1  UNL1        0.0721
     32 C           7.5561   -5.4306   24.5684 C.3     1  UNL1        0.0174
     33 C           7.7845   -6.0482   25.9161 C.3     1  UNL1        0.0031
     34 C           7.7834   -5.1883   27.1451 C.3     1  UNL1        0.0204
     35 C           7.5540   -3.7107   27.0265 C.3     1  UNL1        0.0724
     36 C           8.0118   -5.8060   28.4929 C.3     1  UNL1        0.0277
     37 C           8.1066   -4.9352   29.7106 C.ar    1  UNL1       -0.0220
     38 C           9.4336   -4.3766   30.1317 C.ar    1  UNL1       -0.0020
     39 C           9.5284   -3.5059   31.3494 C.ar    1  UNL1        0.0293
     40 C           8.2963   -3.1937   32.1460 C.ar    1  UNL1        0.1401
     41 F           8.3911   -2.3230   33.3637 F       1  UNL1       -0.2042
     42 C           6.9694   -3.7523   31.7249 C.ar    1  UNL1        0.0293
     43 C           6.8746   -4.6231   30.5072 C.ar    1  UNL1       -0.0020
@<TRIPOS>BOND
     1    21    22    1
     2    22    23    2
     3    22    15    1
     4    15    16   ar
     5    16    17   ar
     6    17     9    1
     7     9    10   am
     8    10    11    2
     9    10    12   am
    10     1    12    1
    11     1     2    1
    12     2     3    1
    13     3     4   am
    14     4     5    2
    15     4    24    1
    16    24    25    1
    17    25    26    1
    18    26    27    1
    19    27    28    1
    20     3     6    1
    21     6     7    1
    22     7     8    1
    23     8    29    1
    24    29    30    1
    25    30    31    1
    26    31    32    1
    27    32    33    1
    28    33    34    1
    29    34    36    1
    30    36    37    1
    31    37    38   ar
    32    38    39   ar
    33    39    40   ar
    34    40    41    1
    35    40    42   ar
    36    42    43   ar
    37    34    35    1
    38    17    18   ar
    39    18    19   ar
    40    19    20    1
    41    19    15   ar
    42     8     1    1
    43    35    30    1
    44    28    24    1
    45    43    37   ar
    46     9    13    1
    47    12    14    1
@<TRIPOS>MOLECULE
*****
 43 47 0 0 0
SMALL
GASTEIGER

@<TRIPOS>ATOM
      1 C           6.6584   -2.1013   24.5862 C.3     1  UNL1        0.0942
      2 C           6.9738   -3.2606   25.4842 C.3     1  UNL1        0.1129
      3 N           7.4183   -4.5664   24.8950 N.am    1  UNL1       -0.2779
      4 C           7.7337   -5.7258   25.7930 C.2     1  UNL1        0.2252
      5 O           8.1783   -7.0316   25.2038 O.2     1  UNL1       -0.2749
      6 C           7.5474   -4.7129   23.4078 C.3     1  UNL1        0.0936
      7 C           7.2320   -3.5536   22.5097 C.3     1  UNL1        0.0246
      8 C           6.7875   -2.2478   23.0989 C.3     1  UNL1        0.0374
      9 N           4.3418    0.6955   26.1868 N.am    1  UNL1       -0.2485
     10 C           4.7864   -0.6103   25.5976 C.2     1  UNL1        0.3059
     11 O           3.8036   -1.7312   25.4307 O.2     1  UNL1       -0.2524
     12 N           6.2138   -0.7954   25.1754 N.am    1  UNL1       -0.2885
     13 H           4.9869    1.4311   26.2963 H       1  UNL1        0.1583
     14 H           6.8589   -0.0598   25.2849 H       1  UNL1        0.1510
     15 C           0.8609    0.8043   27.9004 C.ar    1  UNL1        0.0803
     16 S           2.3068    0.4051   27.8954 S.2     1  UNL1       -0.0488
     17 C           2.9144    0.8805   26.6090 C.ar    1  UNL1        0.1664
     18 N           1.8440    1.5735   25.8190 N.ar    1  UNL1       -0.2282
     19 C           0.5749    1.5263   26.6172 C.ar    1  UNL1        0.0701
     20 C          -0.7480    2.1005   26.2044 C.3     1  UNL1        0.0528
     21 C          -1.2455   -0.4428   28.7710 C.3     1  UNL1        0.0779
     22 C          -0.1258    0.5295   28.9964 C.2     1  UNL1        0.1807
     23 O           0.0073    1.2271   30.3175 O.2     1  UNL1       -0.2908
     24 C           7.6046   -5.5793   27.2803 C.3     1  UNL1        0.0767
     25 C           6.3235   -5.5981   28.0602 C.3     1  UNL1        0.0091
     26 C           6.6610   -5.4187   29.5106 C.3     1  UNL1        0.0005
     27 C           8.1509   -5.2889   29.6272 C.3     1  UNL1        0.0005
     28 C           8.7340   -5.3881   28.2487 C.3     1  UNL1        0.0091
     29 C           6.4720   -1.0884   22.2009 C.3     1  UNL1        0.0738
     30 N           5.6040   -1.2890   20.9941 N.3     1  UNL1       -0.2726
     31 C           6.2255   -1.6228   19.6703 C.3     1  UNL1        0.0721
     32 C           5.3575   -1.8234   18.4635 C.3     1  UNL1        0.0174
     33 C           3.8680   -1.6901   18.5806 C.3     1  UNL1        0.0031
     34 C           3.2465   -1.3563   19.9043 C.3     1  UNL1        0.0204
     35 C           4.1146   -1.1558   21.1111 C.3     1  UNL1        0.0724
     36 C           1.7570   -1.2231   20.0213 C.3     1  UNL1        0.0277
     37 C           1.1096    0.1207   19.8637 C.ar    1  UNL1       -0.0220
     38 C           1.1729    0.8338   18.5454 C.ar    1  UNL1       -0.0020
     39 C           0.5254    2.1776   18.3878 C.ar    1  UNL1        0.0293
     40 C          -0.1853    2.8085   19.5484 C.ar    1  UNL1        0.1401
     41 F          -0.8328    4.1523   19.3908 F       1  UNL1       -0.2042
     42 C          -0.2486    2.0954   20.8665 C.ar    1  UNL1        0.0293
     43 C           0.3988    0.7516   21.0242 C.ar    1  UNL1       -0.0020
@<TRIPOS>BOND
     1    21    22    1
     2    22    23    2
     3    22    15    1
     4    15    16   ar
     5    16    17   ar
     6    17     9    1
     7     9    10   am
     8    10    11    2
     9    10    12   am
    10     1    12    1
    11     1     2    1
    12     2     3    1
    13     3     4   am
    14     4     5    2
    15     4    24    1
    16    24    25    1
    17    25    26    1
    18    26    27    1
    19    27    28    1
    20     3     6    1
    21     6     7    1
    22     7     8    1
    23     8    29    1
    24    29    30    1
    25    30    31    1
    26    31    32    1
    27    32    33    1
    28    33    34    1
    29    34    36    1
    30    36    37    1
    31    37    38   ar
    32    38    39   ar
    33    39    40   ar
    34    40    41    1
    35    40    42   ar
    36    42    43   ar
    37    34    35    1
    38    17    18   ar
    39    18    19   ar
    40    19    20    1
    41    19    15   ar
    42     8     1    1
    43    35    30    1
    44    28    24    1
    45    43    37   ar
    46     9    13    1
    47    12    14    1
@<TRIPOS>MOLECULE
*****
 43 47 0 0 0
SMALL
GASTEIGER

@<TRIPOS>ATOM
      1 C           0.6998    1.3431   25.6079 C.3     1  UNL1        0.0942
      2 C          -0.4644    2.1996   25.2067 C.3     1  UNL1        0.1129
      3 N          -0.3640    3.0836   23.9990 N.am    1  UNL1       -0.2779
      4 C          -1.5282    3.9401   23.5977 C.2     1  UNL1        0.2252
      5 O          -1.4279    4.8241   22.3901 O.2     1  UNL1       -0.2749
      6 C           0.9005    3.1110   23.1926 C.3     1  UNL1        0.0936
      7 C           2.0646    2.2545   23.5939 C.3     1  UNL1        0.0246
      8 C           1.9643    1.3705   24.8015 C.3     1  UNL1        0.0374
      9 N           1.1227    0.0020   29.3191 N.am    1  UNL1       -0.2485
     10 C           1.2230    0.8859   28.1114 C.2     1  UNL1        0.3059
     11 O           1.9468    2.1969   28.1995 O.2     1  UNL1       -0.2524
     12 N           0.5995    0.4590   26.8157 N.am    1  UNL1       -0.2885
     13 H           0.6477   -0.8584   29.2613 H       1  UNL1        0.1583
     14 H           0.1244   -0.4013   26.7578 H       1  UNL1        0.1510
     15 C           3.2382    0.5645   32.5244 C.ar    1  UNL1        0.0803
     16 S           2.9743   -0.1637   31.2398 S.2     1  UNL1       -0.0488
     17 C           1.7462    0.4289   30.6149 C.ar    1  UNL1        0.1664
     18 N           1.2510    1.5233   31.5133 N.ar    1  UNL1       -0.2282
     19 C           2.1731    1.6071   32.6934 C.ar    1  UNL1        0.0701
     20 C           2.0515    2.5653   33.8410 C.3     1  UNL1        0.0528
     21 C           4.5059   -1.0518   34.1150 C.3     1  UNL1        0.0779
     22 C           4.3686    0.2970   33.4734 C.2     1  UNL1        0.1807
     23 O           5.3617    1.3783   33.7806 O.2     1  UNL1       -0.2908
     24 C          -2.7927    3.9127   24.4041 C.3     1  UNL1        0.0767
     25 C          -2.9513    4.4045   25.8123 C.3     1  UNL1        0.0091
     26 C          -4.3772    4.1844   26.2224 C.3     1  UNL1        0.0005
     27 C          -5.1000    3.5566   25.0677 C.3     1  UNL1        0.0005
     28 C          -4.1207    3.3887   23.9439 C.3     1  UNL1        0.0091
     29 C           3.1285    0.5139   25.2029 C.3     1  UNL1        0.0738
     30 N           3.5760   -0.6079   24.3134 N.3     1  UNL1       -0.2726
     31 C           4.4937   -1.6678   24.8470 C.3     1  UNL1        0.0721
     32 C           4.9412   -2.7896   23.9576 C.3     1  UNL1        0.0174
     33 C           4.4710   -2.8517   22.5345 C.3     1  UNL1        0.0031
     34 C           3.5533   -1.7919   22.0009 C.3     1  UNL1        0.0204
     35 C           3.1058   -0.6701   22.8904 C.3     1  UNL1        0.0724
     36 C           3.0831   -1.8540   20.5778 C.3     1  UNL1        0.0277
     37 C           2.4024   -0.6684   19.9605 C.ar    1  UNL1       -0.0220
     38 C           3.1437    0.1990   18.9867 C.ar    1  UNL1       -0.0020
     39 C           2.4630    1.3846   18.3694 C.ar    1  UNL1        0.0293
     40 C           1.0410    1.7027   18.7258 C.ar    1  UNL1        0.1401
     41 F           0.3604    2.8883   18.1085 F       1  UNL1       -0.2042
     42 C           0.2999    0.8353   19.6996 C.ar    1  UNL1        0.0293
     43 C           0.9806   -0.3502   20.3169 C.ar    1  UNL1       -0.0020
@<TRIPOS>BOND
     1    21    22    1
     2    22    23    2
     3    22    15    1
     4    15    16   ar
     5    16    17   ar
     6    17     9    1
     7     9    10   am
     8    10    11    2
     9    10    12   am
    10     1    12    1
    11     1     2    1
    12     2     3    1
    13     3     4   am
    14     4     5    2
    15     4    24    1
    16    24    25    1
    17    25    26    1
    18    26    27    1
    19    27    28    1
    20     3     6    1
    21     6     7    1
    22     7     8    1
    23     8    29    1
    24    29    30    1
    25    30    31    1
    26    31    32    1
    27    32    33    1
    28    33    34    1
    29    34    36    1
    30    36    37    1
    31    37    38   ar
    32    38    39   ar
    33    39    40   ar
    34    40    41    1
    35    40    42   ar
    36    42    43   ar
    37    34    35    1
    38    17    18   ar
    39    18    19   ar
    40    19    20    1
    41    19    15   ar
    42     8     1    1
    43    35    30    1
    44    28    24    1
    45    43    37   ar
    46     9    13    1
    47    12    14    1
@<TRIPOS>MOLECULE
*****
 43 47 0 0 0
SMALL
GASTEIGER

@<TRIPOS>ATOM
      1 C          -0.7695    3.5295   22.3376 C.3     1  UNL1        0.0942
      2 C          -0.5262    3.3915   23.8112 C.3     1  UNL1        0.1129
      3 N          -0.4378    4.6149   24.6746 N.am    1  UNL1       -0.2779
      4 C          -0.1944    4.4769   26.1483 C.2     1  UNL1        0.2252
      5 O          -0.1060    5.7003   27.0117 O.2     1  UNL1       -0.2749
      6 C          -0.5926    5.9763   24.0643 C.3     1  UNL1        0.0936
      7 C          -0.8360    6.1144   22.5906 C.3     1  UNL1        0.0246
      8 C          -0.9244    4.8910   21.7273 C.3     1  UNL1        0.0374
      9 N           0.3008    0.4766   20.0389 N.am    1  UNL1       -0.2485
     10 C           0.3892    1.6999   20.9023 C.2     1  UNL1        0.3059
     11 O           1.7249    2.3172   21.1939 O.2     1  UNL1       -0.2524
     12 N          -0.8580    2.3061   21.4741 N.am    1  UNL1       -0.2885
     13 H          -0.5758    0.0714   19.8475 H       1  UNL1        0.1583
     14 H          -1.7347    1.9010   21.2828 H       1  UNL1        0.1510
     15 C           3.5032   -1.5361   19.1674 C.ar    1  UNL1        0.0803
     16 S           2.3392   -1.2524   20.0699 S.2     1  UNL1       -0.0488
     17 C           1.5480   -0.1296   19.4671 C.ar    1  UNL1        0.1664
     18 N           2.2232    0.2806   18.1920 N.ar    1  UNL1       -0.2282
     19 C           3.4315   -0.5886   18.0068 C.ar    1  UNL1        0.0701
     20 C           4.3984   -0.5221   16.8619 C.3     1  UNL1        0.0528
     21 C           4.3045   -3.9985   18.9569 C.3     1  UNL1        0.0779
     22 C           4.5544   -2.5834   19.3871 C.2     1  UNL1        0.1807
     23 O           5.8553   -2.2156   20.0368 O.2     1  UNL1       -0.2908
     24 C          -0.0396    3.1154   26.7586 C.3     1  UNL1        0.0767
     25 C           1.2572    2.4068   27.0158 C.3     1  UNL1        0.0091
     26 C           0.9440    1.0770   27.6351 C.3     1  UNL1        0.0005
     27 C          -0.5465    0.9637   27.7605 C.3     1  UNL1        0.0005
     28 C          -1.1543    2.2235   27.2189 C.3     1  UNL1        0.0091
     29 C          -1.1678    5.0290   20.2535 C.3     1  UNL1        0.0738
     30 N          -2.4788    4.5975   19.6662 N.3     1  UNL1       -0.2726
     31 C          -2.5802    4.2927   18.2010 C.3     1  UNL1        0.0721
     32 C          -3.8913    3.8612   17.6137 C.3     1  UNL1        0.0174
     33 C          -5.1009    3.7345   18.4916 C.3     1  UNL1        0.0031
     34 C          -4.9995    4.0392   19.9568 C.3     1  UNL1        0.0204
     35 C          -3.6884    4.4707   20.5441 C.3     1  UNL1        0.0724
     36 C          -6.2091    3.9124   20.8348 C.3     1  UNL1        0.0277
     37 C          -6.1009    4.1887   22.3052 C.ar    1  UNL1       -0.0220
     38 C          -6.8679    5.3255   22.9131 C.ar    1  UNL1       -0.0020
     39 C          -6.7596    5.6018   24.3835 C.ar    1  UNL1        0.0293
     40 C          -5.8845    4.7412   25.2459 C.ar    1  UNL1        0.1401
     41 F          -5.7762    5.0175   26.7162 F       1  UNL1       -0.2042
     42 C          -5.1176    3.6045   24.6379 C.ar    1  UNL1        0.0293
     43 C          -5.2258    3.3283   23.1675 C.ar    1  UNL1       -0.0020
@<TRIPOS>BOND
     1    21    22    1
     2    22    23    2
     3    22    15    1
     4    15    16   ar
     5    16    17   ar
     6    17     9    1
     7     9    10   am
     8    10    11    2
     9    10    12   am
    10     1    12    1
    11     1     2    1
    12     2     3    1
    13     3     4   am
    14     4     5    2
    15     4    24    1
    16    24    25    1
    17    25    26    1
    18    26    27    1
    19    27    28    1
    20     3     6    1
    21     6     7    1
    22     7     8    1
    23     8    29    1
    24    29    30    1
    25    30    31    1
    26    31    32    1
    27    32    33    1
    28    33    34    1
    29    34    36    1
    30    36    37    1
    31    37    38   ar
    32    38    39   ar
    33    39    40   ar
    34    40    41    1
    35    40    42   ar
    36    42    43   ar
    37    34    35    1
    38    17    18   ar
    39    18    19   ar
    40    19    20    1
    41    19    15   ar
    42     8     1    1
    43    35    30    1
    44    28    24    1
    45    43    37   ar
    46     9    13    1
    47    12    14    1
@<TRIPOS>MOLECULE
*****
 43 47 0 0 0
SMALL
GASTEIGER

@<TRIPOS>ATOM
      1 C           6.4020   -2.5684   23.7148 C.3     1  UNL1        0.0942
      2 C           5.6232   -1.9558   22.5887 C.3     1  UNL1        0.1129
      3 N           6.3174   -1.5833   21.3123 N.am    1  UNL1       -0.2779
      4 C           5.5386   -0.9706   20.1861 C.2     1  UNL1        0.2252
      5 O           6.2329   -0.5981   18.9097 O.2     1  UNL1       -0.2749
      6 C           7.7904   -1.8234   21.1620 C.3     1  UNL1        0.0936
      7 C           8.5692   -2.4360   22.2881 C.3     1  UNL1        0.0246
      8 C           7.8750   -2.8085   23.5645 C.3     1  UNL1        0.0374
      9 N           4.5705   -2.2429   27.2205 N.am    1  UNL1       -0.2485
     10 C           5.2647   -1.8704   25.9441 C.2     1  UNL1        0.3059
     11 O           5.5158   -0.4274   25.6203 O.2     1  UNL1       -0.2524
     12 N           5.7077   -2.9409   24.9913 N.am    1  UNL1       -0.2885
     13 H           4.4057   -3.1899   27.4329 H       1  UNL1        0.1583
     14 H           5.5429   -3.8880   25.2037 H       1  UNL1        0.1510
     15 C           2.7468    0.4239   29.3719 C.ar    1  UNL1        0.0803
     16 S           2.7364   -0.6258   28.3004 S.2     1  UNL1       -0.0488
     17 C           4.1274   -1.1724   28.1732 C.ar    1  UNL1        0.1664
     18 N           4.9977   -0.4604   29.1662 N.ar    1  UNL1       -0.2282
     19 C           4.1444    0.5261   29.9070 C.ar    1  UNL1        0.0701
     20 C           4.6075    1.4522   30.9923 C.3     1  UNL1        0.0528
     21 C           0.8251    2.0928   28.8510 C.3     1  UNL1        0.0779
     22 C           1.5669    1.2298   29.8282 C.2     1  UNL1        0.1807
     23 O           1.1288    1.1728   31.2615 O.2     1  UNL1       -0.2908
     24 C           4.0656   -0.7305   20.3364 C.3     1  UNL1        0.0767
     25 C           3.4283    0.4675   20.9757 C.3     1  UNL1        0.0091
     26 C           1.9401    0.2922   20.9082 C.3     1  UNL1        0.0005
     27 C           1.6576   -1.0141   20.2272 C.3     1  UNL1        0.0005
     28 C           2.9713   -1.6461   19.8738 C.3     1  UNL1        0.0091
     29 C           8.6538   -3.4212   24.6907 C.3     1  UNL1        0.0738
     30 N           8.4609   -4.8681   25.0359 N.3     1  UNL1       -0.2726
     31 C           8.3014   -5.8847   23.9444 C.3     1  UNL1        0.0721
     32 C           8.1085   -7.3317   24.2896 C.3     1  UNL1        0.0174
     33 C           8.0751   -7.7620   25.7262 C.3     1  UNL1        0.0031
     34 C           8.2346   -6.7454   26.8176 C.3     1  UNL1        0.0204
     35 C           8.4275   -5.2985   26.4724 C.3     1  UNL1        0.0724
     36 C           8.2012   -7.1758   28.2542 C.3     1  UNL1        0.0277
     37 C           8.1779   -6.1465   29.3450 C.ar    1  UNL1       -0.0220
     38 C           9.4590   -5.7101   29.9919 C.ar    1  UNL1       -0.0020
     39 C           9.4357   -4.6808   31.0828 C.ar    1  UNL1        0.0293
     40 C           8.1313   -4.0879   31.5268 C.ar    1  UNL1        0.1401
     41 F           8.1080   -3.0586   32.6177 F       1  UNL1       -0.2042
     42 C           6.8503   -4.5243   30.8799 C.ar    1  UNL1        0.0293
     43 C           6.8735   -5.5536   29.7890 C.ar    1  UNL1       -0.0020
@<TRIPOS>BOND
     1    21    22    1
     2    22    23    2
     3    22    15    1
     4    15    16   ar
     5    16    17   ar
     6    17     9    1
     7     9    10   am
     8    10    11    2
     9    10    12   am
    10     1    12    1
    11     1     2    1
    12     2     3    1
    13     3     4   am
    14     4     5    2
    15     4    24    1
    16    24    25    1
    17    25    26    1
    18    26    27    1
    19    27    28    1
    20     3     6    1
    21     6     7    1
    22     7     8    1
    23     8    29    1
    24    29    30    1
    25    30    31    1
    26    31    32    1
    27    32    33    1
    28    33    34    1
    29    34    36    1
    30    36    37    1
    31    37    38   ar
    32    38    39   ar
    33    39    40   ar
    34    40    41    1
    35    40    42   ar
    36    42    43   ar
    37    34    35    1
    38    17    18   ar
    39    18    19   ar
    40    19    20    1
    41    19    15   ar
    42     8     1    1
    43    35    30    1
    44    28    24    1
    45    43    37   ar
    46     9    13    1
    47    12    14    1
@<TRIPOS>MOLECULE
*****
 43 47 0 0 0
SMALL
GASTEIGER

@<TRIPOS>ATOM
      1 C           4.0879   -0.0954   25.3458 C.3     1  UNL1        0.0942
      2 C           2.9369    0.5728   26.0376 C.3     1  UNL1        0.1129
      3 N           2.5931    1.9970   25.7160 N.am    1  UNL1       -0.2779
      4 C           1.4421    2.6653   26.4079 C.2     1  UNL1        0.2252
      5 O           1.0983    4.0895   26.0863 O.2     1  UNL1       -0.2749
      6 C           3.4003    2.7529   24.7026 C.3     1  UNL1        0.0936
      7 C           4.5512    2.0847   24.0107 C.3     1  UNL1        0.0246
      8 C           4.8950    0.6605   24.3323 C.3     1  UNL1        0.0374
      9 N           5.4803   -3.2740   27.2713 N.am    1  UNL1       -0.2485
     10 C           5.1364   -1.8499   26.9497 C.2     1  UNL1        0.3059
     11 O           5.4972   -0.7559   27.9105 O.2     1  UNL1       -0.2524
     12 N           4.4318   -1.5197   25.6674 N.am    1  UNL1       -0.2885
     13 H           5.2435   -3.9921   26.6407 H       1  UNL1        0.1583
     14 H           4.1950   -2.2377   25.0368 H       1  UNL1        0.1510
     15 C           7.2249   -4.8430   30.3633 C.ar    1  UNL1        0.0803
     16 S           6.5273   -4.9804   29.0425 S.2     1  UNL1       -0.0488
     17 C           6.1849   -3.6043   28.5537 C.ar    1  UNL1        0.1664
     18 N           6.6709   -2.6163   29.5724 N.ar    1  UNL1       -0.2282
     19 C           7.3137   -3.3819   30.6908 C.ar    1  UNL1        0.0701
     20 C           7.9359   -2.7902   31.9207 C.3     1  UNL1        0.0528
     21 C           9.1354   -6.4851   30.9983 C.3     1  UNL1        0.0779
     22 C           7.7427   -5.9690   31.2083 C.2     1  UNL1        0.1807
     23 O           6.8680   -6.5788   32.2631 O.2     1  UNL1       -0.2908
     24 C           0.6350    1.9093   27.4214 C.3     1  UNL1        0.0767
     25 C          -0.5629    1.0535   27.1340 C.3     1  UNL1        0.0091
     26 C          -1.0542    0.4917   28.4351 C.3     1  UNL1        0.0005
     27 C          -0.1600    1.0004   29.5267 C.3     1  UNL1        0.0005
     28 C           0.8840    1.8765   28.9002 C.3     1  UNL1        0.0091
     29 C           6.0461   -0.0078   23.6405 C.3     1  UNL1        0.0738
     30 N           5.8141   -1.2429   22.8215 N.3     1  UNL1       -0.2726
     31 C           6.6433   -2.4694   23.0627 C.3     1  UNL1        0.0721
     32 C           6.4113   -3.7046   22.2438 C.3     1  UNL1        0.0174
     33 C           5.3501   -3.7131   21.1837 C.3     1  UNL1        0.0031
     34 C           4.5209   -2.4867   20.9425 C.3     1  UNL1        0.0204
     35 C           4.7529   -1.2515   21.7614 C.3     1  UNL1        0.0724
     36 C           3.4597   -2.4952   19.8823 C.3     1  UNL1        0.0277
     37 C           2.7114   -1.2358   19.5600 C.ar    1  UNL1       -0.0220
     38 C           1.4058   -0.9445   20.2388 C.ar    1  UNL1       -0.0020
     39 C           0.6575    0.3149   19.9165 C.ar    1  UNL1        0.0293
     40 C           1.2148    1.2830   18.9154 C.ar    1  UNL1        0.1401
     41 F           0.4665    2.5425   18.5930 F       1  UNL1       -0.2042
     42 C           2.5203    0.9917   18.2366 C.ar    1  UNL1        0.0293
     43 C           3.2686   -0.2677   18.5589 C.ar    1  UNL1       -0.0020
@<TRIPOS>BOND
     1    21    22    1
     2    22    23    2
     3    22    15    1
     4    15    16   ar
     5    16    17   ar
     6    17     9    1
     7     9    10   am
     8    10    11    2
     9    10    12   am
    10     1    12    1
    11     1     2    1
    12     2     3    1
    13     3     4   am
    14     4     5    2
    15     4    24    1
    16    24    25    1
    17    25    26    1
    18    26    27    1
    19    27    28    1
    20     3     6    1
    21     6     7    1
    22     7     8    1
    23     8    29    1
    24    29    30    1
    25    30    31    1
    26    31    32    1
    27    32    33    1
    28    33    34    1
    29    34    36    1
    30    36    37    1
    31    37    38   ar
    32    38    39   ar
    33    39    40   ar
    34    40    41    1
    35    40    42   ar
    36    42    43   ar
    37    34    35    1
    38    17    18   ar
    39    18    19   ar
    40    19    20    1
    41    19    15   ar
    42     8     1    1
    43    35    30    1
    44    28    24    1
    45    43    37   ar
    46     9    13    1
    47    12    14    1
@<TRIPOS>MOLECULE
*****
 43 47 0 0 0
SMALL
GASTEIGER

@<TRIPOS>ATOM
      1 C           6.3761   -1.9023   23.4858 C.3     1  UNL1        0.0942
      2 C           5.5673   -1.7913   22.2275 C.3     1  UNL1        0.1129
      3 N           5.8334   -2.7205   21.0805 N.am    1  UNL1       -0.2779
      4 C           5.0246   -2.6095   19.8221 C.2     1  UNL1        0.2252
      5 O           5.2907   -3.5387   18.6751 O.2     1  UNL1       -0.2749
      6 C           6.9084   -3.7607   21.1918 C.3     1  UNL1        0.0936
      7 C           7.7173   -3.8717   22.4501 C.3     1  UNL1        0.0246
      8 C           7.4511   -2.9425   23.5971 C.3     1  UNL1        0.0374
      9 N           4.4335    0.2331   26.2091 N.am    1  UNL1       -0.2485
     10 C           4.6996   -0.6961   25.0621 C.2     1  UNL1        0.3059
     11 O           3.5554   -1.3483   24.3441 O.2     1  UNL1       -0.2524
     12 N           6.1100   -0.9731   24.6330 N.am    1  UNL1       -0.2885
     13 H           5.1845    0.6611   26.6803 H       1  UNL1        0.1583
     14 H           6.8610   -0.5450   25.1041 H       1  UNL1        0.1510
     15 C           0.9740    0.5632   27.9379 C.ar    1  UNL1        0.0803
     16 S           2.3903    0.0692   27.9248 S.2     1  UNL1       -0.0488
     17 C           3.0231    0.5101   26.6383 C.ar    1  UNL1        0.1664
     18 N           1.9980    1.2765   25.8563 N.ar    1  UNL1       -0.2282
     19 C           0.7315    1.3094   26.6595 C.ar    1  UNL1        0.0701
     20 C          -0.5520    1.9721   26.2552 C.3     1  UNL1        0.0528
     21 C          -1.2047   -0.5495   28.8125 C.3     1  UNL1        0.0779
     22 C          -0.0245    0.3487   29.0366 C.2     1  UNL1        0.1807
     23 O           0.1573    1.0323   30.3592 O.2     1  UNL1       -0.2908
     24 C           3.9496   -1.5693   19.7108 C.3     1  UNL1        0.0767
     25 C           4.0401   -0.2871   18.9378 C.3     1  UNL1        0.0091
     26 C           2.7418    0.4460   19.1022 C.3     1  UNL1        0.0005
     27 C           1.8489   -0.3832   19.9769 C.3     1  UNL1        0.0005
     28 C           2.5953   -1.6287   20.3530 C.3     1  UNL1        0.0091
     29 C           8.2600   -3.0535   24.8555 C.3     1  UNL1        0.0738
     30 N           7.7224   -3.8200   26.0275 N.3     1  UNL1       -0.2726
     31 C           6.9239   -5.0700   25.8036 C.3     1  UNL1        0.0721
     32 C           6.3863   -5.8364   26.9756 C.3     1  UNL1        0.0174
     33 C           6.6471   -5.3529   28.3714 C.3     1  UNL1        0.0031
     34 C           7.4455   -4.1029   28.5952 C.3     1  UNL1        0.0204
     35 C           7.9831   -3.3365   27.4233 C.3     1  UNL1        0.0724
     36 C           7.7063   -3.6194   29.9910 C.3     1  UNL1        0.0277
     37 C           6.6312   -2.8973   30.7478 C.ar    1  UNL1       -0.0220
     38 C           5.9221   -1.7351   30.1180 C.ar    1  UNL1       -0.0020
     39 C           4.8469   -1.0130   30.8748 C.ar    1  UNL1        0.0293
     40 C           4.4808   -1.4532   32.2613 C.ar    1  UNL1        0.1401
     41 F           3.4056   -0.7312   33.0180 F       1  UNL1       -0.2042
     42 C           5.1899   -2.6154   32.8909 C.ar    1  UNL1        0.0293
     43 C           6.2650   -3.3375   32.1342 C.ar    1  UNL1       -0.0020
@<TRIPOS>BOND
     1    21    22    1
     2    22    23    2
     3    22    15    1
     4    15    16   ar
     5    16    17   ar
     6    17     9    1
     7     9    10   am
     8    10    11    2
     9    10    12   am
    10     1    12    1
    11     1     2    1
    12     2     3    1
    13     3     4   am
    14     4     5    2
    15     4    24    1
    16    24    25    1
    17    25    26    1
    18    26    27    1
    19    27    28    1
    20     3     6    1
    21     6     7    1
    22     7     8    1
    23     8    29    1
    24    29    30    1
    25    30    31    1
    26    31    32    1
    27    32    33    1
    28    33    34    1
    29    34    36    1
    30    36    37    1
    31    37    38   ar
    32    38    39   ar
    33    39    40   ar
    34    40    41    1
    35    40    42   ar
    36    42    43   ar
    37    34    35    1
    38    17    18   ar
    39    18    19   ar
    40    19    20    1
    41    19    15   ar
    42     8     1    1
    43    35    30    1
    44    28    24    1
    45    43    37   ar
    46     9    13    1
    47    12    14    1
@<TRIPOS>MOLECULE
*****
 43 47 0 0 0
SMALL
GASTEIGER

@<TRIPOS>ATOM
      1 C           5.6852   -0.9449   22.8577 C.3     1  UNL1        0.0942
      2 C           4.7625   -0.9611   21.6752 C.3     1  UNL1        0.1129
      3 N           4.9463   -1.9849   20.5945 N.am    1  UNL1       -0.2779
      4 C           4.0235   -2.0012   19.4120 C.2     1  UNL1        0.2252
      5 O           4.2073   -3.0250   18.3313 O.2     1  UNL1       -0.2749
      6 C           6.0528   -2.9925   20.6963 C.3     1  UNL1        0.0936
      7 C           6.9755   -2.9763   21.8788 C.3     1  UNL1        0.0246
      8 C           6.7917   -1.9525   22.9595 C.3     1  UNL1        0.0374
      9 N           4.4410    0.7998   26.1981 N.am    1  UNL1       -0.2485
     10 C           4.6248   -0.2239   25.1173 C.2     1  UNL1        0.3059
     11 O           3.9319   -1.5507   25.2154 O.2     1  UNL1       -0.2524
     12 N           5.5015    0.0790   23.9385 N.am    1  UNL1       -0.2885
     13 H           4.8958    1.6706   26.1337 H       1  UNL1        0.1583
     14 H           5.9563    0.9498   23.8741 H       1  UNL1        0.1510
     15 C           1.6254    0.3151   28.8254 C.ar    1  UNL1        0.0803
     16 S           2.0946    0.7790   27.4783 S.2     1  UNL1       -0.0488
     17 C           3.5644    0.4969   27.3769 C.ar    1  UNL1        0.1664
     18 N           4.0035   -0.1413   28.6614 N.ar    1  UNL1       -0.2282
     19 C           2.8052   -0.2537   29.5566 C.ar    1  UNL1        0.0701
     20 C           2.7894   -0.8331   30.9401 C.3     1  UNL1        0.0528
     21 C          -0.8634   -0.4239   28.7295 C.3     1  UNL1        0.0779
     22 C           0.2227    0.4044   29.3493 C.2     1  UNL1        0.1807
     23 O          -0.0937    1.3218   30.4929 O.2     1  UNL1       -0.2908
     24 C           2.9170   -0.9936   19.3102 C.3     1  UNL1        0.0767
     25 C           1.6578   -0.9815   20.1251 C.3     1  UNL1        0.0091
     26 C           0.8380    0.1984   19.6942 C.3     1  UNL1        0.0005
     27 C           1.5906    0.9156   18.6129 C.3     1  UNL1        0.0005
     28 C           2.8755    0.1790   18.3756 C.3     1  UNL1        0.0091
     29 C           7.7145   -1.9362   24.1420 C.3     1  UNL1        0.0738
     30 N           7.5985   -2.9948   25.1984 N.3     1  UNL1       -0.2726
     31 C           6.8998   -4.2864   24.8924 C.3     1  UNL1        0.0721
     32 C           6.7837   -5.3450   25.9488 C.3     1  UNL1        0.0174
     33 C           7.3664   -5.1119   27.3113 C.3     1  UNL1        0.0031
     34 C           8.0651   -3.8203   27.6173 C.3     1  UNL1        0.0204
     35 C           8.1811   -2.7618   26.5608 C.3     1  UNL1        0.0724
     36 C           8.6477   -3.5872   28.9797 C.3     1  UNL1        0.0277
     37 C           7.7624   -3.1515   30.1095 C.ar    1  UNL1       -0.0220
     38 C           7.2830   -1.7320   30.1821 C.ar    1  UNL1       -0.0020
     39 C           6.3977   -1.2962   31.3119 C.ar    1  UNL1        0.0293
     40 C           5.9918   -2.2800   32.3690 C.ar    1  UNL1        0.1401
     41 F           5.1065   -1.8443   33.4988 F       1  UNL1       -0.2042
     42 C           6.4712   -3.6995   32.2964 C.ar    1  UNL1        0.0293
     43 C           7.3565   -4.1352   31.1666 C.ar    1  UNL1       -0.0020
@<TRIPOS>BOND
     1    21    22    1
     2    22    23    2
     3    22    15    1
     4    15    16   ar
     5    16    17   ar
     6    17     9    1
     7     9    10   am
     8    10    11    2
     9    10    12   am
    10     1    12    1
    11     1     2    1
    12     2     3    1
    13     3     4   am
    14     4     5    2
    15     4    24    1
    16    24    25    1
    17    25    26    1
    18    26    27    1
    19    27    28    1
    20     3     6    1
    21     6     7    1
    22     7     8    1
    23     8    29    1
    24    29    30    1
    25    30    31    1
    26    31    32    1
    27    32    33    1
    28    33    34    1
    29    34    36    1
    30    36    37    1
    31    37    38   ar
    32    38    39   ar
    33    39    40   ar
    34    40    41    1
    35    40    42   ar
    36    42    43   ar
    37    34    35    1
    38    17    18   ar
    39    18    19   ar
    40    19    20    1
    41    19    15   ar
    42     8     1    1
    43    35    30    1
    44    28    24    1
    45    43    37   ar
    46     9    13    1
    47    12    14    1
@<TRIPOS>MOLECULE
*****
 43 47 0 0 0
SMALL
GASTEIGER

@<TRIPOS>ATOM
      1 C           6.8512   -1.6514   26.2270 C.3     1  UNL1        0.0942
      2 C           6.6135   -2.3385   24.9150 C.3     1  UNL1        0.1129
      3 N           7.2163   -3.6872   24.6547 N.am    1  UNL1       -0.2779
      4 C           6.9786   -4.3744   23.3427 C.2     1  UNL1        0.2252
      5 O           7.5814   -5.7230   23.0824 O.2     1  UNL1       -0.2749
      6 C           8.0567   -4.3487   25.7064 C.3     1  UNL1        0.0936
      7 C           8.2944   -3.6616   27.0184 C.3     1  UNL1        0.0246
      8 C           7.6916   -2.3129   27.2787 C.3     1  UNL1        0.0374
      9 N           4.3116    1.1531   27.4250 N.am    1  UNL1       -0.2485
     10 C           4.9144   -0.1955   27.1646 C.2     1  UNL1        0.3059
     11 O           4.1831   -1.4371   27.5816 O.2     1  UNL1       -0.2524
     12 N           6.2484   -0.3027   26.4873 N.am    1  UNL1       -0.2885
     13 H           4.7916    1.9679   27.1513 H       1  UNL1        0.1583
     14 H           6.7284    0.5121   26.2136 H       1  UNL1        0.1510
     15 C           0.5870    1.1919   28.5167 C.ar    1  UNL1        0.0803
     16 S           1.6473    0.9459   27.4845 S.2     1  UNL1       -0.0488
     17 C           2.9775    1.2603   28.1023 C.ar    1  UNL1        0.1664
     18 N           2.7394    1.7006   29.5163 N.ar    1  UNL1       -0.2282
     19 C           1.2620    1.6584   29.7724 C.ar    1  UNL1        0.0701
     20 C           0.5795    2.0193   31.0585 C.3     1  UNL1        0.0528
     21 C          -1.5897   -0.1467   28.9852 C.3     1  UNL1        0.0779
     22 C          -0.8890    1.0045   28.3266 C.2     1  UNL1        0.1807
     23 O          -1.6642    1.9681   27.4779 O.2     1  UNL1       -0.2908
     24 C           6.1382   -3.7129   22.2910 C.3     1  UNL1        0.0767
     25 C           4.6415   -3.7563   22.2022 C.3     1  UNL1        0.0091
     26 C           4.2252   -2.9620   20.9998 C.3     1  UNL1        0.0005
     27 C           5.4646   -2.4277   20.3454 C.3     1  UNL1        0.0005
     28 C           6.6469   -2.8918   21.1434 C.3     1  UNL1        0.0091
     29 C           7.9293   -1.6257   28.5907 C.3     1  UNL1        0.0738
     30 N           7.4361   -2.2479   29.8634 N.3     1  UNL1       -0.2726
     31 C           8.2746   -3.2697   30.5727 C.3     1  UNL1        0.0721
     32 C           7.7814   -3.8919   31.8453 C.3     1  UNL1        0.0174
     33 C           6.4498   -3.4923   32.4087 C.3     1  UNL1        0.0031
     34 C           5.6115   -2.4706   31.6994 C.3     1  UNL1        0.0204
     35 C           6.1046   -1.8484   30.4267 C.3     1  UNL1        0.0724
     36 C           4.2799   -2.0709   32.2627 C.3     1  UNL1        0.0277
     37 C           4.1912   -0.9483   33.2536 C.ar    1  UNL1       -0.0220
     38 C           4.7915   -1.1042   34.6194 C.ar    1  UNL1       -0.0020
     39 C           4.7028    0.0184   35.6103 C.ar    1  UNL1        0.0293
     40 C           4.0137    1.2970   35.2353 C.ar    1  UNL1        0.1401
     41 F           3.9249    2.4196   36.2262 F       1  UNL1       -0.2042
     42 C           3.4134    1.4529   33.8696 C.ar    1  UNL1        0.0293
     43 C           3.5021    0.3302   32.8787 C.ar    1  UNL1       -0.0020
@<TRIPOS>BOND
     1    21    22    1
     2    22    23    2
     3    22    15    1
     4    15    16   ar
     5    16    17   ar
     6    17     9    1
     7     9    10   am
     8    10    11    2
     9    10    12   am
    10     1    12    1
    11     1     2    1
    12     2     3    1
    13     3     4   am
    14     4     5    2
    15     4    24    1
    16    24    25    1
    17    25    26    1
    18    26    27    1
    19    27    28    1
    20     3     6    1
    21     6     7    1
    22     7     8    1
    23     8    29    1
    24    29    30    1
    25    30    31    1
    26    31    32    1
    27    32    33    1
    28    33    34    1
    29    34    36    1
    30    36    37    1
    31    37    38   ar
    32    38    39   ar
    33    39    40   ar
    34    40    41    1
    35    40    42   ar
    36    42    43   ar
    37    34    35    1
    38    17    18   ar
    39    18    19   ar
    40    19    20    1
    41    19    15   ar
    42     8     1    1
    43    35    30    1
    44    28    24    1
    45    43    37   ar
    46     9    13    1
    47    12    14    1
