@<TRIPOS>MOLECULE
*****
 30 34 0 0 0
SMALL
GASTEIGER

@<TRIPOS>ATOM
      1 C           3.2733    2.3230   36.0870 C.ar    1  UNL1        0.1670
      2 N           3.9140    1.3376   35.1551 N.ar    1  UNL1       -0.2221
      3 C           3.1505    1.3564   33.8641 C.ar    1  UNL1        0.1305
      4 C           3.3247    0.5945   32.5839 C.ar    1  UNL1        0.0765
      5 C           2.3862    0.8296   31.4375 C.ar    1  UNL1        0.0664
      6 BR          2.5604    0.0676   30.1572 Br      1  UNL1       -0.0461
      7 C           1.2736    1.8266   31.5715 C.ar    1  UNL1        0.0816
      8 N           1.0994    2.5886   32.8518 N.ar    1  UNL1       -0.3357
      9 C           2.0379    2.3535   33.9981 C.ar    1  UNL1        0.1613
     10 N           2.1137    2.9508   35.3719 N.ar    1  UNL1       -0.2080
     11 H           0.3692    3.2430   32.9397 H       1  UNL1        0.1675
     12 C           3.9672    4.7712   40.7135 C.3     1  UNL1        0.1538
     13 N           4.0335    3.7525   39.6146 N.ar    1  UNL1       -0.2472
     14 C           3.3913    3.8694   38.2640 C.ar    1  UNL1        0.0997
     15 C           3.7145    2.6272   37.4880 C.ar    1  UNL1        0.0754
     16 C           4.5565    1.7425   38.3588 C.ar    1  UNL1        0.1247
     17 N           4.7536    2.4379   39.6731 N.ar    1  UNL1       -0.1675
     18 N           4.4374   -0.4026   32.4498 N.pl3   1  UNL1       -0.3030
     19 C           4.2492   -1.8070   32.9420 C.3     1  UNL1        0.1082
     20 C           5.3619   -2.8040   32.8079 C.3     1  UNL1        0.0941
     21 N           6.6626   -2.3966   32.1817 N.3     1  UNL1       -0.2659
     22 C           6.8507   -0.9922   31.6896 C.3     1  UNL1        0.0941
     23 C           5.7381    0.0048   31.8236 C.3     1  UNL1        0.1082
     24 C           7.7753   -3.3936   32.0476 C.3     1  UNL1        0.1008
     25 C           7.7446   -4.4077   30.9427 C.ar    1  UNL1        0.0130
     26 C           6.7837   -4.2456   29.8024 C.ar    1  UNL1        0.0002
     27 C           6.7529   -5.2596   28.6975 C.ar    1  UNL1        0.0204
     28 C           7.6830   -6.4359   28.7330 C.ar    1  UNL1        0.0989
     29 N           8.6439   -6.5980   29.8734 N.ar    1  UNL1       -0.2426
     30 C           8.6747   -5.5840   30.9782 C.ar    1  UNL1        0.0959
@<TRIPOS>BOND
     1    12    13    1
     2    13    14   ar
     3    14    15   ar
     4    15     1    1
     5     1     2   ar
     6     2     3   ar
     7     3     4   ar
     8     4    18    1
     9    18    19    1
    10    19    20    1
    11    20    21    1
    12    21    24    1
    13    24    25    1
    14    25    26   ar
    15    26    27   ar
    16    27    28   ar
    17    28    29   ar
    18    29    30   ar
    19    21    22    1
    20    22    23    1
    21     4     5   ar
    22     5     6    1
    23     5     7   ar
    24     7     8   ar
    25     8     9   ar
    26     9    10   ar
    27    15    16   ar
    28    16    17   ar
    29    17    13   ar
    30    10     1   ar
    31     9     3    1
    32    23    18    1
    33    30    25   ar
    34     8    11    1
@<TRIPOS>MOLECULE
*****
 30 34 0 0 0
SMALL
GASTEIGER

@<TRIPOS>ATOM
      1 C         -15.0311   -7.1285   18.8917 C.ar    1  UNL1        0.1670
      2 N         -14.4135   -5.7892   18.6184 N.ar    1  UNL1       -0.2221
      3 C         -12.9932   -6.0124   18.1906 C.ar    1  UNL1        0.1305
      4 C         -11.9032   -5.0613   17.7941 C.ar    1  UNL1        0.0765
      5 C         -10.5530   -5.5876   17.4065 C.ar    1  UNL1        0.0664
      6 BR         -9.4629   -4.6365   17.0099 Br      1  UNL1       -0.0461
      7 C         -10.2929   -7.0648   17.4154 C.ar    1  UNL1        0.0816
      8 N         -11.3830   -8.0159   17.8119 N.ar    1  UNL1       -0.3357
      9 C         -12.7331   -7.4897   18.1995 C.ar    1  UNL1        0.1613
     10 N         -13.9926   -8.1795   18.6328 N.ar    1  UNL1       -0.2080
     11 H         -11.2123   -8.9854   17.8178 H       1  UNL1        0.1675
     12 C         -20.2029   -6.5204   19.7657 C.3     1  UNL1        0.1538
     13 N         -18.8172   -7.0943   19.7461 N.ar    1  UNL1       -0.2472
     14 C         -17.6066   -6.4549   19.1333 C.ar    1  UNL1        0.0997
     15 C         -16.4400   -7.3738   19.3444 C.ar    1  UNL1        0.0754
     16 C         -16.9296   -8.5812   20.0878 C.ar    1  UNL1        0.1247
     17 N         -18.3987   -8.4084   20.3361 N.ar    1  UNL1       -0.1675
     18 N         -12.1632   -3.5840   17.7851 N.pl3   1  UNL1       -0.3030
     19 C         -11.7009   -2.7342   18.9314 C.3     1  UNL1        0.1082
     20 C         -11.9610   -1.2570   18.9224 C.3     1  UNL1        0.0941
     21 N         -12.6832   -0.6296   17.7671 N.3     1  UNL1       -0.2659
     22 C         -13.1455   -1.4794   16.6208 C.3     1  UNL1        0.0941
     23 C         -12.8855   -2.9567   16.6298 C.3     1  UNL1        0.1082
     24 C         -12.9433    0.8477   17.7581 C.3     1  UNL1        0.1008
     25 C         -14.2719    1.3781   18.2093 C.ar    1  UNL1        0.0130
     26 C         -15.1498    0.5457   19.0961 C.ar    1  UNL1        0.0002
     27 C         -16.4784    1.0761   19.5473 C.ar    1  UNL1        0.0204
     28 C         -16.9290    2.4389   19.1118 C.ar    1  UNL1        0.0989
     29 N         -16.0511    3.2713   18.2250 N.ar    1  UNL1       -0.2426
     30 C         -14.7225    2.7409   17.7737 C.ar    1  UNL1        0.0959
@<TRIPOS>BOND
     1    12    13    1
     2    13    14   ar
     3    14    15   ar
     4    15     1    1
     5     1     2   ar
     6     2     3   ar
     7     3     4   ar
     8     4    18    1
     9    18    19    1
    10    19    20    1
    11    20    21    1
    12    21    24    1
    13    24    25    1
    14    25    26   ar
    15    26    27   ar
    16    27    28   ar
    17    28    29   ar
    18    29    30   ar
    19    21    22    1
    20    22    23    1
    21     4     5   ar
    22     5     6    1
    23     5     7   ar
    24     7     8   ar
    25     8     9   ar
    26     9    10   ar
    27    15    16   ar
    28    16    17   ar
    29    17    13   ar
    30    10     1   ar
    31     9     3    1
    32    23    18    1
    33    30    25   ar
    34     8    11    1
@<TRIPOS>MOLECULE
*****
 30 34 0 0 0
SMALL
GASTEIGER

@<TRIPOS>ATOM
      1 C         -14.8375   -7.2743   18.8141 C.ar    1  UNL1        0.1670
      2 N         -14.9716   -5.7803   18.8031 N.ar    1  UNL1       -0.2221
      3 C         -13.5924   -5.1914   18.7726 C.ar    1  UNL1        0.1305
      4 C         -13.1073   -3.7722   18.7509 C.ar    1  UNL1        0.0765
      5 C         -11.6357   -3.4830   18.7214 C.ar    1  UNL1        0.0664
      6 BR        -11.1506   -2.0637   18.6997 Br      1  UNL1       -0.0461
      7 C         -10.6493   -4.6129   18.7134 C.ar    1  UNL1        0.0816
      8 N         -11.1344   -6.0321   18.7351 N.ar    1  UNL1       -0.3357
      9 C         -12.6059   -6.3214   18.7647 C.ar    1  UNL1        0.1613
     10 N         -13.3755   -7.6087   18.7903 N.ar    1  UNL1       -0.2080
     11 H         -10.4869   -6.7738   18.7299 H       1  UNL1        0.1675
     12 C         -18.9144  -10.2862   17.3349 C.3     1  UNL1        0.1538
     13 N         -17.8412   -9.6452   18.1638 N.ar    1  UNL1       -0.2472
     14 C         -16.8505   -8.6245   17.6873 C.ar    1  UNL1        0.0997
     15 C         -15.9672   -8.2607   18.8437 C.ar    1  UNL1        0.0754
     16 C         -16.4118   -9.0564   20.0350 C.ar    1  UNL1        0.1247
     17 N         -17.5700   -9.9121   19.6147 N.ar    1  UNL1       -0.1675
     18 N         -14.0938   -2.6421   18.7588 N.pl3   1  UNL1       -0.3030
     19 C         -14.4687   -1.9649   17.4740 C.3     1  UNL1        0.1082
     20 C         -15.4551   -0.8349   17.4820 C.3     1  UNL1        0.0941
     21 N         -16.0665   -0.3822   18.7748 N.3     1  UNL1       -0.2659
     22 C         -15.6916   -1.0594   20.0596 C.3     1  UNL1        0.0941
     23 C         -14.7052   -2.1894   20.0516 C.3     1  UNL1        0.1082
     24 C         -17.0529    0.7479   18.7828 C.3     1  UNL1        0.1008
     25 C         -17.5315    1.3164   20.0858 C.ar    1  UNL1        0.0130
     26 C         -16.7671    2.4252   20.7462 C.ar    1  UNL1        0.0002
     27 C         -17.2456    2.9938   22.0491 C.ar    1  UNL1        0.0204
     28 C         -18.4887    2.4536   22.6917 C.ar    1  UNL1        0.0989
     29 N         -19.2531    1.3448   22.0313 N.ar    1  UNL1       -0.2426
     30 C         -18.7746    0.7762   20.7284 C.ar    1  UNL1        0.0959
@<TRIPOS>BOND
     1    12    13    1
     2    13    14   ar
     3    14    15   ar
     4    15     1    1
     5     1     2   ar
     6     2     3   ar
     7     3     4   ar
     8     4    18    1
     9    18    19    1
    10    19    20    1
    11    20    21    1
    12    21    24    1
    13    24    25    1
    14    25    26   ar
    15    26    27   ar
    16    27    28   ar
    17    28    29   ar
    18    29    30   ar
    19    21    22    1
    20    22    23    1
    21     4     5   ar
    22     5     6    1
    23     5     7   ar
    24     7     8   ar
    25     8     9   ar
    26     9    10   ar
    27    15    16   ar
    28    16    17   ar
    29    17    13   ar
    30    10     1   ar
    31     9     3    1
    32    23    18    1
    33    30    25   ar
    34     8    11    1
@<TRIPOS>MOLECULE
*****
 30 34 0 0 0
SMALL
GASTEIGER

@<TRIPOS>ATOM
      1 C           1.2683    1.4738   30.9240 C.ar    1  UNL1        0.1670
      2 N           2.4369    0.6217   31.3219 N.ar    1  UNL1       -0.2221
      3 C           2.8241    0.9912   32.7231 C.ar    1  UNL1        0.1305
      4 C           3.9029    0.4834   33.6332 C.ar    1  UNL1        0.0765
      5 C           4.0524    1.0560   35.0116 C.ar    1  UNL1        0.0664
      6 BR          5.1312    0.5482   35.9218 Br      1  UNL1       -0.0461
      7 C           3.1231    2.1364   35.4798 C.ar    1  UNL1        0.0816
      8 N           2.0444    2.6442   34.5696 N.ar    1  UNL1       -0.3357
      9 C           1.8949    2.0716   33.1913 C.ar    1  UNL1        0.1613
     10 N           0.9333    2.3699   32.0794 N.ar    1  UNL1       -0.2080
     11 H           1.4344    3.3533   34.8769 H       1  UNL1        0.1675
     12 C          -0.9359    2.9655   26.3637 C.3     1  UNL1        0.1538
     13 N          -0.4541    2.1221   27.5066 N.ar    1  UNL1       -0.2472
     14 C           0.2687    2.6170   28.7243 C.ar    1  UNL1        0.0997
     15 C           0.5591    1.4364   29.6028 C.ar    1  UNL1        0.0754
     16 C           0.0158    0.2118   28.9281 C.ar    1  UNL1        0.1247
     17 N          -0.6104    0.6355   27.6326 N.ar    1  UNL1       -0.1675
     18 N           4.8323   -0.5970   33.1651 N.pl3   1  UNL1       -0.3030
     19 C           4.4389   -2.0376   33.3058 C.3     1  UNL1        0.1082
     20 C           5.3683   -3.1180   32.8377 C.3     1  UNL1        0.0941
     21 N           6.6910   -2.7576   32.2289 N.3     1  UNL1       -0.2659
     22 C           7.0843   -1.3170   32.0881 C.3     1  UNL1        0.0941
     23 C           6.1549   -0.2367   32.5563 C.3     1  UNL1        0.1082
     24 C           7.6203   -3.8380   31.7607 C.3     1  UNL1        0.1008
     25 C           7.4009   -4.4907   30.4280 C.ar    1  UNL1        0.0130
     26 C           6.6478   -3.7652   29.3525 C.ar    1  UNL1        0.0002
     27 C           6.4283   -4.4179   28.0199 C.ar    1  UNL1        0.0204
     28 C           6.9619   -5.7960   27.7628 C.ar    1  UNL1        0.0989
     29 N           7.7149   -6.5214   28.8383 N.ar    1  UNL1       -0.2426
     30 C           7.9344   -5.8688   30.1709 C.ar    1  UNL1        0.0959
@<TRIPOS>BOND
     1    12    13    1
     2    13    14   ar
     3    14    15   ar
     4    15     1    1
     5     1     2   ar
     6     2     3   ar
     7     3     4   ar
     8     4    18    1
     9    18    19    1
    10    19    20    1
    11    20    21    1
    12    21    24    1
    13    24    25    1
    14    25    26   ar
    15    26    27   ar
    16    27    28   ar
    17    28    29   ar
    18    29    30   ar
    19    21    22    1
    20    22    23    1
    21     4     5   ar
    22     5     6    1
    23     5     7   ar
    24     7     8   ar
    25     8     9   ar
    26     9    10   ar
    27    15    16   ar
    28    16    17   ar
    29    17    13   ar
    30    10     1   ar
    31     9     3    1
    32    23    18    1
    33    30    25   ar
    34     8    11    1
@<TRIPOS>MOLECULE
*****
 30 34 0 0 0
SMALL
GASTEIGER

@<TRIPOS>ATOM
      1 C          -0.3217    1.6802   26.0504 C.ar    1  UNL1        0.1670
      2 N           0.2708    1.3553   24.7112 N.ar    1  UNL1       -0.2221
      3 C          -0.2957    2.3163   23.7084 C.ar    1  UNL1        0.1305
      4 C          -0.0750    2.4734   22.2330 C.ar    1  UNL1        0.0765
      5 C          -0.7970    3.5494   21.4771 C.ar    1  UNL1        0.0664
      6 BR         -0.5763    3.7065   20.0017 Br      1  UNL1       -0.0461
      7 C          -1.7394    4.4680   22.1965 C.ar    1  UNL1        0.0816
      8 N          -1.9601    4.3109   23.6719 N.ar    1  UNL1       -0.3357
      9 C          -1.2383    3.2350   24.4278 C.ar    1  UNL1        0.1613
     10 N          -1.2543    2.8419   25.8752 N.ar    1  UNL1       -0.2080
     11 H          -2.5788    4.9139   24.1440 H       1  UNL1        0.1675
     12 C           2.2480   -0.5548   30.0855 C.3     1  UNL1        0.1538
     13 N           1.1488   -0.0590   29.1934 N.ar    1  UNL1       -0.2472
     14 C           1.3285    0.6602   27.8893 C.ar    1  UNL1        0.0997
     15 C          -0.0323    0.9683   27.3386 C.ar    1  UNL1        0.0754
     16 C          -1.0530    0.4396   28.3023 C.ar    1  UNL1        0.1247
     17 N          -0.3230   -0.1953   29.4486 N.ar    1  UNL1       -0.1675
     18 N           0.8675    1.5547   21.5135 N.pl3   1  UNL1       -0.3030
     19 C           0.3448    0.3188   20.8433 C.3     1  UNL1        0.1082
     20 C           1.2874   -0.5999   20.1239 C.3     1  UNL1        0.0941
     21 N           2.7527   -0.2825   20.0746 N.3     1  UNL1       -0.2659
     22 C           3.2753    0.9534   20.7448 C.3     1  UNL1        0.0941
     23 C           2.3327    1.8721   21.4643 C.3     1  UNL1        0.1082
     24 C           3.6953   -1.2011   19.3552 C.3     1  UNL1        0.1008
     25 C           4.6168   -2.0912   20.1353 C.ar    1  UNL1        0.0130
     26 C           4.2014   -2.6049   21.4820 C.ar    1  UNL1        0.0002
     27 C           5.1229   -3.4950   22.2622 C.ar    1  UNL1        0.0204
     28 C           6.4598   -3.8713   21.6956 C.ar    1  UNL1        0.0989
     29 N           6.8752   -3.3576   20.3489 N.ar    1  UNL1       -0.2426
     30 C           5.9538   -2.4676   19.5688 C.ar    1  UNL1        0.0959
@<TRIPOS>BOND
     1    12    13    1
     2    13    14   ar
     3    14    15   ar
     4    15     1    1
     5     1     2   ar
     6     2     3   ar
     7     3     4   ar
     8     4    18    1
     9    18    19    1
    10    19    20    1
    11    20    21    1
    12    21    24    1
    13    24    25    1
    14    25    26   ar
    15    26    27   ar
    16    27    28   ar
    17    28    29   ar
    18    29    30   ar
    19    21    22    1
    20    22    23    1
    21     4     5   ar
    22     5     6    1
    23     5     7   ar
    24     7     8   ar
    25     8     9   ar
    26     9    10   ar
    27    15    16   ar
    28    16    17   ar
    29    17    13   ar
    30    10     1   ar
    31     9     3    1
    32    23    18    1
    33    30    25   ar
    34     8    11    1
@<TRIPOS>MOLECULE
*****
 30 34 0 0 0
SMALL
GASTEIGER

@<TRIPOS>ATOM
      1 C           4.0123   -1.0612   28.1070 C.ar    1  UNL1        0.1670
      2 N           4.3355   -1.3481   26.6706 N.ar    1  UNL1       -0.2221
      3 C           5.7025   -1.9633   26.6171 C.ar    1  UNL1        0.1305
      4 C           6.5397   -2.4505   25.4718 C.ar    1  UNL1        0.0765
      5 C           7.8985   -3.0312   25.7298 C.ar    1  UNL1        0.0664
      6 BR          8.7357   -3.5185   24.5845 Br      1  UNL1       -0.0461
      7 C           8.4200   -3.1246   27.1331 C.ar    1  UNL1        0.0816
      8 N           7.5829   -2.6374   28.2783 N.ar    1  UNL1       -0.3357
      9 C           6.2241   -2.0567   28.0204 C.ar    1  UNL1        0.1613
     10 N           5.1795   -1.4992   28.9412 N.ar    1  UNL1       -0.2080
     11 H           7.9252   -2.6987   29.1994 H       1  UNL1        0.1675
     12 C          -0.5201    1.6370   28.3466 C.3     1  UNL1        0.1538
     13 N           0.6611    0.7956   28.7294 N.ar    1  UNL1       -0.2472
     14 C           1.7852    0.3893   27.8230 C.ar    1  UNL1        0.0997
     15 C           2.7445   -0.4447   28.6193 C.ar    1  UNL1        0.0754
     16 C           2.2134   -0.5539   30.0179 C.ar    1  UNL1        0.1247
     17 N           0.9258    0.2126   30.0859 N.ar    1  UNL1       -0.1675
     18 N           6.0181   -2.3572   24.0684 N.pl3   1  UNL1       -0.3030
     19 C           6.2134   -1.0974   23.2780 C.3     1  UNL1        0.1082
     20 C           5.6919   -1.0041   21.8747 C.3     1  UNL1        0.0941
     21 N           4.9751   -2.1706   21.2619 N.3     1  UNL1       -0.2659
     22 C           4.7798   -3.4303   22.0523 C.3     1  UNL1        0.0941
     23 C           5.3014   -3.5236   23.4556 C.3     1  UNL1        0.1082
     24 C           4.4535   -2.0773   19.8585 C.3     1  UNL1        0.1008
     25 C           3.3214   -1.1462   19.5395 C.ar    1  UNL1        0.0130
     26 C           2.0715   -1.1737   20.3683 C.ar    1  UNL1        0.0002
     27 C           0.9395   -0.2427   20.0493 C.ar    1  UNL1        0.0204
     28 C           1.0574    0.7156   18.9014 C.ar    1  UNL1        0.0989
     29 N           2.3073    0.7431   18.0726 N.ar    1  UNL1       -0.2426
     30 C           3.4393   -0.1879   18.3916 C.ar    1  UNL1        0.0959
@<TRIPOS>BOND
     1    12    13    1
     2    13    14   ar
     3    14    15   ar
     4    15     1    1
     5     1     2   ar
     6     2     3   ar
     7     3     4   ar
     8     4    18    1
     9    18    19    1
    10    19    20    1
    11    20    21    1
    12    21    24    1
    13    24    25    1
    14    25    26   ar
    15    26    27   ar
    16    27    28   ar
    17    28    29   ar
    18    29    30   ar
    19    21    22    1
    20    22    23    1
    21     4     5   ar
    22     5     6    1
    23     5     7   ar
    24     7     8   ar
    25     8     9   ar
    26     9    10   ar
    27    15    16   ar
    28    16    17   ar
    29    17    13   ar
    30    10     1   ar
    31     9     3    1
    32    23    18    1
    33    30    25   ar
    34     8    11    1
@<TRIPOS>MOLECULE
*****
 30 34 0 0 0
SMALL
GASTEIGER

@<TRIPOS>ATOM
      1 C           2.3694   -0.3429   28.7236 C.ar    1  UNL1        0.1670
      2 N           3.0739   -0.3594   30.0477 N.ar    1  UNL1       -0.2221
      3 C           4.3870   -1.0612   29.8653 C.ar    1  UNL1        0.1305
      4 C           5.4991   -1.3742   30.8220 C.ar    1  UNL1        0.0765
      5 C           6.7182   -2.1045   30.3418 C.ar    1  UNL1        0.0664
      6 BR          7.8303   -2.4176   31.2985 Br      1  UNL1       -0.0461
      7 C           6.8251   -2.5218   28.9051 C.ar    1  UNL1        0.0816
      8 N           5.7130   -2.2088   27.9484 N.ar    1  UNL1       -0.3357
      9 C           4.4940   -1.4785   28.4285 C.ar    1  UNL1        0.1613
     10 N           3.2470   -1.0345   27.7229 N.ar    1  UNL1       -0.2080
     11 H           5.7833   -2.4826   27.0053 H       1  UNL1        0.1675
     12 C          -1.4376    2.8018   26.8532 C.3     1  UNL1        0.1538
     13 N          -0.7264    1.7050   27.5887 N.ar    1  UNL1       -0.2472
     14 C           0.7522    1.4526   27.5807 C.ar    1  UNL1        0.0997
     15 C           1.0235    0.2595   28.4484 C.ar    1  UNL1        0.0754
     16 C          -0.2874   -0.2256   28.9927 C.ar    1  UNL1        0.1247
     17 N          -1.3689    0.6678   28.4614 N.ar    1  UNL1       -0.1675
     18 N           5.3922   -0.9570   32.2589 N.pl3   1  UNL1       -0.3030
     19 C           4.5419   -1.7479   33.2083 C.3     1  UNL1        0.1082
     20 C           4.4351   -1.3306   34.6451 C.3     1  UNL1        0.0941
     21 N           5.1785   -0.1224   35.1324 N.3     1  UNL1       -0.2659
     22 C           6.0287    0.6686   34.1831 C.3     1  UNL1        0.0941
     23 C           6.1356    0.2513   32.7462 C.3     1  UNL1        0.1082
     24 C           5.0717    0.2949   36.5693 C.3     1  UNL1        0.1008
     25 C           3.9293    1.1581   37.0166 C.ar    1  UNL1        0.0130
     26 C           3.3986    1.0348   38.4142 C.ar    1  UNL1        0.0002
     27 C           2.2563    1.8978   38.8616 C.ar    1  UNL1        0.0204
     28 C           1.6446    2.8842   37.9114 C.ar    1  UNL1        0.0989
     29 N           2.1753    3.0075   36.5138 N.ar    1  UNL1       -0.2426
     30 C           3.3176    2.1444   36.0664 C.ar    1  UNL1        0.0959
@<TRIPOS>BOND
     1    12    13    1
     2    13    14   ar
     3    14    15   ar
     4    15     1    1
     5     1     2   ar
     6     2     3   ar
     7     3     4   ar
     8     4    18    1
     9    18    19    1
    10    19    20    1
    11    20    21    1
    12    21    24    1
    13    24    25    1
    14    25    26   ar
    15    26    27   ar
    16    27    28   ar
    17    28    29   ar
    18    29    30   ar
    19    21    22    1
    20    22    23    1
    21     4     5   ar
    22     5     6    1
    23     5     7   ar
    24     7     8   ar
    25     8     9   ar
    26     9    10   ar
    27    15    16   ar
    28    16    17   ar
    29    17    13   ar
    30    10     1   ar
    31     9     3    1
    32    23    18    1
    33    30    25   ar
    34     8    11    1
@<TRIPOS>MOLECULE
*****
 30 34 0 0 0
SMALL
GASTEIGER

@<TRIPOS>ATOM
      1 C           1.6378    0.7231   23.1523 C.ar    1  UNL1        0.1670
      2 N           2.7502   -0.0781   22.5433 N.ar    1  UNL1       -0.2221
      3 C           2.6401    0.0352   21.0516 C.ar    1  UNL1        0.1305
      4 C           3.4623   -0.5423   19.9379 C.ar    1  UNL1        0.0765
      5 C           3.1040   -0.2487   18.5111 C.ar    1  UNL1        0.0664
      6 BR          3.9262   -0.8263   17.3973 Br      1  UNL1       -0.0461
      7 C           1.9237    0.6224   18.1983 C.ar    1  UNL1        0.0816
      8 N           1.1016    1.2000   19.3120 N.ar    1  UNL1       -0.3357
      9 C           1.4598    0.9064   20.7387 C.ar    1  UNL1        0.1613
     10 N           0.8403    1.3315   22.0370 N.ar    1  UNL1       -0.2080
     11 H           0.3269    1.7717   19.1066 H       1  UNL1        0.1675
     12 C          -0.8336    1.5558   27.7435 C.3     1  UNL1        0.1538
     13 N           0.2340    1.2698   26.7294 N.ar    1  UNL1       -0.2472
     14 C           0.0414    1.1945   25.2437 C.ar    1  UNL1        0.0997
     15 C           1.3700    0.8870   24.6190 C.ar    1  UNL1        0.0754
     16 C           2.3838    0.7723   25.7186 C.ar    1  UNL1        0.1247
     17 N           1.6817    1.0088   27.0229 N.ar    1  UNL1       -0.1675
     18 N           4.6426   -1.4135   20.2507 N.pl3   1  UNL1       -0.3030
     19 C           4.4993   -2.9065   20.2302 C.3     1  UNL1        0.1082
     20 C           5.6797   -3.7776   20.5431 C.3     1  UNL1        0.0941
     21 N           7.0034   -3.1557   20.8764 N.3     1  UNL1       -0.2659
     22 C           7.1467   -1.6627   20.8969 C.3     1  UNL1        0.0941
     23 C           5.9663   -0.7916   20.5840 C.3     1  UNL1        0.1082
     24 C           8.1838   -4.0268   21.1892 C.3     1  UNL1        0.1008
     25 C           8.1462   -4.9427   22.3766 C.ar    1  UNL1        0.0130
     26 C           8.7947   -6.2933   22.3028 C.ar    1  UNL1        0.0002
     27 C           8.7572   -7.2092   23.4900 C.ar    1  UNL1        0.0204
     28 C           8.0712   -6.7745   24.7512 C.ar    1  UNL1        0.0989
     29 N           7.4228   -5.4239   24.8250 N.ar    1  UNL1       -0.2426
     30 C           7.4603   -4.5080   23.6378 C.ar    1  UNL1        0.0959
@<TRIPOS>BOND
     1    12    13    1
     2    13    14   ar
     3    14    15   ar
     4    15     1    1
     5     1     2   ar
     6     2     3   ar
     7     3     4   ar
     8     4    18    1
     9    18    19    1
    10    19    20    1
    11    20    21    1
    12    21    24    1
    13    24    25    1
    14    25    26   ar
    15    26    27   ar
    16    27    28   ar
    17    28    29   ar
    18    29    30   ar
    19    21    22    1
    20    22    23    1
    21     4     5   ar
    22     5     6    1
    23     5     7   ar
    24     7     8   ar
    25     8     9   ar
    26     9    10   ar
    27    15    16   ar
    28    16    17   ar
    29    17    13   ar
    30    10     1   ar
    31     9     3    1
    32    23    18    1
    33    30    25   ar
    34     8    11    1
@<TRIPOS>MOLECULE
*****
 30 34 0 0 0
SMALL
GASTEIGER

@<TRIPOS>ATOM
      1 C           5.8195   -2.4008   26.8016 C.ar    1  UNL1        0.1670
      2 N           5.6773   -2.3911   25.3084 N.ar    1  UNL1       -0.2221
      3 C           6.8089   -3.1880   24.7299 C.ar    1  UNL1        0.1305
      4 C           7.1817   -3.5212   23.3157 C.ar    1  UNL1        0.0765
      5 C           8.3961   -4.3566   23.0373 C.ar    1  UNL1        0.0664
      6 BR          8.7689   -4.6899   21.6230 Br      1  UNL1       -0.0461
      7 C           9.2375   -4.8587   24.1729 C.ar    1  UNL1        0.0816
      8 N           8.8647   -4.5255   25.5871 N.ar    1  UNL1       -0.3357
      9 C           7.6504   -3.6901   25.8656 C.ar    1  UNL1        0.1613
     10 N           7.0389   -3.2036   27.1460 N.ar    1  UNL1       -0.2080
     11 H           9.4170   -4.8550   26.3325 H       1  UNL1        0.1675
     12 C           1.5435   -0.1966   28.9783 C.3     1  UNL1        0.1538
     13 N           2.9377   -0.7129   28.7795 N.ar    1  UNL1       -0.2472
     14 C           3.4659   -1.3701   27.5388 C.ar    1  UNL1        0.0997
     15 C           4.9032   -1.7261   27.7789 C.ar    1  UNL1        0.0754
     16 C           5.2633   -1.2889   29.1679 C.ar    1  UNL1        0.1247
     17 N           4.0485   -0.6627   29.7862 N.ar    1  UNL1       -0.1675
     18 N           6.3402   -3.0192   22.1800 N.pl3   1  UNL1       -0.3030
     19 C           6.6659   -1.7083   21.5276 C.3     1  UNL1        0.1082
     20 C           5.8244   -1.2063   20.3919 C.3     1  UNL1        0.0941
     21 N           4.6573   -2.0152   19.9086 N.3     1  UNL1       -0.2659
     22 C           4.3316   -3.3260   20.5609 C.3     1  UNL1        0.0941
     23 C           5.1731   -3.8280   21.6967 C.3     1  UNL1        0.1082
     24 C           3.8157   -1.5132   18.7729 C.3     1  UNL1        0.1008
     25 C           2.6798   -0.5707   19.0405 C.ar    1  UNL1        0.0130
     26 C           1.6943   -0.8741   20.1298 C.ar    1  UNL1        0.0002
     27 C           0.5584    0.0683   20.3975 C.ar    1  UNL1        0.0204
     28 C           0.4081    1.3142   19.5758 C.ar    1  UNL1        0.0989
     29 N           1.3937    1.6176   18.4865 N.ar    1  UNL1       -0.2426
     30 C           2.5295    0.6752   18.2188 C.ar    1  UNL1        0.0959
@<TRIPOS>BOND
     1    12    13    1
     2    13    14   ar
     3    14    15   ar
     4    15     1    1
     5     1     2   ar
     6     2     3   ar
     7     3     4   ar
     8     4    18    1
     9    18    19    1
    10    19    20    1
    11    20    21    1
    12    21    24    1
    13    24    25    1
    14    25    26   ar
    15    26    27   ar
    16    27    28   ar
    17    28    29   ar
    18    29    30   ar
    19    21    22    1
    20    22    23    1
    21     4     5   ar
    22     5     6    1
    23     5     7   ar
    24     7     8   ar
    25     8     9   ar
    26     9    10   ar
    27    15    16   ar
    28    16    17   ar
    29    17    13   ar
    30    10     1   ar
    31     9     3    1
    32    23    18    1
    33    30    25   ar
    34     8    11    1
