@<TRIPOS>MOLECULE
*****
 28 30 0 0 0
SMALL
GASTEIGER

@<TRIPOS>ATOM
      1 C          -8.1760  -16.6048   23.5417 C.ar    1  UNL1        0.1644
      2 N          -9.1350  -17.0562   24.6031 N.ar    1  UNL1       -0.2335
      3 C         -10.4577  -17.3247   23.9487 C.ar    1  UNL1        0.0939
      4 C         -11.7728  -17.7923   24.4983 C.ar    1  UNL1        0.0239
      5 C         -12.9464  -17.9744   23.5819 C.ar    1  UNL1        0.0790
      6 C         -12.8049  -17.6890   22.1162 C.ar    1  UNL1        0.0798
      7 C         -11.4899  -17.2214   21.5667 C.ar    1  UNL1        0.2972
      8 C         -10.3163  -17.0393   22.4829 C.ar    1  UNL1        0.1179
      9 S          -8.9060  -16.5944   22.2314 S.2     1  UNL1       -0.0559
     10 N          -3.4668  -18.8011   22.0416 N.3     1  UNL1       -0.2676
     11 C          -4.9036  -19.1762   21.8299 C.3     1  UNL1        0.0940
     12 C          -5.9944  -18.3190   22.4006 C.3     1  UNL1        0.1111
     13 N          -5.6484  -17.0868   23.1828 N.am    1  UNL1       -0.2716
     14 C          -6.7392  -16.2298   23.7534 C.2     1  UNL1        0.2731
     15 O          -6.3931  -14.9976   24.5357 O.2     1  UNL1       -0.2677
     16 C          -4.2115  -16.7118   23.3945 C.3     1  UNL1        0.1111
     17 C          -3.1208  -17.5689   22.8239 C.3     1  UNL1        0.0940
     18 C          -2.3760  -19.6582   21.4711 C.3     1  UNL1        0.1046
     19 C          -1.8038  -19.3435   20.1207 C.3     1  UNL1        0.1595
     20 C           0.0018  -17.4784   20.0157 C.3     1  UNL1        0.1742
     21 O          -0.3671  -18.9321   19.9923 O.3     1  UNL1       -0.3496
     22 C         -14.2615  -18.4420   24.1315 C.3     1  UNL1        0.4188
     23 F         -15.5766  -18.9095   24.6810 F       1  UNL1       -0.1659
     24 F         -14.8252  -18.4891   22.7423 F       1  UNL1       -0.1659
     25 F         -13.6978  -18.3949   25.5207 F       1  UNL1       -0.1659
     26 N         -11.3484  -16.9360   20.1009 N.pl3   1  UNL1        0.0815
     27 O         -10.3675  -17.7158   19.2762 O.2     1  UNL1        0.0415
     28 O         -12.1877  -15.8709   19.4598 O.co2   1  UNL1       -0.5760
@<TRIPOS>UNITY_ATOM_ATTR
26 1
charge 1
28 1
charge -1
@<TRIPOS>BOND
     1    20    21    1
     2    21    19    1
     3    19    18    1
     4    18    10    1
     5    10    11    1
     6    11    12    1
     7    12    13    1
     8    13    14   am
     9    14    15    2
    10    14     1    1
    11     1     2   ar
    12     2     3   ar
    13     3     4   ar
    14     4     5   ar
    15     5    22    1
    16    22    23    1
    17    22    24    1
    18    22    25    1
    19     5     6   ar
    20     6     7   ar
    21     7    26    1
    22    26    27    2
    23    26    28    1
    24     7     8   ar
    25     8     9   ar
    26    13    16    1
    27    16    17    1
    28    17    10    1
    29     9     1   ar
    30     8     3   ar
@<TRIPOS>MOLECULE
*****
 28 30 0 0 0
SMALL
GASTEIGER

@<TRIPOS>ATOM
      1 C           5.0837   -1.9008   24.3773 C.ar    1  UNL1        0.1644
      2 N           4.2040   -0.7706   23.9311 N.ar    1  UNL1       -0.2335
      3 C           3.7128   -1.0836   22.5488 C.ar    1  UNL1        0.0939
      4 C           2.8154   -0.3343   21.6090 C.ar    1  UNL1        0.0239
      5 C           2.4941   -0.9086   20.2610 C.ar    1  UNL1        0.0790
      6 C           3.0701   -2.2321   19.8529 C.ar    1  UNL1        0.0798
      7 C           3.9675   -2.9813   20.7927 C.ar    1  UNL1        0.2972
      8 C           4.2889   -2.4071   22.1407 C.ar    1  UNL1        0.1179
      9 S           5.1361   -2.9121   23.2708 S.2     1  UNL1       -0.0559
     10 N           3.6296   -0.8912   29.4877 N.3     1  UNL1       -0.2676
     11 C           2.9260   -0.7901   28.1669 C.3     1  UNL1        0.0940
     12 C           3.6453   -1.1604   26.9037 C.3     1  UNL1        0.1111
     13 N           5.0682   -1.6316   26.9613 N.am    1  UNL1       -0.2716
     14 C           5.7874   -2.0018   25.6981 C.2     1  UNL1        0.2731
     15 O           7.2102   -2.4730   25.7558 O.2     1  UNL1       -0.2677
     16 C           5.7718   -1.7326   28.2822 C.3     1  UNL1        0.1111
     17 C           5.0525   -1.3624   29.5454 C.3     1  UNL1        0.0940
     18 C           2.9105   -0.5210   30.7509 C.3     1  UNL1        0.1046
     19 C           3.6674   -0.4161   32.0417 C.3     1  UNL1        0.1595
     20 C           4.7125   -2.5462   33.1002 C.3     1  UNL1        0.1742
     21 O           3.6069   -1.5343   33.0397 O.3     1  UNL1       -0.3496
     22 C           1.5966   -0.1594   19.3211 C.3     1  UNL1        0.4188
     23 F           0.6992    0.5899   18.3813 F       1  UNL1       -0.1659
     24 F           2.7619    0.0957   18.4118 F       1  UNL1       -0.1659
     25 F           0.4313   -0.4144   20.2305 F       1  UNL1       -0.1659
     26 N           4.5435   -4.3048   20.3846 N.pl3   1  UNL1        0.0815
     27 O           6.0209   -4.4442   20.1653 O.2     1  UNL1        0.0415
     28 O           3.6422   -5.4889   20.1957 O.co2   1  UNL1       -0.5760
@<TRIPOS>UNITY_ATOM_ATTR
26 1
charge 1
28 1
charge -1
@<TRIPOS>BOND
     1    20    21    1
     2    21    19    1
     3    19    18    1
     4    18    10    1
     5    10    11    1
     6    11    12    1
     7    12    13    1
     8    13    14   am
     9    14    15    2
    10    14     1    1
    11     1     2   ar
    12     2     3   ar
    13     3     4   ar
    14     4     5   ar
    15     5    22    1
    16    22    23    1
    17    22    24    1
    18    22    25    1
    19     5     6   ar
    20     6     7   ar
    21     7    26    1
    22    26    27    2
    23    26    28    1
    24     7     8   ar
    25     8     9   ar
    26    13    16    1
    27    16    17    1
    28    17    10    1
    29     9     1   ar
    30     8     3   ar
@<TRIPOS>MOLECULE
*****
 28 30 0 0 0
SMALL
GASTEIGER

@<TRIPOS>ATOM
      1 C           5.7577   -3.2254   22.3294 C.ar    1  UNL1        0.1644
      2 N           4.3347   -2.7520   22.3576 N.ar    1  UNL1       -0.2335
      3 C           4.0919   -1.9396   21.1202 C.ar    1  UNL1        0.0939
      4 C           2.8762   -1.2222   20.6130 C.ar    1  UNL1        0.0239
      5 C           2.9335   -0.4762   19.3129 C.ar    1  UNL1        0.0790
      6 C           4.2064   -0.4476   18.5201 C.ar    1  UNL1        0.0798
      7 C           5.4222   -1.1649   19.0273 C.ar    1  UNL1        0.2972
      8 C           5.3649   -1.9110   20.3273 C.ar    1  UNL1        0.1179
      9 S           6.3945   -2.7057   21.0747 S.2     1  UNL1       -0.0559
     10 N           6.2713   -2.8441   27.6998 N.3     1  UNL1       -0.2676
     11 C           5.6024   -1.9992   26.6564 C.3     1  UNL1        0.0940
     12 C           5.6542   -2.4080   25.2140 C.3     1  UNL1        0.1111
     13 N           6.3749   -3.6616   24.8151 N.am    1  UNL1       -0.2716
     14 C           6.4266   -4.0703   23.3728 C.2     1  UNL1        0.2731
     15 O           7.1472   -5.3239   22.9740 O.2     1  UNL1       -0.2677
     16 C           7.0438   -4.5065   25.8587 C.3     1  UNL1        0.1111
     17 C           6.9920   -4.0977   27.3009 C.3     1  UNL1        0.0940
     18 C           6.2196   -2.4353   29.1421 C.3     1  UNL1        0.1046
     19 C           7.1132   -3.1048   30.1438 C.3     1  UNL1        0.1595
     20 C           6.9748   -5.6427   30.6822 C.3     1  UNL1        0.1742
     21 O           6.5854   -4.2267   30.9879 O.3     1  UNL1       -0.3496
     22 C           1.7176    0.2412   18.8057 C.3     1  UNL1        0.4188
     23 F           0.5019    0.9586   18.2985 F       1  UNL1       -0.1659
     24 F           0.8603   -0.5386   19.7579 F       1  UNL1       -0.1659
     25 F           2.5750    1.0211   17.8535 F       1  UNL1       -0.1659
     26 N           6.6952   -1.1363   18.2344 N.pl3   1  UNL1        0.0815
     27 O           7.6630   -0.0038   18.4103 O.2     1  UNL1        0.0415
     28 O           7.0003   -2.2401   17.2656 O.co2   1  UNL1       -0.5760
@<TRIPOS>UNITY_ATOM_ATTR
26 1
charge 1
28 1
charge -1
@<TRIPOS>BOND
     1    20    21    1
     2    21    19    1
     3    19    18    1
     4    18    10    1
     5    10    11    1
     6    11    12    1
     7    12    13    1
     8    13    14   am
     9    14    15    2
    10    14     1    1
    11     1     2   ar
    12     2     3   ar
    13     3     4   ar
    14     4     5   ar
    15     5    22    1
    16    22    23    1
    17    22    24    1
    18    22    25    1
    19     5     6   ar
    20     6     7   ar
    21     7    26    1
    22    26    27    2
    23    26    28    1
    24     7     8   ar
    25     8     9   ar
    26    13    16    1
    27    16    17    1
    28    17    10    1
    29     9     1   ar
    30     8     3   ar
@<TRIPOS>MOLECULE
*****
 28 30 0 0 0
SMALL
GASTEIGER

@<TRIPOS>ATOM
      1 C         -14.1790   -2.2122   19.1679 C.ar    1  UNL1        0.1644
      2 N         -12.7022   -2.4455   19.2886 N.ar    1  UNL1       -0.2335
      3 C         -12.4442   -3.9065   19.0674 C.ar    1  UNL1        0.0939
      4 C         -11.1799   -4.7137   19.0671 C.ar    1  UNL1        0.0239
      5 C         -11.2330   -6.1905   18.8094 C.ar    1  UNL1        0.0790
      6 C         -12.5503   -6.8600   18.5520 C.ar    1  UNL1        0.0798
      7 C         -13.8146   -6.0528   18.5523 C.ar    1  UNL1        0.2972
      8 C         -13.7616   -4.5761   18.8100 C.ar    1  UNL1        0.1179
      9 S         -14.8337   -3.5289   18.8721 S.2     1  UNL1       -0.0559
     10 N         -13.3957    2.7070   17.0610 N.3     1  UNL1       -0.2676
     11 C         -12.6964    1.3883   16.9121 C.3     1  UNL1        0.0940
     12 C         -13.1907    0.1882   17.6641 C.3     1  UNL1        0.1111
     13 N         -14.3842    0.3066   18.5649 N.am    1  UNL1       -0.2716
     14 C         -14.8784   -0.8935   19.3168 C.2     1  UNL1        0.2731
     15 O         -16.0719   -0.7751   20.2176 O.2     1  UNL1       -0.2677
     16 C         -15.0835    1.6253   18.7137 C.3     1  UNL1        0.1111
     17 C         -14.5892    2.8254   17.9618 C.3     1  UNL1        0.0940
     18 C         -12.9016    3.9071   16.3091 C.3     1  UNL1        0.1046
     19 C         -12.4324    5.1198   17.0569 C.3     1  UNL1        0.1595
     20 C         -10.4478    6.4547   18.0717 C.3     1  UNL1        0.1742
     21 O         -11.0542    5.1497   17.6482 O.3     1  UNL1       -0.3496
     22 C          -9.9687   -6.9977   18.8092 C.3     1  UNL1        0.4188
     23 F          -8.7044   -7.8049   18.8089 F       1  UNL1       -0.1659
     24 F          -9.3226   -5.9858   19.7084 F       1  UNL1       -0.1659
     25 F         -10.6148   -8.0095   17.9099 F       1  UNL1       -0.1659
     26 N         -15.1320   -6.7224   18.2948 N.pl3   1  UNL1        0.0815
     27 O         -15.9299   -7.2728   19.4396 O.2     1  UNL1        0.0415
     28 O         -15.6514   -6.8417   16.8927 O.co2   1  UNL1       -0.5760
@<TRIPOS>UNITY_ATOM_ATTR
26 1
charge 1
28 1
charge -1
@<TRIPOS>BOND
     1    20    21    1
     2    21    19    1
     3    19    18    1
     4    18    10    1
     5    10    11    1
     6    11    12    1
     7    12    13    1
     8    13    14   am
     9    14    15    2
    10    14     1    1
    11     1     2   ar
    12     2     3   ar
    13     3     4   ar
    14     4     5   ar
    15     5    22    1
    16    22    23    1
    17    22    24    1
    18    22    25    1
    19     5     6   ar
    20     6     7   ar
    21     7    26    1
    22    26    27    2
    23    26    28    1
    24     7     8   ar
    25     8     9   ar
    26    13    16    1
    27    16    17    1
    28    17    10    1
    29     9     1   ar
    30     8     3   ar
@<TRIPOS>MOLECULE
*****
 28 30 0 0 0
SMALL
GASTEIGER

@<TRIPOS>ATOM
      1 C           3.8888    0.4738   23.6986 C.ar    1  UNL1        0.1644
      2 N           4.7222   -0.7367   23.3985 N.ar    1  UNL1       -0.2335
      3 C           4.1995   -1.3583   22.1375 C.ar    1  UNL1        0.0939
      4 C           4.6273   -2.5701   21.3637 C.ar    1  UNL1        0.0239
      5 C           3.8984   -2.9555   20.1106 C.ar    1  UNL1        0.0790
      6 C           2.7419   -2.1293   19.6313 C.ar    1  UNL1        0.0798
      7 C           2.3141   -0.9176   20.4051 C.ar    1  UNL1        0.2972
      8 C           3.0430   -0.5321   21.6582 C.ar    1  UNL1        0.1179
      9 S           2.8509    0.6003   22.6230 S.2     1  UNL1       -0.0559
     10 N           3.0822   -0.0305   29.0226 N.3     1  UNL1       -0.2676
     11 C           2.9084   -0.9527   27.8524 C.3     1  UNL1        0.0940
     12 C           3.2352   -0.4771   26.4678 C.3     1  UNL1        0.1111
     13 N           3.7358    0.9205   26.2534 N.am    1  UNL1       -0.2716
     14 C           4.0626    1.3960   24.8688 C.2     1  UNL1        0.2731
     15 O           4.5632    2.7936   24.6544 O.2     1  UNL1       -0.2677
     16 C           3.9096    1.8427   27.4237 C.3     1  UNL1        0.1111
     17 C           3.5828    1.3671   28.8082 C.3     1  UNL1        0.0940
     18 C           2.7554   -0.5060   30.4072 C.3     1  UNL1        0.1046
     19 C           3.8594   -0.8669   31.3563 C.3     1  UNL1        0.1595
     20 C           4.7891   -2.5240   33.1282 C.3     1  UNL1        0.1742
     21 O           3.6242   -1.8923   32.4254 O.3     1  UNL1       -0.3496
     22 C           4.3261   -4.1673   19.3368 C.3     1  UNL1        0.4188
     23 F           4.7539   -5.3791   18.5630 F       1  UNL1       -0.1659
     24 F           2.9015   -4.4157   18.9384 F       1  UNL1       -0.1659
     25 F           5.7507   -3.9188   19.7352 F       1  UNL1       -0.1659
     26 N           1.1576   -0.0914   19.9258 N.pl3   1  UNL1        0.0815
     27 O           1.2257    0.5920   18.5921 O.2     1  UNL1        0.0415
     28 O          -0.0671    0.0515   20.7800 O.co2   1  UNL1       -0.5760
@<TRIPOS>UNITY_ATOM_ATTR
26 1
charge 1
28 1
charge -1
@<TRIPOS>BOND
     1    20    21    1
     2    21    19    1
     3    19    18    1
     4    18    10    1
     5    10    11    1
     6    11    12    1
     7    12    13    1
     8    13    14   am
     9    14    15    2
    10    14     1    1
    11     1     2   ar
    12     2     3   ar
    13     3     4   ar
    14     4     5   ar
    15     5    22    1
    16    22    23    1
    17    22    24    1
    18    22    25    1
    19     5     6   ar
    20     6     7   ar
    21     7    26    1
    22    26    27    2
    23    26    28    1
    24     7     8   ar
    25     8     9   ar
    26    13    16    1
    27    16    17    1
    28    17    10    1
    29     9     1   ar
    30     8     3   ar
@<TRIPOS>MOLECULE
*****
 28 30 0 0 0
SMALL
GASTEIGER

@<TRIPOS>ATOM
      1 C           1.2599    1.2783   20.8064 C.ar    1  UNL1        0.1644
      2 N           1.0714   -0.2041   20.6759 N.ar    1  UNL1       -0.2335
      3 C           2.3089   -0.7753   20.0498 C.ar    1  UNL1        0.0939
      4 C           2.6909   -2.1780   19.6801 C.ar    1  UNL1        0.0239
      5 C           4.0262   -2.4513   19.0538 C.ar    1  UNL1        0.0790
      6 C           4.9795   -1.3221   18.7973 C.ar    1  UNL1        0.0798
      7 C           4.5976    0.0806   19.1669 C.ar    1  UNL1        0.2972
      8 C           3.2623    0.3539   19.7932 C.ar    1  UNL1        0.1179
      9 S           2.6140    1.6232   20.2608 S.2     1  UNL1       -0.0559
     10 N          -0.6409    2.1833   25.7881 N.3     1  UNL1       -0.2676
     11 C           0.3505    1.2156   25.2131 C.3     1  UNL1        0.0940
     12 C           0.6536    1.2366   23.7441 C.3     1  UNL1        0.1111
     13 N          -0.0347    2.2251   22.8503 N.am    1  UNL1       -0.2716
     14 C           0.2685    2.2460   21.3814 C.2     1  UNL1        0.2731
     15 O          -0.4199    3.2345   20.4875 O.2     1  UNL1       -0.2677
     16 C          -1.0262    3.1928   23.4254 C.3     1  UNL1        0.1111
     17 C          -1.3292    3.1718   24.8943 C.3     1  UNL1        0.0940
     18 C          -0.9441    2.1624   27.2570 C.3     1  UNL1        0.1046
     19 C           0.0677    1.6227   28.2240 C.3     1  UNL1        0.1595
     20 C          -1.3548   -0.4710   28.8094 C.3     1  UNL1        0.1742
     21 O          -0.0178    0.1966   28.6810 O.3     1  UNL1       -0.3496
     22 C           4.4082   -3.8540   18.6841 C.3     1  UNL1        0.4188
     23 F           4.7901   -5.2567   18.3144 F       1  UNL1       -0.1659
     24 F           5.7613   -3.3717   18.2524 F       1  UNL1       -0.1659
     25 F           3.0550   -4.3363   19.1158 F       1  UNL1       -0.1659
     26 N           5.5510    1.2098   18.9104 N.pl3   1  UNL1        0.0815
     27 O           6.7797    1.3613   19.7575 O.2     1  UNL1        0.0415
     28 O           5.2757    2.1877   17.8067 O.co2   1  UNL1       -0.5760
@<TRIPOS>UNITY_ATOM_ATTR
26 1
charge 1
28 1
charge -1
@<TRIPOS>BOND
     1    20    21    1
     2    21    19    1
     3    19    18    1
     4    18    10    1
     5    10    11    1
     6    11    12    1
     7    12    13    1
     8    13    14   am
     9    14    15    2
    10    14     1    1
    11     1     2   ar
    12     2     3   ar
    13     3     4   ar
    14     4     5   ar
    15     5    22    1
    16    22    23    1
    17    22    24    1
    18    22    25    1
    19     5     6   ar
    20     6     7   ar
    21     7    26    1
    22    26    27    2
    23    26    28    1
    24     7     8   ar
    25     8     9   ar
    26    13    16    1
    27    16    17    1
    28    17    10    1
    29     9     1   ar
    30     8     3   ar
@<TRIPOS>MOLECULE
*****
 28 30 0 0 0
SMALL
GASTEIGER

@<TRIPOS>ATOM
      1 C           4.2425    0.7492   23.1904 C.ar    1  UNL1        0.1644
      2 N           5.0516   -0.4881   22.9365 N.ar    1  UNL1       -0.2335
      3 C           4.4292   -1.2208   21.7852 C.ar    1  UNL1        0.0939
      4 C           4.7953   -2.5010   21.0944 C.ar    1  UNL1        0.0239
      5 C           3.9675   -2.9967   19.9459 C.ar    1  UNL1        0.0790
      6 C           2.7737   -2.2124   19.4882 C.ar    1  UNL1        0.0798
      7 C           2.4077   -0.9322   20.1789 C.ar    1  UNL1        0.2972
      8 C           3.2354   -0.4364   21.3274 C.ar    1  UNL1        0.1179
      9 S           3.1200    0.7811   22.1959 S.2     1  UNL1       -0.0559
     10 N           2.4128    1.4971   28.2245 N.3     1  UNL1       -0.2676
     11 C           2.1463    0.4717   27.1626 C.3     1  UNL1        0.0940
     12 C           2.8451    0.5643   25.8385 C.3     1  UNL1        0.1111
     13 N           3.8103    1.6821   25.5763 N.am    1  UNL1       -0.2716
     14 C           4.5091    1.7745   24.2522 C.2     1  UNL1        0.2731
     15 O           5.4743    2.8923   23.9901 O.2     1  UNL1       -0.2677
     16 C           4.0768    2.7074   26.6383 C.3     1  UNL1        0.1111
     17 C           3.3781    2.6149   27.9623 C.3     1  UNL1        0.0940
     18 C           1.7141    1.4046   29.5486 C.3     1  UNL1        0.1046
     19 C           0.2236    1.5561   29.6223 C.3     1  UNL1        0.1595
     20 C          -1.2104   -0.4161   28.7257 C.3     1  UNL1        0.1742
     21 O          -0.6405    0.3570   29.8779 O.3     1  UNL1       -0.3496
     22 C           4.3335   -4.2770   19.2551 C.3     1  UNL1        0.4188
     23 F           4.6996   -5.5572   18.5644 F       1  UNL1       -0.1659
     24 F           2.9023   -4.4666   18.8482 F       1  UNL1       -0.1659
     25 F           5.7647   -4.0873   19.6620 F       1  UNL1       -0.1659
     26 N           1.2138   -0.1478   19.7212 N.pl3   1  UNL1        0.0815
     27 O           0.0277    0.0092   20.6259 O.2     1  UNL1        0.0415
     28 O           1.2061    0.4796   18.3587 O.co2   1  UNL1       -0.5760
@<TRIPOS>UNITY_ATOM_ATTR
26 1
charge 1
28 1
charge -1
@<TRIPOS>BOND
     1    20    21    1
     2    21    19    1
     3    19    18    1
     4    18    10    1
     5    10    11    1
     6    11    12    1
     7    12    13    1
     8    13    14   am
     9    14    15    2
    10    14     1    1
    11     1     2   ar
    12     2     3   ar
    13     3     4   ar
    14     4     5   ar
    15     5    22    1
    16    22    23    1
    17    22    24    1
    18    22    25    1
    19     5     6   ar
    20     6     7   ar
    21     7    26    1
    22    26    27    2
    23    26    28    1
    24     7     8   ar
    25     8     9   ar
    26    13    16    1
    27    16    17    1
    28    17    10    1
    29     9     1   ar
    30     8     3   ar
@<TRIPOS>MOLECULE
*****
 28 30 0 0 0
SMALL
GASTEIGER

@<TRIPOS>ATOM
      1 C         -12.9747   -1.1593   18.4071 C.ar    1  UNL1        0.1644
      2 N         -11.6327   -1.6887   18.8179 N.ar    1  UNL1       -0.2335
      3 C         -11.6580   -3.1811   18.6696 C.ar    1  UNL1        0.0939
      4 C         -10.6202   -4.2331   18.9271 C.ar    1  UNL1        0.0239
      5 C         -10.9400   -5.6780   18.6823 C.ar    1  UNL1        0.0790
      6 C         -12.2976   -6.0710   18.1800 C.ar    1  UNL1        0.0798
      7 C         -13.3355   -5.0190   17.9225 C.ar    1  UNL1        0.2972
      8 C         -13.0156   -3.5741   18.1673 C.ar    1  UNL1        0.1179
      9 S         -13.8294   -2.3245   18.0050 S.2     1  UNL1       -0.0559
     10 N         -17.3326    1.4985   20.1944 N.3     1  UNL1       -0.2676
     11 C         -16.9181    0.0570   20.2017 C.3     1  UNL1        0.0940
     12 C         -15.6036   -0.3484   19.6035 C.3     1  UNL1        0.1111
     13 N         -14.7037    0.6877   18.9980 N.am    1  UNL1       -0.2716
     14 C         -13.3892    0.2822   18.3998 C.2     1  UNL1        0.2731
     15 O         -12.4894    1.3184   17.7943 O.2     1  UNL1       -0.2677
     16 C         -15.1183    2.1293   18.9907 C.3     1  UNL1        0.1111
     17 C         -16.4328    2.5346   19.5889 C.3     1  UNL1        0.0940
     18 C         -18.6471    1.9040   20.7926 C.3     1  UNL1        0.1046
     19 C         -18.8516    1.8262   22.2765 C.3     1  UNL1        0.1595
     20 C         -16.9580    3.2451   23.3494 C.3     1  UNL1        0.1742
     21 O         -17.6767    1.9367   23.2024 O.3     1  UNL1       -0.3496
     22 C          -9.9022   -6.7300   18.9399 C.3     1  UNL1        0.4188
     23 F          -8.8643   -7.7819   19.1974 F       1  UNL1       -0.1659
     24 F         -10.7174   -7.7236   18.1665 F       1  UNL1       -0.1659
     25 F          -9.0869   -5.7364   19.7132 F       1  UNL1       -0.1659
     26 N         -14.6931   -5.4120   17.4201 N.pl3   1  UNL1        0.0815
     27 O         -15.0558   -5.1842   15.9825 O.2     1  UNL1        0.0415
     28 O         -15.6881   -6.0328   18.3553 O.co2   1  UNL1       -0.5760
@<TRIPOS>UNITY_ATOM_ATTR
26 1
charge 1
28 1
charge -1
@<TRIPOS>BOND
     1    20    21    1
     2    21    19    1
     3    19    18    1
     4    18    10    1
     5    10    11    1
     6    11    12    1
     7    12    13    1
     8    13    14   am
     9    14    15    2
    10    14     1    1
    11     1     2   ar
    12     2     3   ar
    13     3     4   ar
    14     4     5   ar
    15     5    22    1
    16    22    23    1
    17    22    24    1
    18    22    25    1
    19     5     6   ar
    20     6     7   ar
    21     7    26    1
    22    26    27    2
    23    26    28    1
    24     7     8   ar
    25     8     9   ar
    26    13    16    1
    27    16    17    1
    28    17    10    1
    29     9     1   ar
    30     8     3   ar
@<TRIPOS>MOLECULE
*****
 28 30 0 0 0
SMALL
GASTEIGER

@<TRIPOS>ATOM
      1 C          -1.0480    3.1751   20.3323 C.ar    1  UNL1        0.1644
      2 N          -2.5030    3.2406   19.9736 N.ar    1  UNL1       -0.2335
      3 C          -3.2806    3.4812   21.2335 C.ar    1  UNL1        0.0939
      4 C          -4.7501    3.6353   21.4920 C.ar    1  UNL1        0.0239
      5 C          -5.2452    3.8726   22.8879 C.ar    1  UNL1        0.0790
      6 C          -4.2709    3.9559   24.0252 C.ar    1  UNL1        0.0798
      7 C          -2.8014    3.8019   23.7668 C.ar    1  UNL1        0.2972
      8 C          -2.3063    3.5645   22.3709 C.ar    1  UNL1        0.1179
      9 S          -0.9264    3.3754   21.8139 S.2     1  UNL1       -0.0559
     10 N           2.3997   -0.9086   19.5038 N.3     1  UNL1       -0.2676
     11 C           1.2654   -0.6826   20.4589 C.3     1  UNL1        0.0940
     12 C           0.4943    0.6034   20.4167 C.3     1  UNL1        0.1111
     13 N           0.8574    1.6633   19.4193 N.am    1  UNL1       -0.2716
     14 C           0.0863    2.9492   19.3772 C.2     1  UNL1        0.2731
     15 O           0.4494    4.0091   18.3799 O.2     1  UNL1       -0.2677
     16 C           1.9918    1.4372   18.4642 C.3     1  UNL1        0.1111
     17 C           2.7628    0.1513   18.5064 C.3     1  UNL1        0.0940
     18 C           3.1708   -2.1945   19.5459 C.3     1  UNL1        0.1046
     19 C           4.5055   -2.2911   18.8683 C.3     1  UNL1        0.1595
     20 C           4.3790   -4.8855   18.9274 C.3     1  UNL1        0.1742
     21 O           5.0329   -3.6276   18.4374 O.3     1  UNL1       -0.3496
     22 C          -6.7148    4.0267   23.1465 C.3     1  UNL1        0.4188
     23 F          -8.1843    4.1807   23.4049 F       1  UNL1       -0.1659
     24 F          -6.4587    3.9902   24.6239 F       1  UNL1       -0.1659
     25 F          -6.9709    4.0631   21.6689 F       1  UNL1       -0.1659
     26 N          -1.8270    3.8852   24.9042 N.pl3   1  UNL1        0.0815
     27 O          -1.1050    5.1707   25.1806 O.2     1  UNL1        0.0415
     28 O          -1.5747    2.6831   25.7651 O.co2   1  UNL1       -0.5760
@<TRIPOS>UNITY_ATOM_ATTR
26 1
charge 1
28 1
charge -1
@<TRIPOS>BOND
     1    20    21    1
     2    21    19    1
     3    19    18    1
     4    18    10    1
     5    10    11    1
     6    11    12    1
     7    12    13    1
     8    13    14   am
     9    14    15    2
    10    14     1    1
    11     1     2   ar
    12     2     3   ar
    13     3     4   ar
    14     4     5   ar
    15     5    22    1
    16    22    23    1
    17    22    24    1
    18    22    25    1
    19     5     6   ar
    20     6     7   ar
    21     7    26    1
    22    26    27    2
    23    26    28    1
    24     7     8   ar
    25     8     9   ar
    26    13    16    1
    27    16    17    1
    28    17    10    1
    29     9     1   ar
    30     8     3   ar
