@<TRIPOS>MOLECULE
*****
 45 49 0 0 0
SMALL
GASTEIGER

@<TRIPOS>ATOM
      1 C           7.7591   -2.0708   26.4052 C.3     1  UNL1        0.0473
      2 C           8.2354   -2.5739   25.0747 C.3     1  UNL1        0.0038
      3 C           8.0733   -1.7237   23.8496 C.3     1  UNL1        0.0005
      4 C           7.6766   -0.2833   23.9834 C.3     1  UNL1        0.0047
      5 C           7.6544    0.6040   22.7742 C.3     1  UNL1        0.0261
      6 C           4.6366    1.7417   20.4616 C.ar    1  UNL1        0.1342
      7 C           3.7959    2.5004   21.4454 C.ar    1  UNL1        0.0365
      8 C           4.2414    2.6268   22.8721 C.ar    1  UNL1        0.0028
      9 C           5.5276    1.9947   23.3151 C.ar    1  UNL1       -0.0044
     10 C           6.3682    1.2361   22.3313 C.ar    1  UNL1       -0.0232
     11 C           5.9228    1.1096   20.9045 C.ar    1  UNL1        0.0082
     12 C           6.7635    0.3511   19.9208 C.3     1  UNL1        0.0350
     13 C           6.6712   -1.1445   19.8518 C.3     1  UNL1        0.0465
     14 C           7.3943   -1.8914   18.7704 C.2     1  UNL1        0.0507
     15 O           8.7259   -2.5206   19.0550 O.co2   1  UNL1       -0.5492
     16 O           6.7858   -2.0091   17.4044 O.co2   1  UNL1       -0.5492
     17 O           4.1911    1.6153   19.0348 O.3     1  UNL1       -0.4758
     18 C           2.9858    2.3689   18.5559 C.3     1  UNL1        0.2058
     19 C           1.6303    1.7292   18.6115 C.3     1  UNL1        0.0532
     20 C           0.5123    2.4037   19.3498 C.3     1  UNL1        0.0455
     21 O          -0.9820    2.4590   21.4745 O.co2   1  UNL1       -0.5492
     22 C          -0.1960    1.6838   20.4589 C.2     1  UNL1        0.0505
     23 O          -0.1183    0.1887   20.5524 O.co2   1  UNL1       -0.5492
     24 C           6.4382   -2.5270   26.9503 C.3     1  UNL1        0.2054
     25 O           5.3785   -1.5206   27.2884 O.3     1  UNL1       -0.4755
     26 C           4.4339   -1.0407   26.2266 C.ar    1  UNL1        0.1386
     27 C           3.4397    0.0381   26.5392 C.ar    1  UNL1        0.0369
     28 C           2.4951    0.5181   25.4775 C.ar    1  UNL1        0.0035
     29 C           2.5447   -0.0807   24.1031 C.ar    1  UNL1        0.0002
     30 C           3.5389   -1.1595   23.7905 C.ar    1  UNL1        0.0031
     31 C           4.4835   -1.6395   24.8523 C.ar    1  UNL1        0.0369
     32 C           3.5885   -1.7584   22.4161 C.ar    1  UNL1        0.0033
     33 C           2.8520   -1.1033   21.2855 C.ar    1  UNL1        0.0033
     34 C           2.9016   -1.7022   19.9111 C.ar    1  UNL1        0.0402
     35 C           3.6877   -2.9562   19.6674 C.ar    1  UNL1        0.1764
     36 C           4.4243   -3.6114   20.7980 C.ar    1  UNL1        0.1764
     37 C           4.3747   -3.0125   22.1723 C.ar    1  UNL1        0.0402
     38 O           5.1108   -4.8312   20.2589 O.3     1  UNL1       -0.4346
     39 C           4.7985   -4.9300   18.7951 C.3     1  UNL1        0.4294
     40 O           3.9190   -3.7711   18.4295 O.3     1  UNL1       -0.4346
     41 C           1.5009    1.5970   25.7900 C.ar    1  UNL1        0.0071
     42 C           0.1149    1.3905   26.3251 C.ar    1  UNL1        0.0075
     43 C          -0.5244    2.7376   26.4881 C.ar    1  UNL1        0.0355
     44 S           0.4664    3.7767   26.0537 S.2     1  UNL1       -0.0859
     45 C           1.7182    3.0717   25.6222 C.ar    1  UNL1        0.0354
@<TRIPOS>UNITY_ATOM_ATTR
15 1
charge -1
21 1
charge -1
@<TRIPOS>BOND
     1    21    22   ar
     2    22    23   ar
     3    22    20    1
     4    20    19    1
     5    19    18    1
     6    18    17    1
     7    17     6    1
     8     6     7   ar
     9     7     8   ar
    10     8     9   ar
    11     9    10   ar
    12    10     5    1
    13     5     4    1
    14     4     3    1
    15     3     2    1
    16     2     1    1
    17     1    24    1
    18    24    25    1
    19    25    26    1
    20    26    27   ar
    21    27    28   ar
    22    28    41    1
    23    41    42   ar
    24    42    43   ar
    25    43    44   ar
    26    44    45   ar
    27    28    29   ar
    28    29    30   ar
    29    30    32    1
    30    32    33   ar
    31    33    34   ar
    32    34    35   ar
    33    35    36   ar
    34    36    37   ar
    35    36    38    1
    36    38    39    1
    37    39    40    1
    38    30    31   ar
    39    10    11   ar
    40    11    12    1
    41    12    13    1
    42    13    14    1
    43    14    15   ar
    44    14    16   ar
    45    11     6   ar
    46    31    26   ar
    47    45    41   ar
    48    37    32   ar
    49    40    35    1
@<TRIPOS>MOLECULE
*****
 45 49 0 0 0
SMALL
GASTEIGER

@<TRIPOS>ATOM
      1 C           0.8530    0.1225   28.4066 C.3     1  UNL1        0.0473
      2 C           0.7274    1.4544   27.7282 C.3     1  UNL1        0.0038
      3 C          -0.3938    1.7017   26.7630 C.3     1  UNL1        0.0005
      4 C          -0.1201    1.7369   25.2886 C.3     1  UNL1        0.0047
      5 C           0.9809    0.8985   24.7099 C.3     1  UNL1        0.0261
      6 C           3.9027    1.7475   22.1620 C.ar    1  UNL1        0.1342
      7 C           4.5876    2.8720   22.8807 C.ar    1  UNL1        0.0365
      8 C           4.0703    3.3386   24.2091 C.ar    1  UNL1        0.0028
      9 C           2.8681    2.6808   24.8188 C.ar    1  UNL1       -0.0044
     10 C           2.1831    1.5563   24.1002 C.ar    1  UNL1       -0.0232
     11 C           2.7004    1.0897   22.7717 C.ar    1  UNL1        0.0082
     12 C           2.0154   -0.0348   22.0531 C.3     1  UNL1        0.0350
     13 C           1.1402    0.2543   20.8697 C.3     1  UNL1        0.0465
     14 C           1.5762   -0.1597   19.4955 C.2     1  UNL1        0.0507
     15 O           2.6738   -1.1685   19.3290 O.co2   1  UNL1       -0.5492
     16 O           0.9147    0.4350   18.2878 O.co2   1  UNL1       -0.5492
     17 O           4.4200    1.2809   20.8336 O.3     1  UNL1       -0.4758
     18 C           5.1709    2.2288   19.9462 C.3     1  UNL1        0.2058
     19 C           5.7922    1.7327   18.6742 C.3     1  UNL1        0.0532
     20 C           4.9240    1.1961   17.5750 C.3     1  UNL1        0.0455
     21 O           4.0781   -0.9228   16.3322 O.co2   1  UNL1       -0.5492
     22 C           5.1822   -0.1713   17.0151 C.2     1  UNL1        0.0505
     23 O           6.5444   -0.7872   17.1382 O.co2   1  UNL1       -0.5492
     24 C           2.2095   -0.4669   28.6565 C.3     1  UNL1        0.2054
     25 O           2.8233   -1.3910   27.6469 O.3     1  UNL1       -0.4755
     26 C           3.8814   -0.8845   26.7122 C.ar    1  UNL1        0.1386
     27 C           4.7748    0.2449   27.1320 C.ar    1  UNL1        0.0369
     28 C           5.8330    0.7515   26.1973 C.ar    1  UNL1        0.0035
     29 C           5.9977    0.1287   24.8427 C.ar    1  UNL1        0.0002
     30 C           5.1043   -1.0007   24.4228 C.ar    1  UNL1        0.0031
     31 C           4.0462   -1.5073   25.3576 C.ar    1  UNL1        0.0369
     32 C           5.2690   -1.6236   23.0681 C.ar    1  UNL1        0.0033
     33 C           6.2491   -1.0454   22.0910 C.ar    1  UNL1        0.0033
     34 C           6.4138   -1.6682   20.7364 C.ar    1  UNL1        0.0402
     35 C           5.5984   -2.8693   20.3590 C.ar    1  UNL1        0.1764
     36 C           4.6182   -3.4475   21.3362 C.ar    1  UNL1        0.1764
     37 C           4.4535   -2.8247   22.6908 C.ar    1  UNL1        0.0402
     38 O           3.9579   -4.6277   20.6871 O.3     1  UNL1       -0.4346
     39 C           4.5301   -4.7788   19.3088 C.3     1  UNL1        0.4294
     40 O           5.5439   -3.6921   19.1060 O.3     1  UNL1       -0.4346
     41 C           6.7265    1.8809   26.6171 C.ar    1  UNL1        0.0071
     42 C           7.4092    2.8525   25.7006 C.ar    1  UNL1        0.0075
     43 C           8.1987    3.8090   26.5442 C.ar    1  UNL1        0.0355
     44 S           8.0039    3.4287   27.9821 S.2     1  UNL1       -0.0859
     45 C           7.0940    2.2370   28.0271 C.ar    1  UNL1        0.0354
@<TRIPOS>UNITY_ATOM_ATTR
15 1
charge -1
21 1
charge -1
@<TRIPOS>BOND
     1    21    22   ar
     2    22    23   ar
     3    22    20    1
     4    20    19    1
     5    19    18    1
     6    18    17    1
     7    17     6    1
     8     6     7   ar
     9     7     8   ar
    10     8     9   ar
    11     9    10   ar
    12    10     5    1
    13     5     4    1
    14     4     3    1
    15     3     2    1
    16     2     1    1
    17     1    24    1
    18    24    25    1
    19    25    26    1
    20    26    27   ar
    21    27    28   ar
    22    28    41    1
    23    41    42   ar
    24    42    43   ar
    25    43    44   ar
    26    44    45   ar
    27    28    29   ar
    28    29    30   ar
    29    30    32    1
    30    32    33   ar
    31    33    34   ar
    32    34    35   ar
    33    35    36   ar
    34    36    37   ar
    35    36    38    1
    36    38    39    1
    37    39    40    1
    38    30    31   ar
    39    10    11   ar
    40    11    12    1
    41    12    13    1
    42    13    14    1
    43    14    15   ar
    44    14    16   ar
    45    11     6   ar
    46    31    26   ar
    47    45    41   ar
    48    37    32   ar
    49    40    35    1
@<TRIPOS>MOLECULE
*****
 45 49 0 0 0
SMALL
GASTEIGER

@<TRIPOS>ATOM
      1 C           0.7920    2.4412   20.2715 C.3     1  UNL1        0.0473
      2 C          -0.0176    1.1883   20.4291 C.3     1  UNL1        0.0038
      3 C           0.6673   -0.1450   20.4863 C.3     1  UNL1        0.0005
      4 C           2.1622   -0.2250   20.3923 C.3     1  UNL1        0.0047
      5 C           2.8701   -1.4948   20.7616 C.3     1  UNL1        0.0261
      6 C           5.1053   -2.9157   23.7170 C.ar    1  UNL1        0.1342
      7 C           4.9039   -1.8561   24.7595 C.ar    1  UNL1        0.0365
      8 C           4.0244   -0.6760   24.4693 C.ar    1  UNL1        0.0028
      9 C           3.3465   -0.5556   23.1367 C.ar    1  UNL1       -0.0044
     10 C           3.5480   -1.6152   22.0943 C.ar    1  UNL1       -0.0232
     11 C           4.4274   -2.7953   22.3844 C.ar    1  UNL1        0.0082
     12 C           4.6288   -3.8548   21.3419 C.3     1  UNL1        0.0350
     13 C           5.6400   -3.6525   20.2526 C.3     1  UNL1        0.0465
     14 C           5.2587   -3.8911   18.8216 C.2     1  UNL1        0.0507
     15 O           4.7599   -5.2392   18.3931 O.co2   1  UNL1       -0.5492
     16 O           5.3761   -2.7814   17.8192 O.co2   1  UNL1       -0.5492
     17 O           5.9847   -4.0957   24.0072 O.3     1  UNL1       -0.4758
     18 C           6.7517   -4.1609   25.2946 C.3     1  UNL1        0.2058
     19 C           7.0728   -5.4907   25.9099 C.3     1  UNL1        0.0532
     20 C           6.5188   -5.8470   27.2575 C.3     1  UNL1        0.0455
     21 O           6.6279   -5.6707   29.8473 O.co2   1  UNL1       -0.5492
     22 C           7.2440   -5.4270   28.5015 C.2     1  UNL1        0.0505
     23 O           8.5853   -4.7632   28.3998 O.co2   1  UNL1       -0.5492
     24 C           1.2040    3.2251   21.4822 C.3     1  UNL1        0.2054
     25 O           1.7369    2.5139   22.6906 O.3     1  UNL1       -0.4755
     26 C           0.9025    2.4182   23.9334 C.ar    1  UNL1        0.1386
     27 C           1.4754    1.8034   25.1759 C.ar    1  UNL1        0.0369
     28 C           0.6410    1.7078   26.4187 C.ar    1  UNL1        0.0035
     29 C          -0.7663    2.2270   26.4190 C.ar    1  UNL1        0.0002
     30 C          -1.3392    2.8417   25.1765 C.ar    1  UNL1        0.0031
     31 C          -0.5048    2.9374   23.9337 C.ar    1  UNL1        0.0369
     32 C          -2.7466    3.3609   25.1768 C.ar    1  UNL1        0.0033
     33 C          -3.3457    3.9030   26.4405 C.ar    1  UNL1        0.0033
     34 C          -4.7530    4.4222   26.4408 C.ar    1  UNL1        0.0402
     35 C          -5.5611    4.3992   25.1773 C.ar    1  UNL1        0.1764
     36 C          -4.9619    3.8571   23.9135 C.ar    1  UNL1        0.1764
     37 C          -3.5547    3.3379   23.9132 C.ar    1  UNL1        0.0402
     38 O          -5.9932    3.9620   22.8294 O.3     1  UNL1       -0.4346
     39 C          -7.2298    4.5690   23.4231 C.3     1  UNL1        0.4294
     40 O          -6.9627    4.8392   24.8742 O.3     1  UNL1       -0.4346
     41 C           1.2138    1.0930   27.6613 C.ar    1  UNL1        0.0071
     42 C           2.3683    0.1372   27.7206 C.ar    1  UNL1        0.0075
     43 C           2.6007   -0.2204   29.1586 C.ar    1  UNL1        0.0355
     44 S           1.5897    0.5144   29.9882 S.2     1  UNL1       -0.0859
     45 C           0.7326    1.3261   29.0628 C.ar    1  UNL1        0.0354
@<TRIPOS>UNITY_ATOM_ATTR
15 1
charge -1
21 1
charge -1
@<TRIPOS>BOND
     1    21    22   ar
     2    22    23   ar
     3    22    20    1
     4    20    19    1
     5    19    18    1
     6    18    17    1
     7    17     6    1
     8     6     7   ar
     9     7     8   ar
    10     8     9   ar
    11     9    10   ar
    12    10     5    1
    13     5     4    1
    14     4     3    1
    15     3     2    1
    16     2     1    1
    17     1    24    1
    18    24    25    1
    19    25    26    1
    20    26    27   ar
    21    27    28   ar
    22    28    41    1
    23    41    42   ar
    24    42    43   ar
    25    43    44   ar
    26    44    45   ar
    27    28    29   ar
    28    29    30   ar
    29    30    32    1
    30    32    33   ar
    31    33    34   ar
    32    34    35   ar
    33    35    36   ar
    34    36    37   ar
    35    36    38    1
    36    38    39    1
    37    39    40    1
    38    30    31   ar
    39    10    11   ar
    40    11    12    1
    41    12    13    1
    42    13    14    1
    43    14    15   ar
    44    14    16   ar
    45    11     6   ar
    46    31    26   ar
    47    45    41   ar
    48    37    32   ar
    49    40    35    1
@<TRIPOS>MOLECULE
*****
 45 49 0 0 0
SMALL
GASTEIGER

@<TRIPOS>ATOM
      1 C           1.8651    2.7631   20.8199 C.3     1  UNL1        0.0473
      2 C           1.7042    2.0995   19.4843 C.3     1  UNL1        0.0038
      3 C           0.6968    1.0021   19.3086 C.3     1  UNL1        0.0005
      4 C           0.9485   -0.3500   19.9073 C.3     1  UNL1        0.0047
      5 C           2.2718   -1.0261   19.7030 C.3     1  UNL1        0.0261
      6 C           4.7446   -3.1580   21.9591 C.ar    1  UNL1        0.1342
      7 C           4.6651   -2.4066   23.2549 C.ar    1  UNL1        0.0365
      8 C           3.7879   -1.1950   23.3667 C.ar    1  UNL1        0.0028
      9 C           2.9901   -0.7349   22.1828 C.ar    1  UNL1       -0.0044
     10 C           3.0696   -1.4863   20.8870 C.ar    1  UNL1       -0.0232
     11 C           3.9469   -2.6979   20.7751 C.ar    1  UNL1        0.0082
     12 C           4.0263   -3.4492   19.4793 C.3     1  UNL1        0.0350
     13 C           5.2851   -3.4082   18.6646 C.3     1  UNL1        0.0465
     14 C           5.5538   -2.2443   17.7575 C.2     1  UNL1        0.0507
     15 O           6.9661   -1.8339   17.4623 O.co2   1  UNL1       -0.5492
     16 O           4.4103   -1.4906   17.1456 O.co2   1  UNL1       -0.5492
     17 O           5.6219   -4.3696   21.8473 O.3     1  UNL1       -0.4758
     18 C           7.0701   -4.2164   21.4877 C.3     1  UNL1        0.2058
     19 C           7.8083   -2.9662   21.8648 C.3     1  UNL1        0.0532
     20 C           7.8533   -1.8063   20.9147 C.3     1  UNL1        0.0455
     21 O           7.2838    0.1077   22.5767 O.co2   1  UNL1       -0.5492
     22 C           7.1100   -0.5438   21.2368 C.2     1  UNL1        0.0505
     23 O           6.1930    0.0671   20.2190 O.co2   1  UNL1       -0.5492
     24 C           0.9559    2.3947   21.9547 C.3     1  UNL1        0.2054
     25 O          -0.2413    3.2442   22.2627 O.3     1  UNL1       -0.4755
     26 C          -0.8402    3.2260   23.6378 C.ar    1  UNL1        0.1386
     27 C          -2.0654    4.0394   23.9331 C.ar    1  UNL1        0.0369
     28 C          -2.6643    4.0212   25.3082 C.ar    1  UNL1        0.0035
     29 C          -2.0380    3.1896   26.3881 C.ar    1  UNL1        0.0002
     30 C          -0.8128    2.3762   26.0928 C.ar    1  UNL1        0.0031
     31 C          -0.2139    2.3944   24.7177 C.ar    1  UNL1        0.0369
     32 C          -0.1865    1.5445   27.1727 C.ar    1  UNL1        0.0033
     33 C          -1.0492    0.7105   28.0725 C.ar    1  UNL1        0.0033
     34 C          -0.4229   -0.1212   29.1524 C.ar    1  UNL1        0.0402
     35 C           1.0662   -0.1187   29.3324 C.ar    1  UNL1        0.1764
     36 C           1.9291    0.7154   28.4325 C.ar    1  UNL1        0.1764
     37 C           1.3028    1.5471   27.3527 C.ar    1  UNL1        0.0402
     38 O           3.3573    0.5179   28.8462 O.3     1  UNL1       -0.4346
     39 C           3.3771   -0.4383   30.0017 C.3     1  UNL1        0.4294
     40 O           1.9612   -0.8317   30.3023 O.3     1  UNL1       -0.4346
     41 C          -3.8896    4.8347   25.6035 C.ar    1  UNL1        0.0071
     42 C          -4.4909    5.8791   24.7105 C.ar    1  UNL1        0.0075
     43 C          -5.7015    6.4363   25.3988 C.ar    1  UNL1        0.0355
     44 S          -5.8485    5.7362   26.7173 S.2     1  UNL1       -0.0859
     45 C          -4.7286    4.7464   26.8438 C.ar    1  UNL1        0.0354
@<TRIPOS>UNITY_ATOM_ATTR
15 1
charge -1
21 1
charge -1
@<TRIPOS>BOND
     1    21    22   ar
     2    22    23   ar
     3    22    20    1
     4    20    19    1
     5    19    18    1
     6    18    17    1
     7    17     6    1
     8     6     7   ar
     9     7     8   ar
    10     8     9   ar
    11     9    10   ar
    12    10     5    1
    13     5     4    1
    14     4     3    1
    15     3     2    1
    16     2     1    1
    17     1    24    1
    18    24    25    1
    19    25    26    1
    20    26    27   ar
    21    27    28   ar
    22    28    41    1
    23    41    42   ar
    24    42    43   ar
    25    43    44   ar
    26    44    45   ar
    27    28    29   ar
    28    29    30   ar
    29    30    32    1
    30    32    33   ar
    31    33    34   ar
    32    34    35   ar
    33    35    36   ar
    34    36    37   ar
    35    36    38    1
    36    38    39    1
    37    39    40    1
    38    30    31   ar
    39    10    11   ar
    40    11    12    1
    41    12    13    1
    42    13    14    1
    43    14    15   ar
    44    14    16   ar
    45    11     6   ar
    46    31    26   ar
    47    45    41   ar
    48    37    32   ar
    49    40    35    1
@<TRIPOS>MOLECULE
*****
 45 49 0 0 0
SMALL
GASTEIGER

@<TRIPOS>ATOM
      1 C           6.5370   -3.0946   19.1760 C.3     1  UNL1        0.0473
      2 C           6.0803   -2.1920   18.0685 C.3     1  UNL1        0.0038
      3 C           4.6369   -1.7953   17.9712 C.3     1  UNL1        0.0005
      4 C           4.2097   -0.4149   18.3736 C.3     1  UNL1        0.0047
      5 C           5.2376    0.6013   18.7745 C.3     1  UNL1        0.0261
      6 C           4.9980    2.1236   22.4317 C.ar    1  UNL1        0.1342
      7 C           6.0787    1.3532   23.1308 C.ar    1  UNL1        0.0365
      8 C           6.8789    0.3321   22.3778 C.ar    1  UNL1        0.0028
      9 C           6.5985    0.0815   20.9257 C.ar    1  UNL1       -0.0044
     10 C           5.5179    0.8519   20.2266 C.ar    1  UNL1       -0.0232
     11 C           4.7176    1.8730   20.9796 C.ar    1  UNL1        0.0082
     12 C           3.6371    2.6434   20.2805 C.3     1  UNL1        0.0350
     13 C           3.9150    4.0235   19.7628 C.3     1  UNL1        0.0465
     14 C           4.9763    4.2354   18.7242 C.2     1  UNL1        0.0507
     15 O           6.4173    4.3227   19.1314 O.co2   1  UNL1       -0.5492
     16 O           4.5966    4.3598   17.2784 O.co2   1  UNL1       -0.5492
     17 O           4.1978    3.1447   23.1847 O.3     1  UNL1       -0.4758
     18 C           4.2617    3.1919   24.6826 C.3     1  UNL1        0.2058
     19 C           3.2833    2.4017   25.5003 C.3     1  UNL1        0.0532
     20 C           1.8717    2.8849   25.6541 C.3     1  UNL1        0.0455
     21 O           0.9541    2.1395   27.9676 O.co2   1  UNL1       -0.5492
     22 C           0.8926    2.0934   26.4695 C.2     1  UNL1        0.0505
     23 O          -0.1478    1.2558   25.7870 O.co2   1  UNL1       -0.5492
     24 C           5.5792   -4.0720   19.7902 C.3     1  UNL1        0.2054
     25 O           5.5395   -4.2484   21.2792 O.3     1  UNL1       -0.4755
     26 C           4.9180   -3.1916   22.1434 C.ar    1  UNL1        0.1386
     27 C           5.3818   -3.0114   23.5585 C.ar    1  UNL1        0.0369
     28 C           4.7603   -1.9545   24.4226 C.ar    1  UNL1        0.0035
     29 C           3.6750   -1.0778   23.8717 C.ar    1  UNL1        0.0002
     30 C           3.2112   -1.2580   22.4567 C.ar    1  UNL1        0.0031
     31 C           3.8327   -2.3148   21.5925 C.ar    1  UNL1        0.0369
     32 C           2.1258   -0.3812   21.9057 C.ar    1  UNL1        0.0033
     33 C           1.6124   -0.6077   20.5148 C.ar    1  UNL1        0.0033
     34 C           0.5271    0.2689   19.9638 C.ar    1  UNL1        0.0402
     35 C          -0.0447    1.3722   20.8040 C.ar    1  UNL1        0.1764
     36 C           0.4687    1.5988   22.1950 C.ar    1  UNL1        0.1764
     37 C           1.5540    0.7221   22.7460 C.ar    1  UNL1        0.0402
     38 O          -0.2825    2.7559   22.7837 O.3     1  UNL1       -0.4346
     39 C          -1.2602    3.2446   21.7565 C.3     1  UNL1        0.4294
     40 O          -1.1133    2.3894   20.5329 O.3     1  UNL1       -0.4346
     41 C           5.2241   -1.7743   25.8378 C.ar    1  UNL1        0.0071
     42 C           6.3583   -2.5046   26.4937 C.ar    1  UNL1        0.0075
     43 C           6.4702   -2.0138   27.9066 C.ar    1  UNL1        0.0355
     44 S           5.4052   -0.9800   28.1240 S.2     1  UNL1       -0.0859
     45 C           4.6350   -0.8320   26.8454 C.ar    1  UNL1        0.0354
@<TRIPOS>UNITY_ATOM_ATTR
15 1
charge -1
21 1
charge -1
@<TRIPOS>BOND
     1    21    22   ar
     2    22    23   ar
     3    22    20    1
     4    20    19    1
     5    19    18    1
     6    18    17    1
     7    17     6    1
     8     6     7   ar
     9     7     8   ar
    10     8     9   ar
    11     9    10   ar
    12    10     5    1
    13     5     4    1
    14     4     3    1
    15     3     2    1
    16     2     1    1
    17     1    24    1
    18    24    25    1
    19    25    26    1
    20    26    27   ar
    21    27    28   ar
    22    28    41    1
    23    41    42   ar
    24    42    43   ar
    25    43    44   ar
    26    44    45   ar
    27    28    29   ar
    28    29    30   ar
    29    30    32    1
    30    32    33   ar
    31    33    34   ar
    32    34    35   ar
    33    35    36   ar
    34    36    37   ar
    35    36    38    1
    36    38    39    1
    37    39    40    1
    38    30    31   ar
    39    10    11   ar
    40    11    12    1
    41    12    13    1
    42    13    14    1
    43    14    15   ar
    44    14    16   ar
    45    11     6   ar
    46    31    26   ar
    47    45    41   ar
    48    37    32   ar
    49    40    35    1
@<TRIPOS>MOLECULE
*****
 45 49 0 0 0
SMALL
GASTEIGER

@<TRIPOS>ATOM
      1 C           1.6327    3.1312   19.0171 C.3     1  UNL1        0.0473
      2 C           2.6416    2.1983   18.4158 C.3     1  UNL1        0.0038
      3 C           2.3013    0.7506   18.2199 C.3     1  UNL1        0.0005
      4 C           3.3519   -0.2094   17.7461 C.3     1  UNL1        0.0047
      5 C           4.7854    0.2256   17.6687 C.3     1  UNL1        0.0261
      6 C           7.1833   -0.4443   20.7591 C.ar    1  UNL1        0.1342
      7 C           7.8685   -1.7039   20.3184 C.ar    1  UNL1        0.0365
      8 C           7.5260   -2.3202   18.9944 C.ar    1  UNL1        0.0028
      9 C           6.4982   -1.6770   18.1112 C.ar    1  UNL1       -0.0044
     10 C           5.8131   -0.4175   18.5519 C.ar    1  UNL1       -0.0232
     11 C           6.1556    0.1988   19.8759 C.ar    1  UNL1        0.0082
     12 C           5.4704    1.4583   20.3165 C.3     1  UNL1        0.0350
     13 C           6.1258    2.7880   20.0880 C.3     1  UNL1        0.0465
     14 C           5.8325    3.9366   21.0071 C.2     1  UNL1        0.0507
     15 O           6.8789    4.4120   21.9709 O.co2   1  UNL1       -0.5492
     16 O           4.4928    4.6098   20.9622 O.co2   1  UNL1       -0.5492
     17 O           7.5259    0.1720   22.0831 O.3     1  UNL1       -0.4758
     18 C           7.0318   -0.4556   23.3527 C.3     1  UNL1        0.2058
     19 C           6.2592    0.3641   24.3433 C.3     1  UNL1        0.0532
     20 C           5.6765    1.6839   23.9325 C.3     1  UNL1        0.0455
     21 O           4.2471    3.7512   24.5905 O.co2   1  UNL1       -0.5492
     22 C           5.1810    2.6420   24.9748 C.2     1  UNL1        0.0505
     23 O           5.6194    2.4911   26.4013 O.co2   1  UNL1       -0.5492
     24 C           0.5581    2.5954   19.9162 C.3     1  UNL1        0.2054
     25 O           0.6276    2.8379   21.3948 O.3     1  UNL1       -0.4755
     26 C           1.2868    1.8307   22.2898 C.ar    1  UNL1        0.1386
     27 C           1.2433    2.0082   23.7787 C.ar    1  UNL1        0.0369
     28 C           1.9025    1.0010   24.6737 C.ar    1  UNL1        0.0035
     29 C           2.6052   -0.1837   24.0799 C.ar    1  UNL1        0.0002
     30 C           2.6487   -0.3612   22.5910 C.ar    1  UNL1        0.0031
     31 C           1.9895    0.6459   21.6960 C.ar    1  UNL1        0.0369
     32 C           3.3515   -1.5460   21.9972 C.ar    1  UNL1        0.0033
     33 C           4.3261   -2.3316   22.8234 C.ar    1  UNL1        0.0033
     34 C           5.0288   -3.5163   22.2296 C.ar    1  UNL1        0.0402
     35 C           4.7568   -3.9155   20.8095 C.ar    1  UNL1        0.1764
     36 C           3.7821   -3.1299   19.9832 C.ar    1  UNL1        0.1764
     37 C           3.0794   -1.9451   20.5770 C.ar    1  UNL1        0.0402
     38 O           3.7173   -3.7567   18.6220 O.3     1  UNL1       -0.4346
     39 C           4.6520   -4.9298   18.6071 C.3     1  UNL1        0.4294
     40 O           5.2945   -5.0279   19.9590 O.3     1  UNL1       -0.4346
     41 C           1.8591    1.1785   26.1626 C.ar    1  UNL1        0.0071
     42 C           2.7954    0.5519   27.1529 C.ar    1  UNL1        0.0075
     43 C           2.3866    0.9999   28.5248 C.ar    1  UNL1        0.0355
     44 S           1.1976    1.9034   28.3824 S.2     1  UNL1       -0.0859
     45 C           0.8716    2.0137   26.9224 C.ar    1  UNL1        0.0354
@<TRIPOS>UNITY_ATOM_ATTR
15 1
charge -1
21 1
charge -1
@<TRIPOS>BOND
     1    21    22   ar
     2    22    23   ar
     3    22    20    1
     4    20    19    1
     5    19    18    1
     6    18    17    1
     7    17     6    1
     8     6     7   ar
     9     7     8   ar
    10     8     9   ar
    11     9    10   ar
    12    10     5    1
    13     5     4    1
    14     4     3    1
    15     3     2    1
    16     2     1    1
    17     1    24    1
    18    24    25    1
    19    25    26    1
    20    26    27   ar
    21    27    28   ar
    22    28    41    1
    23    41    42   ar
    24    42    43   ar
    25    43    44   ar
    26    44    45   ar
    27    28    29   ar
    28    29    30   ar
    29    30    32    1
    30    32    33   ar
    31    33    34   ar
    32    34    35   ar
    33    35    36   ar
    34    36    37   ar
    35    36    38    1
    36    38    39    1
    37    39    40    1
    38    30    31   ar
    39    10    11   ar
    40    11    12    1
    41    12    13    1
    42    13    14    1
    43    14    15   ar
    44    14    16   ar
    45    11     6   ar
    46    31    26   ar
    47    45    41   ar
    48    37    32   ar
    49    40    35    1
@<TRIPOS>MOLECULE
*****
 45 49 0 0 0
SMALL
GASTEIGER

@<TRIPOS>ATOM
      1 C           2.9837    0.1457   22.3013 C.3     1  UNL1        0.0473
      2 C           3.1261   -0.9739   23.2892 C.3     1  UNL1        0.0038
      3 C           4.4668   -1.2792   23.8887 C.3     1  UNL1        0.0005
      4 C           5.0665   -2.6448   23.7287 C.3     1  UNL1        0.0047
      5 C           5.9044   -2.9597   22.5250 C.3     1  UNL1        0.0261
      6 C           4.8924   -2.7556   18.6930 C.ar    1  UNL1        0.1342
      7 C           3.9295   -3.9015   18.5928 C.ar    1  UNL1        0.0365
      8 C           3.6250   -4.7334   19.8032 C.ar    1  UNL1        0.0028
      9 C           4.2833   -4.4194   21.1140 C.ar    1  UNL1       -0.0044
     10 C           5.2461   -3.2736   21.2142 C.ar    1  UNL1       -0.0232
     11 C           5.5507   -2.4417   20.0038 C.ar    1  UNL1        0.0082
     12 C           6.5135   -1.2959   20.1041 C.3     1  UNL1        0.0350
     13 C           6.0099    0.0813   20.4199 C.3     1  UNL1        0.0465
     14 C           6.5189    0.8068   21.6301 C.2     1  UNL1        0.0507
     15 O           5.9943    2.1724   21.9617 O.co2   1  UNL1       -0.5492
     16 O           7.5524    0.1667   22.5088 O.co2   1  UNL1       -0.5492
     17 O           5.1969   -1.9237   17.4826 O.3     1  UNL1       -0.4758
     18 C           4.3493   -0.7286   17.1613 C.3     1  UNL1        0.2058
     19 C           3.0570   -0.5078   17.8901 C.3     1  UNL1        0.0532
     20 C           2.6541    0.8779   18.2995 C.3     1  UNL1        0.0455
     21 O           0.5662    0.2125   19.6952 O.co2   1  UNL1       -0.5492
     22 C           1.2469    1.1498   18.7422 C.2     1  UNL1        0.0505
     23 O           0.5206    2.3589   18.2320 O.co2   1  UNL1       -0.5492
     24 C           2.3663    1.4456   22.7247 C.3     1  UNL1        0.2054
     25 O           0.8750    1.5689   22.8283 O.3     1  UNL1       -0.4755
     26 C           0.2363    1.8524   24.1557 C.ar    1  UNL1        0.1386
     27 C           0.9098    1.4118   25.4214 C.ar    1  UNL1        0.0369
     28 C           0.2711    1.6952   26.7487 C.ar    1  UNL1        0.0035
     29 C          -1.0411    2.4192   26.8103 C.ar    1  UNL1        0.0002
     30 C          -1.7147    2.8598   25.5445 C.ar    1  UNL1        0.0031
     31 C          -1.0760    2.5764   24.2172 C.ar    1  UNL1        0.0369
     32 C          -3.0270    3.5839   25.6060 C.ar    1  UNL1        0.0033
     33 C          -3.3718    4.4104   26.8092 C.ar    1  UNL1        0.0033
     34 C          -4.6841    5.1344   26.8707 C.ar    1  UNL1        0.0402
     35 C          -5.6515    5.0319   25.7289 C.ar    1  UNL1        0.1764
     36 C          -5.3066    4.2054   24.5256 C.ar    1  UNL1        0.1764
     37 C          -3.9944    3.4813   24.4641 C.ar    1  UNL1        0.0402
     38 O          -6.4517    4.2912   23.5606 O.3     1  UNL1       -0.4346
     39 C          -7.5043    5.1708   24.1675 C.3     1  UNL1        0.4294
     40 O          -7.0097    5.6286   25.5076 O.3     1  UNL1       -0.4346
     41 C           0.9446    1.2546   28.0146 C.ar    1  UNL1        0.0071
     42 C           1.5335    2.1553   29.0596 C.ar    1  UNL1        0.0075
     43 C           2.1002    1.2933   30.1485 C.ar    1  UNL1        0.0355
     44 S           1.8616   -0.1402   29.7765 S.2     1  UNL1       -0.0859
     45 C           1.1474   -0.1641   28.4577 C.ar    1  UNL1        0.0354
@<TRIPOS>UNITY_ATOM_ATTR
15 1
charge -1
21 1
charge -1
@<TRIPOS>BOND
     1    21    22   ar
     2    22    23   ar
     3    22    20    1
     4    20    19    1
     5    19    18    1
     6    18    17    1
     7    17     6    1
     8     6     7   ar
     9     7     8   ar
    10     8     9   ar
    11     9    10   ar
    12    10     5    1
    13     5     4    1
    14     4     3    1
    15     3     2    1
    16     2     1    1
    17     1    24    1
    18    24    25    1
    19    25    26    1
    20    26    27   ar
    21    27    28   ar
    22    28    41    1
    23    41    42   ar
    24    42    43   ar
    25    43    44   ar
    26    44    45   ar
    27    28    29   ar
    28    29    30   ar
    29    30    32    1
    30    32    33   ar
    31    33    34   ar
    32    34    35   ar
    33    35    36   ar
    34    36    37   ar
    35    36    38    1
    36    38    39    1
    37    39    40    1
    38    30    31   ar
    39    10    11   ar
    40    11    12    1
    41    12    13    1
    42    13    14    1
    43    14    15   ar
    44    14    16   ar
    45    11     6   ar
    46    31    26   ar
    47    45    41   ar
    48    37    32   ar
    49    40    35    1
@<TRIPOS>MOLECULE
*****
 45 49 0 0 0
SMALL
GASTEIGER

@<TRIPOS>ATOM
      1 C           6.5864    1.6140   21.1517 C.3     1  UNL1        0.0473
      2 C           5.9926    1.3432   19.8012 C.3     1  UNL1        0.0038
      3 C           5.7193   -0.0677   19.3713 C.3     1  UNL1        0.0005
      4 C           4.3368   -0.4689   18.9499 C.3     1  UNL1        0.0047
      5 C           3.3717   -1.0107   19.9623 C.3     1  UNL1        0.0261
      6 C           1.2795    1.2796   22.4375 C.ar    1  UNL1        0.1342
      7 C           0.0960    1.6168   21.5797 C.ar    1  UNL1        0.0365
      8 C           0.0044    1.0780   20.1828 C.ar    1  UNL1        0.0028
      9 C           1.0963    0.2022   19.6436 C.ar    1  UNL1       -0.0044
     10 C           2.2798   -0.1349   20.5014 C.ar    1  UNL1       -0.0232
     11 C           2.3714    0.4038   21.8984 C.ar    1  UNL1        0.0082
     12 C           3.5548    0.0667   22.7561 C.3     1  UNL1        0.0350
     13 C           3.4127   -0.9224   23.8749 C.3     1  UNL1        0.0465
     14 C           3.7310   -0.5134   25.2825 C.2     1  UNL1        0.0507
     15 O           4.0956    0.9096   25.5858 O.co2   1  UNL1       -0.5492
     16 O           3.6847   -1.5275   26.3868 O.co2   1  UNL1       -0.5492
     17 O           1.3710    1.8184   23.8345 O.3     1  UNL1       -0.4758
     18 C           0.4960    1.2547   24.9145 C.3     1  UNL1        0.2058
     19 C           0.4690    1.8973   26.2697 C.3     1  UNL1        0.0532
     20 C           0.9800    1.1489   27.4649 C.3     1  UNL1        0.0455
     21 O           0.5132   -0.4025   29.4961 O.co2   1  UNL1       -0.5492
     22 C           0.0142    0.5269   28.4296 C.2     1  UNL1        0.0505
     23 O          -1.4504    0.8343   28.3277 O.co2   1  UNL1       -0.5492
     24 C           7.7938    0.8493   21.6072 C.3     1  UNL1        0.2054
     25 O           7.8018    0.1947   22.9568 O.3     1  UNL1       -0.4755
     26 C           7.1734   -1.1550   23.1394 C.ar    1  UNL1        0.1386
     27 C           6.4809   -1.8220   21.9881 C.ar    1  UNL1        0.0369
     28 C           5.8525   -3.1717   22.1708 C.ar    1  UNL1        0.0035
     29 C           5.9166   -3.8545   23.5048 C.ar    1  UNL1        0.0002
     30 C           6.6092   -3.1876   24.6561 C.ar    1  UNL1        0.0031
     31 C           7.2376   -1.8379   24.4734 C.ar    1  UNL1        0.0369
     32 C           6.6734   -3.8705   25.9902 C.ar    1  UNL1        0.0033
     33 C           6.8059   -5.3627   26.0633 C.ar    1  UNL1        0.0033
     34 C           6.8701   -6.0455   27.3973 C.ar    1  UNL1        0.0402
     35 C           6.8017   -5.2360   28.6583 C.ar    1  UNL1        0.1764
     36 C           6.6692   -3.7437   28.5852 C.ar    1  UNL1        0.1764
     37 C           6.6050   -3.0608   27.2512 C.ar    1  UNL1        0.0402
     38 O           6.6260   -3.2129   29.9875 O.3     1  UNL1       -0.4346
     39 C           6.7318   -4.3772   30.9272 C.3     1  UNL1        0.4294
     40 O           6.8404   -5.6276   30.1057 O.3     1  UNL1       -0.4346
     41 C           5.1599   -3.8387   21.0194 C.ar    1  UNL1        0.0071
     42 C           3.8253   -4.5215   21.0691 C.ar    1  UNL1        0.0075
     43 C           3.5209   -5.0447   19.6967 C.ar    1  UNL1        0.0355
     44 S           4.6675   -4.6852   18.7987 S.2     1  UNL1       -0.0859
     45 C           5.6804   -3.9398   19.6162 C.ar    1  UNL1        0.0354
@<TRIPOS>UNITY_ATOM_ATTR
15 1
charge -1
21 1
charge -1
@<TRIPOS>BOND
     1    21    22   ar
     2    22    23   ar
     3    22    20    1
     4    20    19    1
     5    19    18    1
     6    18    17    1
     7    17     6    1
     8     6     7   ar
     9     7     8   ar
    10     8     9   ar
    11     9    10   ar
    12    10     5    1
    13     5     4    1
    14     4     3    1
    15     3     2    1
    16     2     1    1
    17     1    24    1
    18    24    25    1
    19    25    26    1
    20    26    27   ar
    21    27    28   ar
    22    28    41    1
    23    41    42   ar
    24    42    43   ar
    25    43    44   ar
    26    44    45   ar
    27    28    29   ar
    28    29    30   ar
    29    30    32    1
    30    32    33   ar
    31    33    34   ar
    32    34    35   ar
    33    35    36   ar
    34    36    37   ar
    35    36    38    1
    36    38    39    1
    37    39    40    1
    38    30    31   ar
    39    10    11   ar
    40    11    12    1
    41    12    13    1
    42    13    14    1
    43    14    15   ar
    44    14    16   ar
    45    11     6   ar
    46    31    26   ar
    47    45    41   ar
    48    37    32   ar
    49    40    35    1
@<TRIPOS>MOLECULE
*****
 45 49 0 0 0
SMALL
GASTEIGER

@<TRIPOS>ATOM
      1 C          -0.6356    1.0316   27.5188 C.3     1  UNL1        0.0473
      2 C           0.4429    1.3001   26.5114 C.3     1  UNL1        0.0038
      3 C           0.1619    2.1775   25.3277 C.3     1  UNL1        0.0005
      4 C           0.4211    1.6705   23.9400 C.3     1  UNL1        0.0047
      5 C           1.5350    0.6966   23.6931 C.3     1  UNL1        0.0261
      6 C           4.4695    0.7197   21.0215 C.ar    1  UNL1        0.1342
      7 C           5.1825    1.9857   21.3945 C.ar    1  UNL1        0.0365
      8 C           4.6796    2.8219   22.5337 C.ar    1  UNL1        0.0028
      9 C           3.4637    2.3922   23.2999 C.ar    1  UNL1       -0.0044
     10 C           2.7508    1.1263   22.9269 C.ar    1  UNL1       -0.0232
     11 C           3.2536    0.2900   21.7877 C.ar    1  UNL1        0.0082
     12 C           2.5406   -0.9759   21.4147 C.3     1  UNL1        0.0350
     13 C           1.8282   -1.0754   20.0985 C.3     1  UNL1        0.0465
     14 C           0.8445   -0.0169   19.6962 C.2     1  UNL1        0.0507
     15 O          -0.2092    0.4344   20.6636 O.co2   1  UNL1       -0.5492
     16 O           0.9146    0.5904   18.3264 O.co2   1  UNL1       -0.5492
     17 O           4.9724   -0.1166   19.8823 O.3     1  UNL1       -0.4758
     18 C           6.1117   -1.0685   20.0964 C.3     1  UNL1        0.2058
     19 C           6.2644   -2.2674   19.2080 C.3     1  UNL1        0.0532
     20 C           5.0490   -2.9497   18.6536 C.3     1  UNL1        0.0455
     21 O           2.9749   -4.4723   19.0141 O.co2   1  UNL1       -0.5492
     22 C           4.2830   -3.9223   19.5006 C.2     1  UNL1        0.0505
     23 O           4.8250   -4.3448   20.8339 O.co2   1  UNL1       -0.5492
     24 C          -0.4602   -0.0603   28.5322 C.3     1  UNL1        0.2054
     25 O           0.3977    0.1692   29.7411 O.3     1  UNL1       -0.4755
     26 C           1.8528   -0.1933   29.7079 C.ar    1  UNL1        0.1386
     27 C           2.6904   -0.0475   30.9437 C.ar    1  UNL1        0.0369
     28 C           4.1456   -0.4101   30.9105 C.ar    1  UNL1        0.0035
     29 C           4.7631   -0.9184   29.6416 C.ar    1  UNL1        0.0002
     30 C           3.9255   -1.0642   28.4058 C.ar    1  UNL1        0.0031
     31 C           2.4703   -0.7017   28.4390 C.ar    1  UNL1        0.0369
     32 C           4.5431   -1.5726   27.1368 C.ar    1  UNL1        0.0033
     33 C           3.8859   -1.2920   25.8180 C.ar    1  UNL1        0.0033
     34 C           4.5034   -1.8003   24.5491 C.ar    1  UNL1        0.0402
     35 C           5.7781   -2.5894   24.5990 C.ar    1  UNL1        0.1764
     36 C           6.4354   -2.8700   25.9178 C.ar    1  UNL1        0.1764
     37 C           5.8178   -2.3617   27.1867 C.ar    1  UNL1        0.0402
     38 O           7.6775   -3.6692   25.6560 O.3     1  UNL1       -0.4346
     39 C           7.7879   -3.8824   24.1754 C.3     1  UNL1        0.4294
     40 O           6.6141   -3.2150   23.5221 O.3     1  UNL1       -0.4346
     41 C           4.9833   -0.2643   32.1463 C.ar    1  UNL1        0.0071
     42 C           6.0722   -1.1964   32.5884 C.ar    1  UNL1        0.0075
     43 C           6.6410   -0.6689   33.8722 C.ar    1  UNL1        0.0355
     44 S           5.9036    0.5892   34.2236 S.2     1  UNL1       -0.0859
     45 C           4.8791    0.8393   33.1569 C.ar    1  UNL1        0.0354
@<TRIPOS>UNITY_ATOM_ATTR
15 1
charge -1
21 1
charge -1
@<TRIPOS>BOND
     1    21    22   ar
     2    22    23   ar
     3    22    20    1
     4    20    19    1
     5    19    18    1
     6    18    17    1
     7    17     6    1
     8     6     7   ar
     9     7     8   ar
    10     8     9   ar
    11     9    10   ar
    12    10     5    1
    13     5     4    1
    14     4     3    1
    15     3     2    1
    16     2     1    1
    17     1    24    1
    18    24    25    1
    19    25    26    1
    20    26    27   ar
    21    27    28   ar
    22    28    41    1
    23    41    42   ar
    24    42    43   ar
    25    43    44   ar
    26    44    45   ar
    27    28    29   ar
    28    29    30   ar
    29    30    32    1
    30    32    33   ar
    31    33    34   ar
    32    34    35   ar
    33    35    36   ar
    34    36    37   ar
    35    36    38    1
    36    38    39    1
    37    39    40    1
    38    30    31   ar
    39    10    11   ar
    40    11    12    1
    41    12    13    1
    42    13    14    1
    43    14    15   ar
    44    14    16   ar
    45    11     6   ar
    46    31    26   ar
    47    45    41   ar
    48    37    32   ar
    49    40    35    1
