@<TRIPOS>MOLECULE
*****
 19 21 0 0 0
SMALL
GASTEIGER

@<TRIPOS>ATOM
      1 C         -10.1140  -18.3946   22.0423 C.3     1  UNL1        0.0883
      2 C         -11.2128  -18.9045   21.1574 C.3     1  UNL1        0.0885
      3 N         -12.3103  -17.9817   20.7171 N.3     1  UNL1       -0.2947
      4 C         -12.3091  -16.5491   21.1617 C.3     1  UNL1        0.0903
      5 C         -11.2104  -16.0393   22.0465 C.3     1  UNL1        0.1076
      6 N         -10.1129  -16.9621   22.4868 N.pl3   1  UNL1       -0.3093
      7 H         -13.1866  -18.3901   21.0422 H       1  UNL1        0.1233
      8 C          -9.0141  -16.4522   23.3717 C.2     1  UNL1        0.0295
      9 C          -7.7270  -15.9731   22.7688 C.2     1  UNL1        0.0120
     10 C          -6.6283  -15.4632   23.6537 C.2     1  UNL1        0.0216
     11 C          -6.8169  -15.4325   25.1415 C.2     1  UNL1        0.1008
     12 N          -5.9194  -14.9876   26.2580 N.2     1  UNL1       -0.1482
     13 N          -6.6520  -15.1918   27.5509 N.2     1  UNL1       -0.1467
     14 C          -8.0022  -15.7629   27.2335 C.2     1  UNL1        0.1198
     15 C          -8.1041  -15.9116   25.7444 C.2     1  UNL1        0.0238
     16 C          -9.2028  -16.4215   24.8595 C.3     1  UNL1        0.0705
     17 C          -9.0165  -19.3174   22.4826 C.3     1  UNL1        0.0211
     18 C         -10.2908  -19.9454   24.6580 C.3     1  UNL1        0.0001
     19 C          -9.2402  -20.2540   23.6328 C.3     1  UNL1        0.0017
@<TRIPOS>BOND
     1    18    19    1
     2    19    17    1
     3     1    17    1
     4     1     2    1
     5     2     3    1
     6     3     4    1
     7     4     5    1
     8     5     6    1
     9     6     8    1
    10     8     9    2
    11     9    10    1
    12    10    11    2
    13    11    12    1
    14    12    13    2
    15    13    14    1
    16    14    15    2
    17    15    16    1
    18     6     1    1
    19    16     8    1
    20    15    11    1
    21     3     7    1
@<TRIPOS>MOLECULE
*****
 19 21 0 0 0
SMALL
GASTEIGER

@<TRIPOS>ATOM
      1 C          -9.7513  -18.3894   21.5175 C.3     1  UNL1        0.0883
      2 C         -10.5893  -18.8365   20.3564 C.3     1  UNL1        0.0885
      3 N         -11.4618  -17.8506   19.6376 N.3     1  UNL1       -0.2947
      4 C         -11.4964  -16.4177   20.0799 C.3     1  UNL1        0.0903
      5 C         -10.6584  -15.9707   21.2409 C.3     1  UNL1        0.1076
      6 N          -9.7859  -16.9566   21.9597 N.pl3   1  UNL1       -0.3093
      7 H         -12.4174  -18.2016   19.7016 H       1  UNL1        0.1233
      8 C          -8.9479  -16.5096   23.1208 C.2     1  UNL1        0.0295
      9 C          -9.5489  -16.4298   24.4927 C.2     1  UNL1        0.0120
     10 C          -8.7109  -15.9827   25.6538 C.2     1  UNL1        0.0216
     11 C          -7.2719  -15.6155   25.4427 C.2     1  UNL1        0.1008
     12 N          -6.2074  -15.1437   26.3884 N.2     1  UNL1       -0.1482
     13 N          -4.9485  -14.9319   25.6007 N.2     1  UNL1       -0.1467
     14 C          -5.2350  -15.2728   24.1683 C.2     1  UNL1        0.1198
     15 C          -6.6710  -15.6953   24.0707 C.2     1  UNL1        0.0238
     16 C          -7.5090  -16.1423   22.9097 C.3     1  UNL1        0.0705
     17 C          -8.8788  -19.3754   22.2362 C.3     1  UNL1        0.0211
     18 C         -10.7659  -19.8146   23.9673 C.3     1  UNL1        0.0001
     19 C          -9.4315  -20.1706   23.3818 C.3     1  UNL1        0.0017
@<TRIPOS>BOND
     1    18    19    1
     2    19    17    1
     3     1    17    1
     4     1     2    1
     5     2     3    1
     6     3     4    1
     7     4     5    1
     8     5     6    1
     9     6     8    1
    10     8     9    2
    11     9    10    1
    12    10    11    2
    13    11    12    1
    14    12    13    2
    15    13    14    1
    16    14    15    2
    17    15    16    1
    18     6     1    1
    19    16     8    1
    20    15    11    1
    21     3     7    1
@<TRIPOS>MOLECULE
*****
 19 21 0 0 0
SMALL
GASTEIGER

@<TRIPOS>ATOM
      1 C          -6.5629  -16.2526   23.8146 C.3     1  UNL1        0.0883
      2 C          -5.0664  -16.3183   23.8931 C.3     1  UNL1        0.0885
      3 N          -4.3229  -17.3902   23.1526 N.3     1  UNL1       -0.2947
      4 C          -5.0759  -18.3962   22.3336 C.3     1  UNL1        0.0903
      5 C          -6.5724  -18.3305   22.2551 C.3     1  UNL1        0.1076
      6 N          -7.3159  -17.2587   22.9956 N.pl3   1  UNL1       -0.3093
      7 H          -3.7921  -17.9146   23.8481 H       1  UNL1        0.1233
      8 C          -8.8124  -17.1930   22.9171 C.2     1  UNL1        0.0295
      9 C          -9.4721  -16.2856   21.9215 C.2     1  UNL1        0.0120
     10 C         -10.9687  -16.2199   21.8429 C.2     1  UNL1        0.0216
     11 C         -11.8054  -17.0617   22.7602 C.2     1  UNL1        0.1008
     12 N         -13.2905  -17.2074   22.9130 N.2     1  UNL1       -0.1482
     13 N         -13.5486  -18.2048   24.0031 N.2     1  UNL1       -0.1467
     14 C         -12.2230  -18.6756   24.5241 C.2     1  UNL1        0.1198
     15 C         -11.1457  -17.9690   23.7558 C.2     1  UNL1        0.0238
     16 C          -9.6492  -18.0347   23.8343 C.3     1  UNL1        0.0705
     17 C          -7.3064  -15.1808   24.5551 C.3     1  UNL1        0.0211
     18 C          -7.0626  -15.3780   27.1343 C.3     1  UNL1        0.0001
     19 C          -7.9065  -15.4751   25.8980 C.3     1  UNL1        0.0017
@<TRIPOS>BOND
     1    18    19    1
     2    19    17    1
     3     1    17    1
     4     1     2    1
     5     2     3    1
     6     3     4    1
     7     4     5    1
     8     5     6    1
     9     6     8    1
    10     8     9    2
    11     9    10    1
    12    10    11    2
    13    11    12    1
    14    12    13    2
    15    13    14    1
    16    14    15    2
    17    15    16    1
    18     6     1    1
    19    16     8    1
    20    15    11    1
    21     3     7    1
@<TRIPOS>MOLECULE
*****
 19 21 0 0 0
SMALL
GASTEIGER

@<TRIPOS>ATOM
      1 C          -6.6046  -16.1821   23.9028 C.3     1  UNL1        0.0883
      2 C          -5.1416  -16.0354   24.1999 C.3     1  UNL1        0.0885
      3 N          -4.1592  -17.0174   23.6336 N.3     1  UNL1       -0.2947
      4 C          -4.6399  -18.1460   22.7704 C.3     1  UNL1        0.0903
      5 C          -6.1028  -18.2927   22.4733 C.3     1  UNL1        0.1076
      6 N          -7.0852  -17.3107   23.0396 N.pl3   1  UNL1       -0.3093
      7 H          -3.6741  -17.4386   24.4258 H       1  UNL1        0.1233
      8 C          -8.5482  -17.4573   22.7425 C.2     1  UNL1        0.0295
      9 C          -9.3834  -18.4136   23.5410 C.2     1  UNL1        0.0120
     10 C         -10.8465  -18.5603   23.2439 C.2     1  UNL1        0.0216
     11 C         -11.4740  -17.7506   22.1482 C.2     1  UNL1        0.1008
     12 N         -12.8801  -17.6820   21.6302 N.2     1  UNL1       -0.1482
     13 N         -12.9137  -16.6833   20.5115 N.2     1  UNL1       -0.1467
     14 C         -11.5285  -16.1346   20.3381 C.2     1  UNL1        0.1198
     15 C         -10.6387  -16.7942   21.3497 C.2     1  UNL1        0.0238
     16 C          -9.1758  -16.6476   21.6468 C.3     1  UNL1        0.0705
     17 C          -7.5869  -15.2001   24.4690 C.3     1  UNL1        0.0211
     18 C          -7.6356  -15.5364   27.0448 C.3     1  UNL1        0.0001
     19 C          -8.3423  -15.5322   25.7217 C.3     1  UNL1        0.0017
@<TRIPOS>BOND
     1    18    19    1
     2    19    17    1
     3     1    17    1
     4     1     2    1
     5     2     3    1
     6     3     4    1
     7     4     5    1
     8     5     6    1
     9     6     8    1
    10     8     9    2
    11     9    10    1
    12    10    11    2
    13    11    12    1
    14    12    13    2
    15    13    14    1
    16    14    15    2
    17    15    16    1
    18     6     1    1
    19    16     8    1
    20    15    11    1
    21     3     7    1
@<TRIPOS>MOLECULE
*****
 19 21 0 0 0
SMALL
GASTEIGER

@<TRIPOS>ATOM
      1 C          -6.3887  -18.5639   22.2297 C.3     1  UNL1        0.0883
      2 C          -4.8935  -18.6679   22.2920 C.3     1  UNL1        0.0885
      3 N          -4.0985  -17.6221   23.0159 N.3     1  UNL1       -0.2947
      4 C          -4.7986  -16.4723   23.6777 C.3     1  UNL1        0.0903
      5 C          -6.2937  -16.3683   23.6154 C.3     1  UNL1        0.1076
      6 N          -7.0887  -17.4141   22.8914 N.pl3   1  UNL1       -0.3093
      7 H          -3.4516  -17.2214   22.3368 H       1  UNL1        0.1233
      8 C          -8.5839  -17.3101   22.8292 C.2     1  UNL1        0.0295
      9 C          -9.2311  -16.3935   21.8339 C.2     1  UNL1        0.0120
     10 C         -10.7263  -16.2895   21.7717 C.2     1  UNL1        0.0216
     11 C         -11.5740  -17.1021   22.7049 C.2     1  UNL1        0.1008
     12 N         -13.0605  -17.2080   22.8755 N.2     1  UNL1       -0.1482
     13 N         -13.3319  -18.1901   23.9764 N.2     1  UNL1       -0.1467
     14 C         -12.0131  -18.6912   24.4861 C.2     1  UNL1        0.1198
     15 C         -10.9267  -18.0188   23.7002 C.2     1  UNL1        0.0238
     16 C          -9.4316  -18.1228   23.7624 C.3     1  UNL1        0.0705
     17 C          -7.1837  -19.6097   21.5057 C.3     1  UNL1        0.0211
     18 C          -8.9023  -19.4953   19.5606 C.3     1  UNL1        0.0001
     19 C          -7.4836  -19.4464   20.0451 C.3     1  UNL1        0.0017
@<TRIPOS>BOND
     1    18    19    1
     2    19    17    1
     3     1    17    1
     4     1     2    1
     5     2     3    1
     6     3     4    1
     7     4     5    1
     8     5     6    1
     9     6     8    1
    10     8     9    2
    11     9    10    1
    12    10    11    2
    13    11    12    1
    14    12    13    2
    15    13    14    1
    16    14    15    2
    17    15    16    1
    18     6     1    1
    19    16     8    1
    20    15    11    1
    21     3     7    1
@<TRIPOS>MOLECULE
*****
 19 21 0 0 0
SMALL
GASTEIGER

@<TRIPOS>ATOM
      1 C         -11.1587  -17.7301   22.7868 C.3     1  UNL1        0.0883
      2 C         -12.5806  -17.7693   22.3106 C.3     1  UNL1        0.0885
      3 N         -12.9803  -17.0113   21.0794 N.3     1  UNL1       -0.2947
      4 C         -11.9581  -16.2142   20.3245 C.3     1  UNL1        0.0903
      5 C         -10.5363  -16.1751   20.8008 C.3     1  UNL1        0.1076
      6 N         -10.1366  -16.9330   22.0320 N.pl3   1  UNL1       -0.3093
      7 H         -13.7134  -16.3599   21.3597 H       1  UNL1        0.1233
      8 C          -8.7147  -16.8939   22.5082 C.2     1  UNL1        0.0295
      9 C          -8.2590  -15.7930   23.4194 C.2     1  UNL1        0.0120
     10 C          -6.8371  -15.7538   23.8956 C.2     1  UNL1        0.0216
     11 C          -5.8710  -16.8156   23.4606 C.2     1  UNL1        0.1008
     12 N          -4.4189  -17.0369   23.7648 N.2     1  UNL1       -0.1482
     13 N          -3.9773  -18.2746   23.0416 N.2     1  UNL1       -0.1467
     14 C          -5.1564  -18.8182   22.2904 C.2     1  UNL1        0.1198
     15 C          -6.3268  -17.9165   22.5494 C.2     1  UNL1        0.0238
     16 C          -7.7486  -17.9556   22.0732 C.3     1  UNL1        0.0705
     17 C         -10.7590  -18.4880   24.0180 C.3     1  UNL1        0.0211
     18 C          -9.2895  -20.6302   24.0645 C.3     1  UNL1        0.0001
     19 C         -10.6395  -19.9826   23.9729 C.3     1  UNL1        0.0017
@<TRIPOS>BOND
     1    18    19    1
     2    19    17    1
     3     1    17    1
     4     1     2    1
     5     2     3    1
     6     3     4    1
     7     4     5    1
     8     5     6    1
     9     6     8    1
    10     8     9    2
    11     9    10    1
    12    10    11    2
    13    11    12    1
    14    12    13    2
    15    13    14    1
    16    14    15    2
    17    15    16    1
    18     6     1    1
    19    16     8    1
    20    15    11    1
    21     3     7    1
@<TRIPOS>MOLECULE
*****
 19 21 0 0 0
SMALL
GASTEIGER

@<TRIPOS>ATOM
      1 C          -8.7729  -17.8293   23.4409 C.3     1  UNL1        0.0883
      2 C          -9.7366  -16.9498   24.1812 C.3     1  UNL1        0.0885
      3 N          -9.3539  -15.5408   24.5250 N.3     1  UNL1       -0.2947
      4 C          -8.0076  -15.0113   24.1286 C.3     1  UNL1        0.0903
      5 C          -7.0440  -15.8908   23.3884 C.3     1  UNL1        0.1076
      6 N          -7.4267  -17.2998   23.0446 N.pl3   1  UNL1       -0.3093
      7 H          -9.4156  -15.4582   25.5398 H       1  UNL1        0.1233
      8 C          -6.4630  -18.1793   22.3043 C.2     1  UNL1        0.0295
      9 C          -6.9438  -19.0233   21.1614 C.2     1  UNL1        0.0120
     10 C          -5.9801  -19.9028   20.4211 C.2     1  UNL1        0.0216
     11 C          -4.5356  -19.9382   20.8239 C.2     1  UNL1        0.1008
     12 N          -3.3619  -20.7013   20.2854 N.2     1  UNL1       -0.1482
     13 N          -2.1557  -20.3289   21.0956 N.2     1  UNL1       -0.1467
     14 C          -2.5840  -19.3355   22.1348 C.2     1  UNL1        0.1198
     15 C          -4.0548  -19.0941   21.9669 C.2     1  UNL1        0.0238
     16 C          -5.0185  -18.2146   22.7071 C.3     1  UNL1        0.0705
     17 C          -9.1556  -19.2383   23.0971 C.3     1  UNL1        0.0211
     18 C         -10.9156  -19.8733   21.2946 C.3     1  UNL1        0.0001
     19 C         -10.5714  -19.5604   22.7206 C.3     1  UNL1        0.0017
@<TRIPOS>BOND
     1    18    19    1
     2    19    17    1
     3     1    17    1
     4     1     2    1
     5     2     3    1
     6     3     4    1
     7     4     5    1
     8     5     6    1
     9     6     8    1
    10     8     9    2
    11     9    10    1
    12    10    11    2
    13    11    12    1
    14    12    13    2
    15    13    14    1
    16    14    15    2
    17    15    16    1
    18     6     1    1
    19    16     8    1
    20    15    11    1
    21     3     7    1
@<TRIPOS>MOLECULE
*****
 19 21 0 0 0
SMALL
GASTEIGER

@<TRIPOS>ATOM
      1 C          -8.1734  -18.1375   21.5630 C.3     1  UNL1        0.0883
      2 C          -9.6553  -18.0707   21.3403 C.3     1  UNL1        0.0885
      3 N         -10.2833  -18.8611   20.2309 N.3     1  UNL1       -0.2947
      4 C          -9.4295  -19.7182   19.3441 C.3     1  UNL1        0.0903
      5 C          -7.9476  -19.7849   19.5668 C.3     1  UNL1        0.1076
      6 N          -7.3196  -18.9945   20.6763 N.pl3   1  UNL1       -0.3093
      7 H         -10.7583  -18.1920   19.6250 H       1  UNL1        0.1233
      8 C          -5.8377  -19.0613   20.8989 C.2     1  UNL1        0.0295
      9 C          -5.2980  -19.4467   22.2443 C.2     1  UNL1        0.0120
     10 C          -3.8160  -19.5134   22.4669 C.2     1  UNL1        0.0216
     11 C          -2.8739  -19.1948   21.3440 C.2     1  UNL1        0.1008
     12 N          -1.3761  -19.1756   21.2655 N.2     1  UNL1       -0.1482
     13 N          -0.9901  -18.7784   19.8715 N.2     1  UNL1       -0.1467
     14 C          -2.2494  -18.5521   19.0885 C.2     1  UNL1        0.1198
     15 C          -3.4136  -18.8095   19.9986 C.2     1  UNL1        0.0238
     16 C          -4.8955  -18.7427   19.7760 C.3     1  UNL1        0.0705
     17 C          -7.5454  -17.3471   22.6724 C.3     1  UNL1        0.0211
     18 C          -9.0662  -16.3493   24.5276 C.3     1  UNL1        0.0001
     19 C          -8.2737  -16.1776   23.2657 C.3     1  UNL1        0.0017
@<TRIPOS>BOND
     1    18    19    1
     2    19    17    1
     3     1    17    1
     4     1     2    1
     5     2     3    1
     6     3     4    1
     7     4     5    1
     8     5     6    1
     9     6     8    1
    10     8     9    2
    11     9    10    1
    12    10    11    2
    13    11    12    1
    14    12    13    2
    15    13    14    1
    16    14    15    2
    17    15    16    1
    18     6     1    1
    19    16     8    1
    20    15    11    1
    21     3     7    1
@<TRIPOS>MOLECULE
*****
 19 21 0 0 0
SMALL
GASTEIGER

@<TRIPOS>ATOM
      1 C         -11.5522  -17.4544   22.2813 C.3     1  UNL1        0.0883
      2 C         -13.0313  -17.4537   22.5309 C.3     1  UNL1        0.0885
      3 N         -13.5819  -18.0825   23.7765 N.3     1  UNL1       -0.2947
      4 C         -12.6534  -18.7120   24.7723 C.3     1  UNL1        0.0903
      5 C         -11.1744  -18.7127   24.5226 C.3     1  UNL1        0.1076
      6 N         -10.6238  -18.0838   23.2771 N.pl3   1  UNL1       -0.3093
      7 H         -14.2300  -18.8109   23.4768 H       1  UNL1        0.1233
      8 C          -9.1446  -18.0845   23.0274 C.2     1  UNL1        0.0295
      9 C          -8.3184  -16.8935   23.4127 C.2     1  UNL1        0.0120
     10 C          -6.8393  -16.8942   23.1631 C.2     1  UNL1        0.0216
     11 C          -6.1865  -18.0861   22.5281 C.2     1  UNL1        0.1008
     12 N          -4.7606  -18.3728   22.1614 N.2     1  UNL1       -0.1482
     13 N          -4.7056  -19.7412   21.5495 N.2     1  UNL1       -0.1467
     14 C          -6.0975  -20.3002   21.5379 C.2     1  UNL1        0.1198
     15 C          -7.0128  -19.2772   22.1428 C.2     1  UNL1        0.0238
     16 C          -8.4918  -19.2764   22.3924 C.3     1  UNL1        0.0705
     17 C         -11.0016  -16.8256   21.0357 C.3     1  UNL1        0.0211
     18 C         -10.7257  -19.0017   19.6434 C.3     1  UNL1        0.0001
     19 C         -11.0944  -17.5501   19.7256 C.3     1  UNL1        0.0017
@<TRIPOS>BOND
     1    18    19    1
     2    19    17    1
     3     1    17    1
     4     1     2    1
     5     2     3    1
     6     3     4    1
     7     4     5    1
     8     5     6    1
     9     6     8    1
    10     8     9    2
    11     9    10    1
    12    10    11    2
    13    11    12    1
    14    12    13    2
    15    13    14    1
    16    14    15    2
    17    15    16    1
    18     6     1    1
    19    16     8    1
    20    15    11    1
    21     3     7    1
