@<TRIPOS>MOLECULE
*****
 34 37 0 0 0
SMALL
GASTEIGER

@<TRIPOS>ATOM
      1 C          -9.3028  -19.4105   23.3466 C.2     1  UNL1        0.2665
      2 O         -10.2177  -20.5736   23.5918 O.2     1  UNL1       -0.2710
      3 N          -9.6950  -18.0378   23.8068 N.am    1  UNL1       -0.2714
      4 C         -11.0020  -17.8281   24.5122 C.3     1  UNL1        0.1153
      5 C          -3.3701  -19.9090   20.8650 C.ar    1  UNL1        0.0531
      6 C          -4.0708  -20.7027   19.8025 C.ar    1  UNL1        0.0179
      7 C          -5.5531  -20.9180   19.8821 C.ar    1  UNL1        0.0379
      8 C          -6.3347  -20.3396   21.0243 C.ar    1  UNL1        0.1353
      9 C          -5.6340  -19.5460   22.0868 C.ar    1  UNL1        0.0172
     10 C          -4.1516  -19.3307   22.0072 C.ar    1  UNL1        0.0136
     11 C          -6.6605  -19.1013   23.0861 C.3     1  UNL1        0.0826
     12 C          -7.9957  -19.6202   22.6412 C.3     1  UNL1        0.2456
     13 O          -7.7943  -20.3855   21.3669 O.3     1  UNL1       -0.4699
     14 C          -1.3293  -18.6569   19.8564 C.2     1  UNL1        0.4055
     15 O          -2.2532  -17.8352   19.0070 O.2     1  UNL1       -0.2261
     16 N          -1.8877  -19.6937   20.7854 N.am    1  UNL1       -0.2499
     17 H          -1.2813  -20.2330   21.3428 H       1  UNL1        0.1582
     18 C           0.7362  -17.1032   20.1217 C.3     1  UNL1        0.2574
     19 O           0.1531  -18.4416   19.7768 O.3     1  UNL1       -0.4304
     20 C          -8.7800  -16.8747   23.5617 C.3     1  UNL1        0.1139
     21 C          -7.9736  -16.3039   24.6903 C.ar    1  UNL1       -0.0029
     22 C          -8.5313  -16.2983   26.0827 C.ar    1  UNL1       -0.0026
     23 C          -7.7249  -15.7275   27.2114 C.ar    1  UNL1       -0.0003
     24 C          -6.3608  -15.1623   26.9477 C.ar    1  UNL1       -0.0000
     25 C          -5.8030  -15.1679   25.5552 C.ar    1  UNL1       -0.0003
     26 C          -6.6094  -15.7387   24.4265 C.ar    1  UNL1       -0.0026
     27 C          -8.6714  -16.2824   22.1878 C.3     1  UNL1        0.0968
     28 N          -9.7775  -16.4837   21.1948 N.3     1  UNL1       -0.2689
     29 C         -10.1917  -17.7921   20.5896 C.3     1  UNL1        0.0748
     30 C         -11.3338  -17.5290   19.6534 C.3     1  UNL1        0.0480
     31 C         -11.6253  -16.0578   19.6799 C.3     1  UNL1        0.1278
     32 O         -12.6916  -15.3559   18.8922 O.3     1  UNL1       -0.3830
     33 C         -10.6635  -15.4117   20.6326 C.3     1  UNL1        0.1017
     34 H         -12.6688  -14.4069   19.0914 H       1  UNL1        0.2104
@<TRIPOS>BOND
     1    18    19    1
     2    19    14    1
     3    14    15    2
     4    14    16   am
     5    16     5    1
     6     5     6   ar
     7     6     7   ar
     8     7     8   ar
     9     8     9   ar
    10     9    10   ar
    11     9    11    1
    12    11    12    1
    13    12     1    1
    14     1     2    2
    15     1     3   am
    16     3     4    1
    17     3    20    1
    18    20    27    1
    19    27    28    1
    20    28    29    1
    21    29    30    1
    22    30    31    1
    23    31    32    1
    24    31    33    1
    25    20    21    1
    26    21    22   ar
    27    22    23   ar
    28    23    24   ar
    29    24    25   ar
    30    25    26   ar
    31    12    13    1
    32    10     5   ar
    33    33    28    1
    34    26    21   ar
    35    13     8    1
    36    16    17    1
    37    32    34    1
@<TRIPOS>MOLECULE
*****
 34 37 0 0 0
SMALL
GASTEIGER

@<TRIPOS>ATOM
      1 C          -9.6235  -19.6560   23.9595 C.2     1  UNL1        0.2665
      2 O          -9.7831  -20.9491   24.7028 O.2     1  UNL1       -0.2710
      3 N         -10.6439  -18.5683   24.1193 N.am    1  UNL1       -0.2714
      4 C         -11.8238  -18.7735   25.0224 C.3     1  UNL1        0.1153
      5 C          -4.1969  -18.4881   20.6744 C.ar    1  UNL1        0.0531
      6 C          -4.9717  -19.0705   19.5298 C.ar    1  UNL1        0.0179
      7 C          -6.3810  -19.5396   19.7396 C.ar    1  UNL1        0.0379
      8 C          -7.0154  -19.4261   21.0941 C.ar    1  UNL1        0.1353
      9 C          -6.2405  -18.8436   22.2387 C.ar    1  UNL1        0.0172
     10 C          -4.8313  -18.3746   22.0289 C.ar    1  UNL1        0.0136
     11 C          -7.1232  -18.8588   23.4515 C.3     1  UNL1        0.0826
     12 C          -8.4436  -19.4507   23.0563 C.3     1  UNL1        0.2456
     13 O          -8.3769  -19.8013   21.5994 O.3     1  UNL1       -0.4699
     14 C          -1.6386  -18.9243   20.7965 C.2     1  UNL1        0.4055
     15 O          -1.8988  -20.2987   21.3383 O.2     1  UNL1       -0.2261
     16 N          -2.7876  -18.0190   20.4646 N.am    1  UNL1       -0.2499
     17 H          -2.6168  -17.1170   20.1091 H       1  UNL1        0.1582
     18 C           0.0312  -17.1442   19.9059 C.3     1  UNL1        0.2574
     19 O          -0.2294  -18.4553   20.5867 O.3     1  UNL1       -0.4304
     20 C         -10.4844  -17.2752   23.3759 C.3     1  UNL1        0.1139
     21 C         -10.7957  -17.2095   21.9100 C.ar    1  UNL1       -0.0029
     22 C         -10.8493  -15.8821   21.2135 C.ar    1  UNL1       -0.0026
     23 C         -11.1606  -15.8164   19.7476 C.ar    1  UNL1       -0.0003
     24 C         -11.4183  -17.0780   18.9783 C.ar    1  UNL1       -0.0000
     25 C         -11.3646  -18.4055   19.6748 C.ar    1  UNL1       -0.0003
     26 C         -11.0533  -18.4712   21.1407 C.ar    1  UNL1       -0.0026
     27 C         -10.0135  -16.0479   24.0984 C.3     1  UNL1        0.0968
     28 N          -8.5447  -15.7856   24.2527 N.3     1  UNL1       -0.2689
     29 C          -7.7573  -15.9010   25.5242 C.3     1  UNL1        0.0748
     30 C          -6.3314  -15.5486   25.2200 C.3     1  UNL1        0.0480
     31 C          -6.2375  -15.2153   23.7605 C.3     1  UNL1        0.1278
     32 O          -4.9940  -14.8072   23.0276 O.3     1  UNL1       -0.3830
     33 C          -7.6054  -15.3618   23.1626 C.3     1  UNL1        0.1017
     34 H          -5.2061  -14.6489   22.0944 H       1  UNL1        0.2104
@<TRIPOS>BOND
     1    18    19    1
     2    19    14    1
     3    14    15    2
     4    14    16   am
     5    16     5    1
     6     5     6   ar
     7     6     7   ar
     8     7     8   ar
     9     8     9   ar
    10     9    10   ar
    11     9    11    1
    12    11    12    1
    13    12     1    1
    14     1     2    2
    15     1     3   am
    16     3     4    1
    17     3    20    1
    18    20    27    1
    19    27    28    1
    20    28    29    1
    21    29    30    1
    22    30    31    1
    23    31    32    1
    24    31    33    1
    25    20    21    1
    26    21    22   ar
    27    22    23   ar
    28    23    24   ar
    29    24    25   ar
    30    25    26   ar
    31    12    13    1
    32    10     5   ar
    33    33    28    1
    34    26    21   ar
    35    13     8    1
    36    16    17    1
    37    32    34    1
@<TRIPOS>MOLECULE
*****
 34 37 0 0 0
SMALL
GASTEIGER

@<TRIPOS>ATOM
      1 C           6.4161    1.7544   37.6029 C.2     1  UNL1        0.2665
      2 O           7.7766    1.4498   38.1561 O.2     1  UNL1       -0.2710
      3 N           5.5386    2.7632   38.2828 N.am    1  UNL1       -0.2714
      4 C           6.0216    3.4675   39.5159 C.3     1  UNL1        0.1153
      5 C           4.6154   -0.6928   31.9131 C.ar    1  UNL1        0.0531
      6 C           4.0900   -1.8142   32.7595 C.ar    1  UNL1        0.0179
      7 C           4.2456   -1.7650   34.2505 C.ar    1  UNL1        0.0379
      8 C           4.9267   -0.5944   34.8953 C.ar    1  UNL1        0.1353
      9 C           5.4522    0.5270   34.0490 C.ar    1  UNL1        0.0172
     10 C           5.2965    0.4778   32.5579 C.ar    1  UNL1        0.0136
     11 C           6.0740    1.5434   34.9602 C.3     1  UNL1        0.0826
     12 C           5.9329    1.0501   36.3697 C.3     1  UNL1        0.2456
     13 O           5.2239   -0.2711   36.3296 O.3     1  UNL1       -0.4699
     14 C           3.1121   -0.5222   29.8010 C.2     1  UNL1        0.4055
     15 O           1.9202   -0.2533   30.6711 O.2     1  UNL1       -0.2261
     16 N           4.4597   -0.7420   30.4220 N.am    1  UNL1       -0.2499
     17 H           5.2420   -0.9185   29.8510 H       1  UNL1        0.1582
     18 C           3.9511   -1.3239   27.4764 C.3     1  UNL1        0.2574
     19 O           2.9564   -0.5714   28.3099 O.3     1  UNL1       -0.4304
     20 C           4.1780    3.0678   37.7295 C.3     1  UNL1        0.1139
     21 C           2.9688    2.3809   38.2917 C.ar    1  UNL1       -0.0029
     22 C           3.0332    0.9271   38.6552 C.ar    1  UNL1       -0.0026
     23 C           1.8240    0.2403   39.2175 C.ar    1  UNL1       -0.0003
     24 C           0.5504    1.0073   39.4162 C.ar    1  UNL1       -0.0000
     25 C           0.4859    2.4612   39.0527 C.ar    1  UNL1       -0.0003
     26 C           1.6951    3.1480   38.4905 C.ar    1  UNL1       -0.0026
     27 C           4.0266    4.0591   36.6141 C.3     1  UNL1        0.0968
     28 N           3.4785    3.6191   35.2888 N.3     1  UNL1       -0.2689
     29 C           3.8562    4.1781   33.9492 C.3     1  UNL1        0.0748
     30 C           3.0676    3.4474   32.9030 C.3     1  UNL1        0.0480
     31 C           2.2026    2.4369   33.5962 C.3     1  UNL1        0.1278
     32 O           1.2508    1.4870   32.9316 O.3     1  UNL1       -0.3830
     33 C           2.4565    2.5430   35.0708 C.3     1  UNL1        0.1017
     34 H           0.8153    0.9415   33.6051 H       1  UNL1        0.2104
@<TRIPOS>BOND
     1    18    19    1
     2    19    14    1
     3    14    15    2
     4    14    16   am
     5    16     5    1
     6     5     6   ar
     7     6     7   ar
     8     7     8   ar
     9     8     9   ar
    10     9    10   ar
    11     9    11    1
    12    11    12    1
    13    12     1    1
    14     1     2    2
    15     1     3   am
    16     3     4    1
    17     3    20    1
    18    20    27    1
    19    27    28    1
    20    28    29    1
    21    29    30    1
    22    30    31    1
    23    31    32    1
    24    31    33    1
    25    20    21    1
    26    21    22   ar
    27    22    23   ar
    28    23    24   ar
    29    24    25   ar
    30    25    26   ar
    31    12    13    1
    32    10     5   ar
    33    33    28    1
    34    26    21   ar
    35    13     8    1
    36    16    17    1
    37    32    34    1
@<TRIPOS>MOLECULE
*****
 34 37 0 0 0
SMALL
GASTEIGER

@<TRIPOS>ATOM
      1 C          -8.6771  -19.6750   19.3359 C.2     1  UNL1        0.2665
      2 O          -9.0634  -20.4169   18.0909 O.2     1  UNL1       -0.2710
      3 N          -9.7286  -18.9895   20.1573 N.am    1  UNL1       -0.2714
      4 C         -11.1663  -19.0460   19.7335 C.3     1  UNL1        0.1153
      5 C          -2.3561  -19.1151   20.4915 C.ar    1  UNL1        0.0531
      6 C          -2.7169  -19.7524   21.8005 C.ar    1  UNL1        0.0179
      7 C          -4.1425  -20.1200   22.0880 C.ar    1  UNL1        0.0379
      8 C          -5.2072  -19.8503   21.0665 C.ar    1  UNL1        0.1353
      9 C          -4.8464  -19.2130   19.7575 C.ar    1  UNL1        0.0172
     10 C          -3.4208  -18.8454   19.4700 C.ar    1  UNL1        0.0136
     11 C          -6.1023  -19.0697   18.9498 C.3     1  UNL1        0.0826
     12 C          -7.2393  -19.6185   19.7597 C.3     1  UNL1        0.2456
     13 O          -6.6861  -20.1009   21.0679 O.3     1  UNL1       -0.4699
     14 C          -0.4532  -17.3467   20.4485 C.2     1  UNL1        0.4055
     15 O          -1.4015  -16.3134   20.9805 O.2     1  UNL1       -0.2261
     16 N          -0.9305  -18.7476   20.2040 N.am    1  UNL1       -0.2499
     17 H          -0.3081  -19.4258   19.8548 H       1  UNL1        0.1582
     18 C           2.0853  -17.6466   20.9133 C.3     1  UNL1        0.2574
     19 O           0.9723  -16.9792   20.1610 O.3     1  UNL1       -0.4304
     20 C          -9.3422  -18.2476   21.4024 C.3     1  UNL1        0.1139
     21 C          -9.7078  -18.7997   22.7484 C.ar    1  UNL1       -0.0029
     22 C         -10.6237  -18.0285   23.6518 C.ar    1  UNL1       -0.0026
     23 C         -10.9893  -18.5806   24.9977 C.ar    1  UNL1       -0.0003
     24 C         -10.4389  -19.9039   25.4402 C.ar    1  UNL1       -0.0000
     25 C          -9.5229  -20.6752   24.5368 C.ar    1  UNL1       -0.0003
     26 C          -9.1573  -20.1231   23.1908 C.ar    1  UNL1       -0.0026
     27 C          -8.5903  -16.9536   21.3016 C.3     1  UNL1        0.0968
     28 N          -7.6309  -16.5573   22.3845 N.3     1  UNL1       -0.2689
     29 C          -6.3852  -17.2970   22.7728 C.3     1  UNL1        0.0748
     30 C          -5.7332  -16.5486   23.8974 C.3     1  UNL1        0.0480
     31 C          -6.5760  -15.3463   24.2041 C.3     1  UNL1        0.1278
     32 O          -6.2952  -14.3190   25.2605 O.3     1  UNL1       -0.3830
     33 C          -7.7489  -15.3516   23.2691 C.3     1  UNL1        0.1017
     34 H          -6.9942  -13.6465   25.2514 H       1  UNL1        0.2104
@<TRIPOS>BOND
     1    18    19    1
     2    19    14    1
     3    14    15    2
     4    14    16   am
     5    16     5    1
     6     5     6   ar
     7     6     7   ar
     8     7     8   ar
     9     8     9   ar
    10     9    10   ar
    11     9    11    1
    12    11    12    1
    13    12     1    1
    14     1     2    2
    15     1     3   am
    16     3     4    1
    17     3    20    1
    18    20    27    1
    19    27    28    1
    20    28    29    1
    21    29    30    1
    22    30    31    1
    23    31    32    1
    24    31    33    1
    25    20    21    1
    26    21    22   ar
    27    22    23   ar
    28    23    24   ar
    29    24    25   ar
    30    25    26   ar
    31    12    13    1
    32    10     5   ar
    33    33    28    1
    34    26    21   ar
    35    13     8    1
    36    16    17    1
    37    32    34    1
@<TRIPOS>MOLECULE
*****
 34 37 0 0 0
SMALL
GASTEIGER

@<TRIPOS>ATOM
      1 C           2.3353    0.2921   20.4509 C.2     1  UNL1        0.2665
      2 O           1.1676    0.8504   21.2090 O.2     1  UNL1       -0.2710
      3 N           2.4128    0.4605   18.9624 N.am    1  UNL1       -0.2714
      4 C           1.3227    1.1872   18.2320 C.3     1  UNL1        0.1153
      5 C           6.4890   -3.3033   23.8308 C.ar    1  UNL1        0.0531
      6 C           7.4941   -2.3196   23.3092 C.ar    1  UNL1        0.0179
      7 C           7.0525   -1.1984   22.4160 C.ar    1  UNL1        0.0379
      8 C           5.6058   -1.0609   22.0443 C.ar    1  UNL1        0.1353
      9 C           4.6007   -2.0447   22.5659 C.ar    1  UNL1        0.0172
     10 C           5.0423   -3.1658   23.4592 C.ar    1  UNL1        0.0136
     11 C           3.2532   -1.6576   22.0325 C.3     1  UNL1        0.0826
     12 C           3.4255   -0.4346   21.1812 C.3     1  UNL1        0.2456
     13 O           4.8795   -0.0659   21.1885 O.3     1  UNL1       -0.4699
     14 C           7.6615   -5.6001   24.1466 C.2     1  UNL1        0.4055
     15 O           7.9508   -5.6547   22.6757 O.2     1  UNL1       -0.2261
     16 N           6.9306   -4.4245   24.7241 N.am    1  UNL1       -0.2499
     17 H           6.7407   -4.3887   25.6895 H       1  UNL1        0.1582
     18 C           7.2815   -7.0933   26.2385 C.3     1  UNL1        0.2574
     19 O           8.1031   -6.7213   25.0399 O.3     1  UNL1       -0.4304
     20 C           3.5806   -0.0978   18.2042 C.3     1  UNL1        0.1139
     21 C           4.7937    0.7509   17.9639 C.ar    1  UNL1       -0.0029
     22 C           4.8885    2.1154   18.5798 C.ar    1  UNL1       -0.0026
     23 C           6.1017    2.9641   18.3395 C.ar    1  UNL1       -0.0003
     24 C           7.2201    2.4485   17.4833 C.ar    1  UNL1       -0.0000
     25 C           7.1254    1.0840   16.8673 C.ar    1  UNL1       -0.0003
     26 C           5.9122    0.2352   17.1077 C.ar    1  UNL1       -0.0026
     27 C           3.5351   -1.5049   17.6865 C.3     1  UNL1        0.0968
     28 N           4.0334   -2.6342   18.5388 N.3     1  UNL1       -0.2689
     29 C           3.2052   -3.7602   19.0827 C.3     1  UNL1        0.0748
     30 C           4.1074   -4.6577   19.8768 C.3     1  UNL1        0.0480
     31 C           5.4932   -4.0863   19.8237 C.3     1  UNL1        0.1278
     32 O           6.7110   -4.6640   20.4820 O.3     1  UNL1       -0.3830
     33 C           5.4476   -2.8356   18.9967 C.3     1  UNL1        0.1017
     34 H           7.4784   -4.1020   20.2923 H       1  UNL1        0.2104
@<TRIPOS>BOND
     1    18    19    1
     2    19    14    1
     3    14    15    2
     4    14    16   am
     5    16     5    1
     6     5     6   ar
     7     6     7   ar
     8     7     8   ar
     9     8     9   ar
    10     9    10   ar
    11     9    11    1
    12    11    12    1
    13    12     1    1
    14     1     2    2
    15     1     3   am
    16     3     4    1
    17     3    20    1
    18    20    27    1
    19    27    28    1
    20    28    29    1
    21    29    30    1
    22    30    31    1
    23    31    32    1
    24    31    33    1
    25    20    21    1
    26    21    22   ar
    27    22    23   ar
    28    23    24   ar
    29    24    25   ar
    30    25    26   ar
    31    12    13    1
    32    10     5   ar
    33    33    28    1
    34    26    21   ar
    35    13     8    1
    36    16    17    1
    37    32    34    1
@<TRIPOS>MOLECULE
*****
 34 37 0 0 0
SMALL
GASTEIGER

@<TRIPOS>ATOM
      1 C           6.5152    1.2119   19.8917 C.2     1  UNL1        0.2665
      2 O           7.4825    2.3582   19.9083 O.2     1  UNL1       -0.2710
      3 N           5.8858    0.7802   18.6004 N.am    1  UNL1       -0.2714
      4 C           6.2237    1.4948   17.3256 C.3     1  UNL1        0.1153
      5 C           4.4307   -1.4542   25.3828 C.ar    1  UNL1        0.0531
      6 C           5.7131   -2.2267   25.2896 C.ar    1  UNL1        0.0179
      7 C           6.6470   -1.9940   24.1391 C.ar    1  UNL1        0.0379
      8 C           6.2984   -0.9888   23.0817 C.ar    1  UNL1        0.1353
      9 C           5.0161   -0.2164   23.1748 C.ar    1  UNL1        0.0172
     10 C           4.0822   -0.4490   24.3254 C.ar    1  UNL1        0.0136
     11 C           4.9411    0.7021   21.9912 C.3     1  UNL1        0.0826
     12 C           6.1772    0.4972   21.1665 C.3     1  UNL1        0.2456
     13 O           7.0161   -0.5479   21.8405 O.3     1  UNL1       -0.4699
     14 C           3.5394   -0.7817   27.7287 C.2     1  UNL1        0.4055
     15 O           4.5159    0.3561   27.7735 O.2     1  UNL1       -0.2261
     16 N           3.4969   -1.6868   26.5333 N.am    1  UNL1       -0.2499
     17 H           2.8560   -2.4336   26.5039 H       1  UNL1        0.1582
     18 C           1.3109   -0.2610   28.9585 C.3     1  UNL1        0.2574
     19 O           2.6056   -1.0144   28.8793 O.3     1  UNL1       -0.4304
     20 C           4.9184   -0.3662   18.5839 C.3     1  UNL1        0.1139
     21 C           3.4804   -0.1393   18.9454 C.ar    1  UNL1       -0.0029
     22 C           2.7532    1.0594   18.4123 C.ar    1  UNL1       -0.0026
     23 C           1.3152    1.2863   18.7738 C.ar    1  UNL1       -0.0003
     24 C           0.6044    0.3145   19.6683 C.ar    1  UNL1       -0.0000
     25 C           1.3316   -0.8843   20.2015 C.ar    1  UNL1       -0.0003
     26 C           2.7697   -1.1112   19.8400 C.ar    1  UNL1       -0.0026
     27 C           5.3891   -1.7393   18.2059 C.3     1  UNL1        0.0968
     28 N           6.3559   -2.4705   19.0896 N.3     1  UNL1       -0.2689
     29 C           7.8513   -2.3675   19.0353 C.3     1  UNL1        0.0748
     30 C           8.4166   -3.2663   20.0948 C.3     1  UNL1        0.0480
     31 C           7.2706   -3.9248   20.8039 C.3     1  UNL1        0.1278
     32 O           7.3791   -4.9033   21.9356 O.3     1  UNL1       -0.3830
     33 C           5.9969   -3.4329   20.1827 C.3     1  UNL1        0.1017
     34 H           6.4907   -5.1770   22.2127 H       1  UNL1        0.2104
@<TRIPOS>BOND
     1    18    19    1
     2    19    14    1
     3    14    15    2
     4    14    16   am
     5    16     5    1
     6     5     6   ar
     7     6     7   ar
     8     7     8   ar
     9     8     9   ar
    10     9    10   ar
    11     9    11    1
    12    11    12    1
    13    12     1    1
    14     1     2    2
    15     1     3   am
    16     3     4    1
    17     3    20    1
    18    20    27    1
    19    27    28    1
    20    28    29    1
    21    29    30    1
    22    30    31    1
    23    31    32    1
    24    31    33    1
    25    20    21    1
    26    21    22   ar
    27    22    23   ar
    28    23    24   ar
    29    24    25   ar
    30    25    26   ar
    31    12    13    1
    32    10     5   ar
    33    33    28    1
    34    26    21   ar
    35    13     8    1
    36    16    17    1
    37    32    34    1
@<TRIPOS>MOLECULE
*****
 34 37 0 0 0
SMALL
GASTEIGER

@<TRIPOS>ATOM
      1 C           4.8605   -3.1927   21.3086 C.2     1  UNL1        0.2665
      2 O           4.4535   -4.6359   21.2711 O.2     1  UNL1       -0.2710
      3 N           6.3118   -2.8206   21.2362 N.am    1  UNL1       -0.2714
      4 C           7.3561   -3.8918   21.1263 C.3     1  UNL1        0.1153
      5 C           0.1546    1.2131   21.0902 C.ar    1  UNL1        0.0531
      6 C           0.6467    1.5516   22.4661 C.ar    1  UNL1        0.0179
      7 C           1.7970    0.7931   23.0588 C.ar    1  UNL1        0.0379
      8 C           2.4553   -0.3038   22.2757 C.ar    1  UNL1        0.1353
      9 C           1.9632   -0.6423   20.8998 C.ar    1  UNL1        0.0172
     10 C           0.8128    0.1162   20.3070 C.ar    1  UNL1        0.0136
     11 C           2.8043   -1.7657   20.3700 C.3     1  UNL1        0.0826
     12 C           3.8162   -2.1215   21.4185 C.3     1  UNL1        0.2456
     13 O           3.6005   -1.2180   22.5963 O.3     1  UNL1       -0.4699
     14 C          -0.7647    3.3129   19.8672 C.2     1  UNL1        0.4055
     15 O           0.6169    3.8959   19.8298 O.2     1  UNL1       -0.2261
     16 N          -0.9958    1.9715   20.4974 N.am    1  UNL1       -0.2499
     17 H          -1.9026    1.5889   20.5219 H       1  UNL1        0.1582
     18 C          -3.2721    3.9920   19.9087 C.3     1  UNL1        0.2574
     19 O          -1.9151    4.0713   19.2744 O.3     1  UNL1       -0.4304
     20 C           6.7189   -1.3773   21.2737 C.3     1  UNL1        0.1139
     21 C           6.8471   -0.6682   22.5892 C.ar    1  UNL1       -0.0029
     22 C           7.3420   -1.4094   23.7957 C.ar    1  UNL1       -0.0026
     23 C           7.4703   -0.7003   25.1112 C.ar    1  UNL1       -0.0003
     24 C           7.1035    0.7500   25.2203 C.ar    1  UNL1       -0.0000
     25 C           6.6085    1.4913   24.0139 C.ar    1  UNL1       -0.0003
     26 C           6.4803    0.7822   22.6983 C.ar    1  UNL1       -0.0026
     27 C           6.9976   -0.6433   19.9957 C.3     1  UNL1        0.0968
     28 N           5.8969   -0.4262   18.9999 N.3     1  UNL1       -0.2689
     29 C           5.0068    0.7782   18.9183 C.3     1  UNL1        0.0748
     30 C           4.0529    0.5733   17.7790 C.3     1  UNL1        0.0480
     31 C           4.3535   -0.7578   17.1564 C.3     1  UNL1        0.1278
     32 O           3.6398   -1.3647   15.9850 O.3     1  UNL1       -0.3830
     33 C           5.4933   -1.3757   17.9110 C.3     1  UNL1        0.1017
     34 H           4.0286   -2.2299   15.7822 H       1  UNL1        0.2104
@<TRIPOS>BOND
     1    18    19    1
     2    19    14    1
     3    14    15    2
     4    14    16   am
     5    16     5    1
     6     5     6   ar
     7     6     7   ar
     8     7     8   ar
     9     8     9   ar
    10     9    10   ar
    11     9    11    1
    12    11    12    1
    13    12     1    1
    14     1     2    2
    15     1     3   am
    16     3     4    1
    17     3    20    1
    18    20    27    1
    19    27    28    1
    20    28    29    1
    21    29    30    1
    22    30    31    1
    23    31    32    1
    24    31    33    1
    25    20    21    1
    26    21    22   ar
    27    22    23   ar
    28    23    24   ar
    29    24    25   ar
    30    25    26   ar
    31    12    13    1
    32    10     5   ar
    33    33    28    1
    34    26    21   ar
    35    13     8    1
    36    16    17    1
    37    32    34    1
@<TRIPOS>MOLECULE
*****
 34 37 0 0 0
SMALL
GASTEIGER

@<TRIPOS>ATOM
      1 C           5.5787   -3.5866   20.3007 C.2     1  UNL1        0.2665
      2 O           5.4540   -4.9566   19.7027 O.2     1  UNL1       -0.2710
      3 N           6.7584   -3.2495   21.1637 N.am    1  UNL1       -0.2714
      4 C           7.8133   -4.2823   21.4286 C.3     1  UNL1        0.1153
      5 C           0.7243    0.6315   19.8043 C.ar    1  UNL1        0.0531
      6 C           1.4217    1.0179   18.5337 C.ar    1  UNL1        0.0179
      7 C           2.6840    0.3166   18.1279 C.ar    1  UNL1        0.0379
      8 C           3.2490   -0.7711   18.9927 C.ar    1  UNL1        0.1353
      9 C           2.5516   -1.1574   20.2632 C.ar    1  UNL1        0.0172
     10 C           1.2892   -0.4561   20.6690 C.ar    1  UNL1        0.0136
     11 C           3.3394   -2.2592   20.9079 C.3     1  UNL1        0.0826
     12 C           4.5237   -2.5537   20.0357 C.3     1  UNL1        0.2456
     13 O           4.4678   -1.6340   18.8521 O.3     1  UNL1       -0.4699
     14 C          -0.4762    2.5158   21.1303 C.2     1  UNL1        0.4055
     15 O           0.8480    2.9974   21.6447 O.2     1  UNL1       -0.2261
     16 N          -0.5380    1.3328   20.2101 N.am    1  UNL1       -0.2499
     17 H          -1.4071    1.0167   19.8725 H       1  UNL1        0.1582
     18 C          -2.8852    3.3141   20.5739 C.3     1  UNL1        0.2574
     19 O          -1.7385    3.2171   21.5361 O.3     1  UNL1       -0.4304
     20 C           6.8830   -1.8795   21.7617 C.3     1  UNL1        0.1139
     21 C           6.1029   -1.5247   22.9927 C.ar    1  UNL1       -0.0029
     22 C           5.3554   -0.2259   23.0586 C.ar    1  UNL1       -0.0026
     23 C           4.5752    0.1288   24.2896 C.ar    1  UNL1       -0.0003
     24 C           4.5426   -0.8151   25.4549 C.ar    1  UNL1       -0.0000
     25 C           5.2901   -2.1140   25.3890 C.ar    1  UNL1       -0.0003
     26 C           6.0703   -2.4688   24.1580 C.ar    1  UNL1       -0.0026
     27 C           7.7878   -0.8643   21.1286 C.3     1  UNL1        0.0968
     28 N           7.3273   -0.0961   19.9253 N.3     1  UNL1       -0.2689
     29 C           6.4474    1.1186   19.9384 C.3     1  UNL1        0.0748
     30 C           6.2422    1.5577   18.5189 C.3     1  UNL1        0.0480
     31 C           6.9953    0.6144   17.6285 C.3     1  UNL1        0.1278
     32 O           7.0655    0.6814   16.1316 O.3     1  UNL1       -0.3830
     33 C           7.6660   -0.4078   18.4976 C.3     1  UNL1        0.1017
     34 H           7.6171   -0.0448   15.8009 H       1  UNL1        0.2104
@<TRIPOS>BOND
     1    18    19    1
     2    19    14    1
     3    14    15    2
     4    14    16   am
     5    16     5    1
     6     5     6   ar
     7     6     7   ar
     8     7     8   ar
     9     8     9   ar
    10     9    10   ar
    11     9    11    1
    12    11    12    1
    13    12     1    1
    14     1     2    2
    15     1     3   am
    16     3     4    1
    17     3    20    1
    18    20    27    1
    19    27    28    1
    20    28    29    1
    21    29    30    1
    22    30    31    1
    23    31    32    1
    24    31    33    1
    25    20    21    1
    26    21    22   ar
    27    22    23   ar
    28    23    24   ar
    29    24    25   ar
    30    25    26   ar
    31    12    13    1
    32    10     5   ar
    33    33    28    1
    34    26    21   ar
    35    13     8    1
    36    16    17    1
    37    32    34    1
@<TRIPOS>MOLECULE
*****
 34 37 0 0 0
SMALL
GASTEIGER

@<TRIPOS>ATOM
      1 C           4.6726   -3.6183   20.7111 C.2     1  UNL1        0.2665
      2 O           4.0735   -4.9433   20.3433 O.2     1  UNL1       -0.2710
      3 N           5.0700   -2.6505   19.6362 N.am    1  UNL1       -0.2714
      4 C           4.8684   -3.0078   18.1934 C.3     1  UNL1        0.1153
      5 C           6.1086   -2.5721   26.9117 C.ar    1  UNL1        0.0531
      6 C           4.9589   -1.6118   26.8346 C.ar    1  UNL1        0.0179
      7 C           4.2094   -1.4412   25.5465 C.ar    1  UNL1        0.0379
      8 C           4.6096   -2.2308   24.3356 C.ar    1  UNL1        0.1353
      9 C           5.7594   -3.1910   24.4128 C.ar    1  UNL1        0.0172
     10 C           6.5089   -3.3616   25.7008 C.ar    1  UNL1        0.0136
     11 C           5.9229   -3.8277   23.0644 C.3     1  UNL1        0.0826
     12 C           4.8742   -3.2609   22.1540 C.3     1  UNL1        0.2456
     13 O           4.0626   -2.2740   22.9396 O.3     1  UNL1       -0.4699
     14 C           6.8040   -4.0510   28.9314 C.2     1  UNL1        0.4055
     15 O           6.0002   -5.1888   28.3750 O.2     1  UNL1       -0.2261
     16 N           6.8581   -2.7427   28.1998 N.am    1  UNL1       -0.2499
     17 H           7.3856   -1.9959   28.5650 H       1  UNL1        0.1582
     18 C           6.8299   -4.1100   31.5287 C.3     1  UNL1        0.2574
     19 O           7.5535   -4.2216   30.2195 O.3     1  UNL1       -0.4304
     20 C           5.6692   -1.3254   20.0040 C.3     1  UNL1        0.1139
     21 C           6.8712   -1.2685   20.8995 C.ar    1  UNL1       -0.0029
     22 C           8.0424   -2.1693   20.6409 C.ar    1  UNL1       -0.0026
     23 C           9.2445   -2.1124   21.5363 C.ar    1  UNL1       -0.0003
     24 C           9.2754   -1.1547   22.6903 C.ar    1  UNL1       -0.0000
     25 C           8.1041   -0.2539   22.9490 C.ar    1  UNL1       -0.0003
     26 C           6.9021   -0.3108   22.0536 C.ar    1  UNL1       -0.0026
     27 C           5.0662   -0.0574   19.4765 C.3     1  UNL1        0.0968
     28 N           3.5776    0.0637   19.3363 N.3     1  UNL1       -0.2689
     29 C           2.8444    0.5790   18.1335 C.3     1  UNL1        0.0748
     30 C           1.3746    0.5245   18.4281 C.3     1  UNL1        0.0480
     31 C           1.1995   -0.0244   19.8130 C.3     1  UNL1        0.1278
     32 O          -0.1077   -0.2491   20.5136 O.3     1  UNL1       -0.3830
     33 C           2.5611   -0.3092   20.3744 C.3     1  UNL1        0.1017
     34 H           0.0576   -0.6117   21.3979 H       1  UNL1        0.2104
@<TRIPOS>BOND
     1    18    19    1
     2    19    14    1
     3    14    15    2
     4    14    16   am
     5    16     5    1
     6     5     6   ar
     7     6     7   ar
     8     7     8   ar
     9     8     9   ar
    10     9    10   ar
    11     9    11    1
    12    11    12    1
    13    12     1    1
    14     1     2    2
    15     1     3   am
    16     3     4    1
    17     3    20    1
    18    20    27    1
    19    27    28    1
    20    28    29    1
    21    29    30    1
    22    30    31    1
    23    31    32    1
    24    31    33    1
    25    20    21    1
    26    21    22   ar
    27    22    23   ar
    28    23    24   ar
    29    24    25   ar
    30    25    26   ar
    31    12    13    1
    32    10     5   ar
    33    33    28    1
    34    26    21   ar
    35    13     8    1
    36    16    17    1
    37    32    34    1
