@<TRIPOS>MOLECULE
*****
 29 31 0 0 0
SMALL
GASTEIGER

@<TRIPOS>ATOM
      1 C           5.0669   -0.5398   34.1392 C.ar    1  UNL1        0.0188
      2 C           6.5055   -0.3063   33.7842 C.ar    1  UNL1        0.0012
      3 C           7.2503   -1.3197   32.9667 C.ar    1  UNL1       -0.0042
      4 C           6.5566   -2.5666   32.5042 C.ar    1  UNL1       -0.0225
      5 C           5.1181   -2.8001   32.8592 C.ar    1  UNL1       -0.0042
      6 C           4.3733   -1.7867   33.6767 C.ar    1  UNL1        0.0012
      7 C           2.0876    3.5138   37.4090 C.3     1  UNL1        0.0539
      8 C           2.8324    2.5004   36.5915 C.ar    1  UNL1        0.0810
      9 N           2.8980    2.6419   35.0997 N.ar    1  UNL1       -0.2508
     10 C           3.6429    1.6285   34.2822 C.ar    1  UNL1        0.0765
     11 C           3.7084    1.7700   32.7903 C.3     1  UNL1        0.0537
     12 C           4.3221    0.4736   34.9566 C.ar    1  UNL1        0.0949
     13 N           4.2565    0.3321   36.4485 N.ar    1  UNL1       -0.2384
     14 C           3.5117    1.3455   37.2659 C.ar    1  UNL1        0.1476
     15 C           3.4461    1.2040   38.7578 C.2     1  UNL1        0.2617
     16 N           2.4334    0.2894   39.3807 N.am    1  UNL1       -0.3240
     17 O           4.3933    1.9770   39.6269 O.2     1  UNL1       -0.2687
     18 H           1.8117   -0.2179   38.8103 H       1  UNL1        0.1453
     19 H           2.3903    0.1966   40.3598 H       1  UNL1        0.1453
     20 C           7.3015   -3.5800   31.6868 C.3     1  UNL1        0.0223
     21 C           6.9114   -5.0270   31.7490 C.3     1  UNL1        0.0044
     22 C           7.6562   -6.0404   30.9315 C.3     1  UNL1        0.0007
     23 C           8.7912   -5.6068   30.0519 C.3     1  UNL1        0.0056
     24 C           9.1813   -4.1597   29.9897 C.3     1  UNL1        0.0007
     25 C           8.4364   -3.1463   30.8071 C.3     1  UNL1        0.0044
     26 C           9.5360   -6.6202   29.2344 C.3     1  UNL1        0.0417
     27 C           8.8115   -7.4266   28.1978 C.2     1  UNL1        0.0503
     28 O           9.1623   -8.8703   27.9905 O.co2   1  UNL1       -0.5492
     29 O           7.7361   -6.7896   27.3685 O.co2   1  UNL1       -0.5492
@<TRIPOS>UNITY_ATOM_ATTR
28 1
charge -1
@<TRIPOS>BOND
     1     7     8    1
     2     8     9   ar
     3     9    10   ar
     4    10    11    1
     5    10    12   ar
     6    12     1    1
     7     1     2   ar
     8     2     3   ar
     9     3     4   ar
    10    20     4    1
    11    20    21    1
    12    21    22    1
    13    22    23    1
    14    23    26    1
    15    26    27    1
    16    27    28   ar
    17    27    29   ar
    18    23    24    1
    19    24    25    1
    20     4     5   ar
    21     5     6   ar
    22    12    13   ar
    23    13    14   ar
    24    14    15    1
    25    15    16   am
    26    15    17    2
    27    14     8   ar
    28     6     1   ar
    29    25    20    1
    30    16    18    1
    31    16    19    1
@<TRIPOS>MOLECULE
*****
 29 31 0 0 0
SMALL
GASTEIGER

@<TRIPOS>ATOM
      1 C          -1.0902    3.2605   19.6876 C.ar    1  UNL1        0.0188
      2 C          -0.8277    2.2630   20.7766 C.ar    1  UNL1        0.0012
      3 C           0.2039    1.1920   20.5799 C.ar    1  UNL1       -0.0042
      4 C           0.9730    1.1185   19.2942 C.ar    1  UNL1       -0.0225
      5 C           0.7105    2.1160   18.2052 C.ar    1  UNL1       -0.0042
      6 C          -0.3212    3.1870   18.4019 C.ar    1  UNL1        0.0012
      7 C          -5.2168    7.5445   20.4743 C.3     1  UNL1        0.0539
      8 C          -4.1852    6.4735   20.2776 C.ar    1  UNL1        0.0810
      9 N          -2.7548    6.7331   20.6471 N.ar    1  UNL1       -0.2508
     10 C          -1.7231    5.6621   20.4504 C.ar    1  UNL1        0.0765
     11 C          -0.2926    5.9217   20.8199 C.3     1  UNL1        0.0537
     12 C          -2.1219    4.3315   19.8843 C.ar    1  UNL1        0.0949
     13 N          -3.5523    4.0720   19.5149 N.ar    1  UNL1       -0.2384
     14 C          -4.5839    5.1430   19.7115 C.ar    1  UNL1        0.1476
     15 C          -6.0144    4.8833   19.3421 C.2     1  UNL1        0.2617
     16 N          -6.9706    4.3554   20.3701 N.am    1  UNL1       -0.3240
     17 O          -6.4886    5.1517   17.9445 O.2     1  UNL1       -0.2687
     18 H          -6.6593    4.1793   21.2874 H       1  UNL1        0.1453
     19 H          -7.9094    4.1850   20.1276 H       1  UNL1        0.1453
     20 C           2.0047    0.0475   19.0976 C.3     1  UNL1        0.0223
     21 C           2.1312   -1.0644   20.0963 C.3     1  UNL1        0.0044
     22 C           3.1628   -2.1354   19.8996 C.3     1  UNL1        0.0007
     23 C           4.0679   -2.0945   18.7042 C.3     1  UNL1        0.0056
     24 C           3.9414   -0.9825   17.7055 C.3     1  UNL1        0.0007
     25 C           2.9098    0.0885   17.9022 C.3     1  UNL1        0.0044
     26 C           5.0996   -3.1655   18.5075 C.3     1  UNL1        0.0417
     27 C           5.1648   -4.3269   19.4545 C.2     1  UNL1        0.0503
     28 O           4.2060   -5.4709   19.3056 O.co2   1  UNL1       -0.5492
     29 O           6.1889   -4.3445   20.5503 O.co2   1  UNL1       -0.5492
@<TRIPOS>UNITY_ATOM_ATTR
28 1
charge -1
@<TRIPOS>BOND
     1     7     8    1
     2     8     9   ar
     3     9    10   ar
     4    10    11    1
     5    10    12   ar
     6    12     1    1
     7     1     2   ar
     8     2     3   ar
     9     3     4   ar
    10    20     4    1
    11    20    21    1
    12    21    22    1
    13    22    23    1
    14    23    26    1
    15    26    27    1
    16    27    28   ar
    17    27    29   ar
    18    23    24    1
    19    24    25    1
    20     4     5   ar
    21     5     6   ar
    22    12    13   ar
    23    13    14   ar
    24    14    15    1
    25    15    16   am
    26    15    17    2
    27    14     8   ar
    28     6     1   ar
    29    25    20    1
    30    16    18    1
    31    16    19    1
@<TRIPOS>MOLECULE
*****
 29 31 0 0 0
SMALL
GASTEIGER

@<TRIPOS>ATOM
      1 C           0.6442    1.4094   20.6540 C.ar    1  UNL1        0.0188
      2 C           0.8484    0.0740   20.0022 C.ar    1  UNL1        0.0012
      3 C           1.8278   -0.9023   20.5834 C.ar    1  UNL1       -0.0042
      4 C           2.6028   -0.5432   21.8164 C.ar    1  UNL1       -0.0225
      5 C           2.3985    0.7923   22.4681 C.ar    1  UNL1       -0.0042
      6 C           1.4192    1.7685   21.8869 C.ar    1  UNL1        0.0012
      7 C          -3.2732    5.3145   18.3291 C.3     1  UNL1        0.0539
      8 C          -2.2938    4.3382   18.9103 C.ar    1  UNL1        0.0810
      9 N          -0.9240    4.2050   18.3140 N.ar    1  UNL1       -0.2508
     10 C           0.0554    3.2288   18.8952 C.ar    1  UNL1        0.0765
     11 C           1.4253    3.0956   18.2988 C.3     1  UNL1        0.0537
     12 C          -0.3352    2.3857   20.0727 C.ar    1  UNL1        0.0949
     13 N          -1.7050    2.5189   20.6691 N.ar    1  UNL1       -0.2384
     14 C          -2.6844    3.4951   20.0879 C.ar    1  UNL1        0.1476
     15 C          -4.0543    3.6283   20.6843 C.2     1  UNL1        0.2617
     16 N          -5.2151    2.9077   20.0652 N.am    1  UNL1       -0.3240
     17 O          -4.2634    4.4821   21.8998 O.2     1  UNL1       -0.2687
     18 H          -5.0779    2.3474   19.2674 H       1  UNL1        0.1453
     19 H          -6.1142    2.9951   20.4566 H       1  UNL1        0.1453
     20 C           3.5821   -1.5194   22.3976 C.3     1  UNL1        0.0223
     21 C           4.1166   -2.6382   21.5534 C.3     1  UNL1        0.0044
     22 C           5.0960   -3.6145   22.1346 C.3     1  UNL1        0.0007
     23 C           5.5408   -3.4720   23.5600 C.3     1  UNL1        0.0056
     24 C           5.0063   -2.3533   24.4041 C.3     1  UNL1        0.0007
     25 C           4.0270   -1.3770   23.8229 C.3     1  UNL1        0.0044
     26 C           6.5201   -4.4483   24.1412 C.3     1  UNL1        0.0417
     27 C           7.7517   -4.8234   23.3714 C.2     1  UNL1        0.0503
     28 O           8.0391   -6.2650   23.0723 O.co2   1  UNL1       -0.5492
     29 O           8.6959   -3.7571   22.9009 O.co2   1  UNL1       -0.5492
@<TRIPOS>UNITY_ATOM_ATTR
28 1
charge -1
@<TRIPOS>BOND
     1     7     8    1
     2     8     9   ar
     3     9    10   ar
     4    10    11    1
     5    10    12   ar
     6    12     1    1
     7     1     2   ar
     8     2     3   ar
     9     3     4   ar
    10    20     4    1
    11    20    21    1
    12    21    22    1
    13    22    23    1
    14    23    26    1
    15    26    27    1
    16    27    28   ar
    17    27    29   ar
    18    23    24    1
    19    24    25    1
    20     4     5   ar
    21     5     6   ar
    22    12    13   ar
    23    13    14   ar
    24    14    15    1
    25    15    16   am
    26    15    17    2
    27    14     8   ar
    28     6     1   ar
    29    25    20    1
    30    16    18    1
    31    16    19    1
@<TRIPOS>MOLECULE
*****
 29 31 0 0 0
SMALL
GASTEIGER

@<TRIPOS>ATOM
      1 C          -0.8035    2.9201   21.8312 C.ar    1  UNL1        0.0188
      2 C          -0.8155    2.5626   20.3745 C.ar    1  UNL1        0.0012
      3 C           0.1668    1.5633   19.8393 C.ar    1  UNL1       -0.0042
      4 C           1.1611    0.9213   20.7608 C.ar    1  UNL1       -0.0225
      5 C           1.1731    1.2788   22.2175 C.ar    1  UNL1       -0.0042
      6 C           0.1908    2.2782   22.7527 C.ar    1  UNL1        0.0012
      7 C          -4.7326    6.9175   23.9718 C.3     1  UNL1        0.0539
      8 C          -3.7503    5.9181   23.4367 C.ar    1  UNL1        0.0810
      9 N          -2.4707    6.3861   22.8094 N.ar    1  UNL1       -0.2508
     10 C          -1.4884    5.3867   22.2743 C.ar    1  UNL1        0.0765
     11 C          -0.2087    5.8548   21.6470 C.3     1  UNL1        0.0537
     12 C          -1.7858    3.9194   22.3663 C.ar    1  UNL1        0.0949
     13 N          -3.0654    3.4515   22.9936 N.ar    1  UNL1       -0.2384
     14 C          -4.0477    4.4508   23.5287 C.ar    1  UNL1        0.1476
     15 C          -5.3274    3.9828   24.1560 C.2     1  UNL1        0.2617
     16 N          -6.5628    3.8345   23.3184 N.am    1  UNL1       -0.3240
     17 O          -5.3716    3.6631   25.6209 O.2     1  UNL1       -0.2687
     18 H          -6.5338    4.0443   22.3570 H       1  UNL1        0.1453
     19 H          -7.4027    3.5273   23.7301 H       1  UNL1        0.1453
     20 C           2.1434   -0.0780   20.2257 C.3     1  UNL1        0.0223
     21 C           2.6213    0.0254   18.8077 C.3     1  UNL1        0.0044
     22 C           3.6036   -0.9740   18.2725 C.3     1  UNL1        0.0007
     23 C           4.1080   -2.0767   19.1554 C.3     1  UNL1        0.0056
     24 C           3.6300   -2.1801   20.5734 C.3     1  UNL1        0.0007
     25 C           2.6478   -1.1808   21.1085 C.3     1  UNL1        0.0044
     26 C           5.0902   -3.0761   18.6202 C.3     1  UNL1        0.0417
     27 C           5.3549   -4.3455   19.3742 C.2     1  UNL1        0.0503
     28 O           6.3505   -4.3577   20.4961 O.co2   1  UNL1       -0.5492
     29 O           4.6240   -5.6026   19.0064 O.co2   1  UNL1       -0.5492
@<TRIPOS>UNITY_ATOM_ATTR
28 1
charge -1
@<TRIPOS>BOND
     1     7     8    1
     2     8     9   ar
     3     9    10   ar
     4    10    11    1
     5    10    12   ar
     6    12     1    1
     7     1     2   ar
     8     2     3   ar
     9     3     4   ar
    10    20     4    1
    11    20    21    1
    12    21    22    1
    13    22    23    1
    14    23    26    1
    15    26    27    1
    16    27    28   ar
    17    27    29   ar
    18    23    24    1
    19    24    25    1
    20     4     5   ar
    21     5     6   ar
    22    12    13   ar
    23    13    14   ar
    24    14    15    1
    25    15    16   am
    26    15    17    2
    27    14     8   ar
    28     6     1   ar
    29    25    20    1
    30    16    18    1
    31    16    19    1
@<TRIPOS>MOLECULE
*****
 29 31 0 0 0
SMALL
GASTEIGER

@<TRIPOS>ATOM
      1 C           2.0610    0.9388   26.7065 C.ar    1  UNL1        0.0188
      2 C           3.1633   -0.0768   26.6480 C.ar    1  UNL1        0.0012
      3 C           3.5135   -0.7292   25.3435 C.ar    1  UNL1       -0.0042
      4 C           2.7615   -0.3661   24.0976 C.ar    1  UNL1       -0.0225
      5 C           1.6592    0.6495   24.1561 C.ar    1  UNL1       -0.0042
      6 C           1.3089    1.3019   25.4605 C.ar    1  UNL1        0.0012
      7 C           0.6599    3.5485   31.9244 C.3     1  UNL1        0.0539
      8 C           1.0102    2.8961   30.6199 C.ar    1  UNL1        0.0810
      9 N           0.2436    1.6944   30.1527 N.ar    1  UNL1       -0.2508
     10 C           0.5939    1.0420   28.8482 C.ar    1  UNL1        0.0765
     11 C          -0.1728   -0.1597   28.3810 C.3     1  UNL1        0.0537
     12 C           1.7107    1.5912   28.0110 C.ar    1  UNL1        0.0949
     13 N           2.4773    2.7929   28.4782 N.ar    1  UNL1       -0.2384
     14 C           2.1270    3.4453   29.7827 C.ar    1  UNL1        0.1476
     15 C           2.8936    4.6470   30.2499 C.2     1  UNL1        0.2617
     16 N           2.4138    6.0248   29.9015 N.am    1  UNL1       -0.3240
     17 O           4.1401    4.4709   31.0657 O.2     1  UNL1       -0.2687
     18 H           1.5958    6.1404   29.3661 H       1  UNL1        0.1453
     19 H           2.9170    6.8135   30.2081 H       1  UNL1        0.1453
     20 C           3.1118   -1.0185   22.7931 C.3     1  UNL1        0.0223
     21 C           4.0878   -2.1570   22.7622 C.3     1  UNL1        0.0044
     22 C           4.4381   -2.8094   21.4577 C.3     1  UNL1        0.0007
     23 C           3.8123   -2.3233   20.1841 C.3     1  UNL1        0.0056
     24 C           2.8362   -1.1848   20.2151 C.3     1  UNL1        0.0007
     25 C           2.4860   -0.5324   21.5195 C.3     1  UNL1        0.0044
     26 C           4.1626   -2.9758   18.8797 C.3     1  UNL1        0.0417
     27 C           4.9640   -2.2258   17.8574 C.2     1  UNL1        0.0503
     28 O           4.2950   -1.2146   16.9742 O.co2   1  UNL1       -0.5492
     29 O           6.4345   -2.4870   17.7182 O.co2   1  UNL1       -0.5492
@<TRIPOS>UNITY_ATOM_ATTR
28 1
charge -1
@<TRIPOS>BOND
     1     7     8    1
     2     8     9   ar
     3     9    10   ar
     4    10    11    1
     5    10    12   ar
     6    12     1    1
     7     1     2   ar
     8     2     3   ar
     9     3     4   ar
    10    20     4    1
    11    20    21    1
    12    21    22    1
    13    22    23    1
    14    23    26    1
    15    26    27    1
    16    27    28   ar
    17    27    29   ar
    18    23    24    1
    19    24    25    1
    20     4     5   ar
    21     5     6   ar
    22    12    13   ar
    23    13    14   ar
    24    14    15    1
    25    15    16   am
    26    15    17    2
    27    14     8   ar
    28     6     1   ar
    29    25    20    1
    30    16    18    1
    31    16    19    1
@<TRIPOS>MOLECULE
*****
 29 31 0 0 0
SMALL
GASTEIGER

@<TRIPOS>ATOM
      1 C           5.3847    1.9744   37.9804 C.ar    1  UNL1        0.0188
      2 C           6.5096    2.2169   37.0183 C.ar    1  UNL1        0.0012
      3 C           6.6872    1.3186   35.8302 C.ar    1  UNL1       -0.0042
      4 C           5.7398    0.1778   35.6042 C.ar    1  UNL1       -0.0225
      5 C           4.6149   -0.0646   36.5663 C.ar    1  UNL1       -0.0042
      6 C           4.4374    0.8336   37.7544 C.ar    1  UNL1        0.0012
      7 C           4.6747    5.5674   42.7328 C.3     1  UNL1        0.0539
      8 C           4.8522    4.6692   41.5447 C.ar    1  UNL1        0.0810
      9 N           3.8742    4.7259   40.4088 N.ar    1  UNL1       -0.2508
     10 C           4.0517    3.8276   39.2207 C.ar    1  UNL1        0.0765
     11 C           3.0737    3.8844   38.0848 C.3     1  UNL1        0.0537
     12 C           5.2072    2.8726   39.1685 C.ar    1  UNL1        0.0949
     13 N           6.1852    2.8159   40.3044 N.ar    1  UNL1       -0.2384
     14 C           6.0077    3.7142   41.4925 C.ar    1  UNL1        0.1476
     15 C           6.9857    3.6574   42.6284 C.2     1  UNL1        0.2617
     16 N           8.1067    4.6513   42.7033 N.am    1  UNL1       -0.3240
     17 O           6.8428    2.6068   43.6894 O.2     1  UNL1       -0.2687
     18 H           8.2005    5.3409   42.0070 H       1  UNL1        0.1453
     19 H           8.7486    4.6140   43.4489 H       1  UNL1        0.1453
     20 C           5.9173   -0.7204   34.4161 C.3     1  UNL1        0.0223
     21 C           7.2114   -0.7140   33.6577 C.3     1  UNL1        0.0044
     22 C           7.3889   -1.6122   32.4695 C.3     1  UNL1        0.0007
     23 C           6.2723   -2.5169   32.0398 C.3     1  UNL1        0.0056
     24 C           4.9782   -2.5234   32.7982 C.3     1  UNL1        0.0007
     25 C           4.8007   -1.6251   33.9863 C.3     1  UNL1        0.0044
     26 C           6.4498   -3.4152   30.8517 C.3     1  UNL1        0.0417
     27 C           7.2815   -4.6580   30.9687 C.2     1  UNL1        0.0503
     28 O           6.7063   -5.9855   30.5725 O.co2   1  UNL1       -0.5492
     29 O           8.6885   -4.5734   31.4819 O.co2   1  UNL1       -0.5492
@<TRIPOS>UNITY_ATOM_ATTR
28 1
charge -1
@<TRIPOS>BOND
     1     7     8    1
     2     8     9   ar
     3     9    10   ar
     4    10    11    1
     5    10    12   ar
     6    12     1    1
     7     1     2   ar
     8     2     3   ar
     9     3     4   ar
    10    20     4    1
    11    20    21    1
    12    21    22    1
    13    22    23    1
    14    23    26    1
    15    26    27    1
    16    27    28   ar
    17    27    29   ar
    18    23    24    1
    19    24    25    1
    20     4     5   ar
    21     5     6   ar
    22    12    13   ar
    23    13    14   ar
    24    14    15    1
    25    15    16   am
    26    15    17    2
    27    14     8   ar
    28     6     1   ar
    29    25    20    1
    30    16    18    1
    31    16    19    1
@<TRIPOS>MOLECULE
*****
 29 31 0 0 0
SMALL
GASTEIGER

@<TRIPOS>ATOM
      1 C          -0.8029    2.6950   26.4836 C.ar    1  UNL1        0.0188
      2 C          -0.1666    3.6640   27.4355 C.ar    1  UNL1        0.0012
      3 C           0.6241    3.1569   28.6050 C.ar    1  UNL1       -0.0042
      4 C           0.7784    1.6809   28.8227 C.ar    1  UNL1       -0.0225
      5 C           0.1420    0.7119   27.8709 C.ar    1  UNL1       -0.0042
      6 C          -0.6486    1.2189   26.7013 C.ar    1  UNL1        0.0012
      7 C          -3.9655    4.7231   21.8055 C.3     1  UNL1        0.0539
      8 C          -3.1748    4.2161   22.9750 C.ar    1  UNL1        0.0810
      9 N          -3.7668    4.2521   24.3528 N.ar    1  UNL1       -0.2508
     10 C          -2.9762    3.7451   25.5223 C.ar    1  UNL1        0.0765
     11 C          -3.5682    3.7811   26.9001 C.3     1  UNL1        0.0537
     12 C          -1.5935    3.2020   25.3141 C.ar    1  UNL1        0.0949
     13 N          -1.0016    3.1659   23.9363 N.ar    1  UNL1       -0.2384
     14 C          -1.7922    3.6730   22.7668 C.ar    1  UNL1        0.1476
     15 C          -1.2002    3.6369   21.3890 C.2     1  UNL1        0.2617
     16 N          -1.2275    2.3653   20.5940 N.am    1  UNL1       -0.3240
     17 O          -0.5808    4.8726   20.8063 O.2     1  UNL1       -0.2687
     18 H          -1.6340    1.5543   20.9765 H       1  UNL1        0.1453
     19 H          -0.8390    2.3416   19.6897 H       1  UNL1        0.1453
     20 C           1.5690    1.1739   29.9922 C.3     1  UNL1        0.0223
     21 C           2.2123   -0.1799   29.9324 C.3     1  UNL1        0.0044
     22 C           3.0029   -0.6869   31.1019 C.3     1  UNL1        0.0007
     23 C           3.1503    0.1598   32.3313 C.3     1  UNL1        0.0056
     24 C           2.5070    1.5135   32.3911 C.3     1  UNL1        0.0007
     25 C           1.7164    2.0205   31.2216 C.3     1  UNL1        0.0044
     26 C           3.9409   -0.3472   33.5008 C.3     1  UNL1        0.0417
     27 C           4.5080   -1.7357   33.4774 C.2     1  UNL1        0.0503
     28 O           5.9227   -1.9606   33.0321 O.co2   1  UNL1       -0.5492
     29 O           3.6606   -2.8992   33.8993 O.co2   1  UNL1       -0.5492
@<TRIPOS>UNITY_ATOM_ATTR
28 1
charge -1
@<TRIPOS>BOND
     1     7     8    1
     2     8     9   ar
     3     9    10   ar
     4    10    11    1
     5    10    12   ar
     6    12     1    1
     7     1     2   ar
     8     2     3   ar
     9     3     4   ar
    10    20     4    1
    11    20    21    1
    12    21    22    1
    13    22    23    1
    14    23    26    1
    15    26    27    1
    16    27    28   ar
    17    27    29   ar
    18    23    24    1
    19    24    25    1
    20     4     5   ar
    21     5     6   ar
    22    12    13   ar
    23    13    14   ar
    24    14    15    1
    25    15    16   am
    26    15    17    2
    27    14     8   ar
    28     6     1   ar
    29    25    20    1
    30    16    18    1
    31    16    19    1
@<TRIPOS>MOLECULE
*****
 29 31 0 0 0
SMALL
GASTEIGER

@<TRIPOS>ATOM
      1 C           3.7969   -1.0484   20.1235 C.ar    1  UNL1        0.0188
      2 C           3.7638   -0.2405   18.8601 C.ar    1  UNL1        0.0012
      3 C           2.6466    0.7314   18.6204 C.ar    1  UNL1       -0.0042
      4 C           1.5626    0.8953   19.6441 C.ar    1  UNL1       -0.0225
      5 C           1.5957    0.0874   20.9074 C.ar    1  UNL1       -0.0042
      6 C           2.7129   -0.8844   21.1472 C.ar    1  UNL1        0.0012
      7 C           8.2656   -4.9357   21.0823 C.3     1  UNL1        0.0539
      8 C           7.1485   -3.9639   20.8426 C.ar    1  UNL1        0.0810
      9 N           5.9075   -4.4092   20.1274 N.ar    1  UNL1       -0.2508
     10 C           4.7903   -3.4374   19.8877 C.ar    1  UNL1        0.0765
     11 C           3.5493   -3.8828   19.1724 C.3     1  UNL1        0.0537
     12 C           4.9141   -2.0202   20.3632 C.ar    1  UNL1        0.0949
     13 N           6.1551   -1.5749   21.0785 N.ar    1  UNL1       -0.2384
     14 C           7.2722   -2.5467   21.3182 C.ar    1  UNL1        0.1476
     15 C           8.5132   -2.1013   22.0335 C.2     1  UNL1        0.2617
     16 N           9.5358   -1.2713   21.3155 N.am    1  UNL1       -0.3240
     17 O           8.7316   -2.4858   23.4668 O.2     1  UNL1       -0.2687
     18 H           9.3924   -1.0190   20.3747 H       1  UNL1        0.1453
     19 H          10.3503   -0.9790   21.7849 H       1  UNL1        0.1453
     20 C           0.4454    1.8671   19.4044 C.3     1  UNL1        0.0223
     21 C           0.3593    2.6042   18.1008 C.3     1  UNL1        0.0044
     22 C          -0.7579    3.5760   17.8611 C.3     1  UNL1        0.0007
     23 C          -1.7889    3.8108   18.9249 C.3     1  UNL1        0.0056
     24 C          -1.7028    3.0738   20.2285 C.3     1  UNL1        0.0007
     25 C          -0.5856    2.1019   20.4682 C.3     1  UNL1        0.0044
     26 C          -2.9061    4.7827   18.6852 C.3     1  UNL1        0.0417
     27 C          -4.3310    4.3406   18.8405 C.2     1  UNL1        0.0503
     28 O          -5.1819    4.9213   19.9308 O.co2   1  UNL1       -0.5492
     29 O          -4.9050    3.3177   17.9055 O.co2   1  UNL1       -0.5492
@<TRIPOS>UNITY_ATOM_ATTR
28 1
charge -1
@<TRIPOS>BOND
     1     7     8    1
     2     8     9   ar
     3     9    10   ar
     4    10    11    1
     5    10    12   ar
     6    12     1    1
     7     1     2   ar
     8     2     3   ar
     9     3     4   ar
    10    20     4    1
    11    20    21    1
    12    21    22    1
    13    22    23    1
    14    23    26    1
    15    26    27    1
    16    27    28   ar
    17    27    29   ar
    18    23    24    1
    19    24    25    1
    20     4     5   ar
    21     5     6   ar
    22    12    13   ar
    23    13    14   ar
    24    14    15    1
    25    15    16   am
    26    15    17    2
    27    14     8   ar
    28     6     1   ar
    29    25    20    1
    30    16    18    1
    31    16    19    1
@<TRIPOS>MOLECULE
*****
 29 31 0 0 0
SMALL
GASTEIGER

@<TRIPOS>ATOM
      1 C           0.5258    1.5150   20.5448 C.ar    1  UNL1        0.0188
      2 C           0.3361    0.0931   20.1067 C.ar    1  UNL1        0.0012
      3 C           1.4800   -0.8742   20.1831 C.ar    1  UNL1       -0.0042
      4 C           2.8136   -0.4195   20.6976 C.ar    1  UNL1       -0.0225
      5 C           3.0033    1.0024   21.1357 C.ar    1  UNL1       -0.0042
      6 C           1.8594    1.9697   21.0593 C.ar    1  UNL1        0.0012
      7 C          -4.0499    5.3842   20.2392 C.3     1  UNL1        0.0539
      8 C          -2.9060    4.4169   20.3156 C.ar    1  UNL1        0.0810
      9 N          -1.9605    4.2806   19.1591 N.ar    1  UNL1       -0.2508
     10 C          -0.8166    3.3133   19.2355 C.ar    1  UNL1        0.0765
     11 C           0.1289    3.1770   18.0789 C.3     1  UNL1        0.0537
     12 C          -0.6181    2.4823   20.4684 C.ar    1  UNL1        0.0949
     13 N          -1.5636    2.6186   21.6249 N.ar    1  UNL1       -0.2384
     14 C          -2.7075    3.5859   21.5485 C.ar    1  UNL1        0.1476
     15 C          -3.6530    3.7222   22.7050 C.2     1  UNL1        0.2617
     16 N          -4.8692    2.8481   22.7865 N.am    1  UNL1       -0.3240
     17 O          -3.3822    4.7326   23.7800 O.2     1  UNL1       -0.2687
     18 H          -5.0469    2.1849   22.0809 H       1  UNL1        0.1453
     19 H          -5.4897    2.9375   23.5456 H       1  UNL1        0.1453
     20 C           3.9575   -1.3868   20.7740 C.3     1  UNL1        0.0223
     21 C           5.0966   -1.2794   19.8041 C.3     1  UNL1        0.0044
     22 C           6.2405   -2.2466   19.8805 C.3     1  UNL1        0.0007
     23 C           6.2453   -3.3214   20.9269 C.3     1  UNL1        0.0056
     24 C           5.1061   -3.4289   21.8968 C.3     1  UNL1        0.0007
     25 C           3.9622   -2.4616   21.8204 C.3     1  UNL1        0.0044
     26 C           7.3892   -4.2887   21.0033 C.3     1  UNL1        0.0417
     27 C           8.0465   -4.5702   22.3218 C.2     1  UNL1        0.0503
     28 O           7.6611   -5.7889   23.1070 O.co2   1  UNL1       -0.5492
     29 O           9.0893   -3.6332   22.8552 O.co2   1  UNL1       -0.5492
@<TRIPOS>UNITY_ATOM_ATTR
28 1
charge -1
@<TRIPOS>BOND
     1     7     8    1
     2     8     9   ar
     3     9    10   ar
     4    10    11    1
     5    10    12   ar
     6    12     1    1
     7     1     2   ar
     8     2     3   ar
     9     3     4   ar
    10    20     4    1
    11    20    21    1
    12    21    22    1
    13    22    23    1
    14    23    26    1
    15    26    27    1
    16    27    28   ar
    17    27    29   ar
    18    23    24    1
    19    24    25    1
    20     4     5   ar
    21     5     6   ar
    22    12    13   ar
    23    13    14   ar
    24    14    15    1
    25    15    16   am
    26    15    17    2
    27    14     8   ar
    28     6     1   ar
    29    25    20    1
    30    16    18    1
    31    16    19    1
