@<TRIPOS>MOLECULE
*****
 21 23 0 0 0
SMALL
GASTEIGER

@<TRIPOS>ATOM
      1 C          -7.9305  -18.2183   21.9276 C.3     1  UNL1        0.0644
      2 C          -9.0559  -19.1103   21.4939 C.3     1  UNL1        0.0315
      3 C         -10.3419  -18.3643   21.6932 C.ar    1  UNL1       -0.0226
      4 C         -11.7711  -18.7422   21.4396 C.ar    1  UNL1       -0.0045
      5 C         -12.8698  -17.7672   21.7429 C.ar    1  UNL1       -0.0003
      6 C         -12.5393  -16.4142   22.2998 C.ar    1  UNL1       -0.0002
      7 C         -11.1101  -16.0362   22.5534 C.ar    1  UNL1       -0.0011
      8 C         -10.0114  -17.0113   22.2501 C.ar    1  UNL1        0.0133
      9 C          -8.5211  -16.9211   22.3949 C.3     1  UNL1        0.1894
     10 C          -6.4710  -18.5631   21.8989 C.3     1  UNL1        0.0729
     11 C          -4.4065  -19.3389   20.5257 C.3     1  UNL1        0.0859
     12 N          -5.7545  -18.6838   20.5867 N.3     1  UNL1       -0.2962
     13 H          -6.3667  -19.2113   19.9644 H       1  UNL1        0.1233
     14 O          -7.7557  -15.7408   22.9157 O.3     1  UNL1       -0.4750
     15 C          -7.4554  -15.6289   24.3810 C.ar    1  UNL1        0.1348
     16 C          -8.5778  -15.5723   25.3745 C.ar    1  UNL1        0.0366
     17 C          -8.2776  -15.4603   26.8399 C.ar    1  UNL1        0.0031
     18 C          -6.8548  -15.4050   27.3118 C.ar    1  UNL1       -0.0001
     19 C          -5.7324  -15.4616   26.3183 C.ar    1  UNL1       -0.0013
     20 C          -6.0327  -15.5735   24.8530 C.ar    1  UNL1        0.0121
     21 C          -4.9102  -15.6302   23.8596 C.3     1  UNL1        0.0342
@<TRIPOS>BOND
     1    11    12    1
     2    12    10    1
     3     1    10    1
     4     1     2    1
     5     2     3    1
     6     3     4   ar
     7     4     5   ar
     8     5     6   ar
     9     6     7   ar
    10     7     8   ar
    11     8     9    1
    12     9    14    1
    13    14    15    1
    14    15    16   ar
    15    16    17   ar
    16    17    18   ar
    17    18    19   ar
    18    19    20   ar
    19    20    21    1
    20     9     1    1
    21    20    15   ar
    22     8     3   ar
    23    12    13    1
@<TRIPOS>MOLECULE
*****
 21 23 0 0 0
SMALL
GASTEIGER

@<TRIPOS>ATOM
      1 C          -6.6903  -19.6358   20.2393 C.3     1  UNL1        0.0644
      2 C          -5.3366  -20.2088   19.9406 C.3     1  UNL1        0.0315
      3 C          -4.3557  -19.6062   20.9022 C.ar    1  UNL1       -0.0226
      4 C          -2.8784  -19.7961   21.0800 C.ar    1  UNL1       -0.0045
      5 C          -2.1487  -19.0407   22.1509 C.ar    1  UNL1       -0.0003
      6 C          -2.8962  -18.0954   23.0440 C.ar    1  UNL1       -0.0002
      7 C          -4.3734  -17.9054   22.8662 C.ar    1  UNL1       -0.0011
      8 C          -5.1032  -18.6608   21.7953 C.ar    1  UNL1        0.0133
      9 C          -6.5460  -18.6791   21.3856 C.3     1  UNL1        0.1894
     10 C          -7.9645  -19.9623   19.5184 C.3     1  UNL1        0.0729
     11 C         -10.4671  -19.3469   19.8477 C.3     1  UNL1        0.0859
     12 N          -9.0727  -18.9531   19.4596 N.3     1  UNL1       -0.2962
     13 H          -8.8028  -18.1835   20.0721 H       1  UNL1        0.1233
     14 O          -7.6506  -17.8809   22.0122 O.3     1  UNL1       -0.4750
     15 C          -8.5348  -18.5085   23.0486 C.ar    1  UNL1        0.1348
     16 C          -8.6941  -19.9994   23.0953 C.ar    1  UNL1        0.0366
     17 C          -9.5783  -20.6271   24.1317 C.ar    1  UNL1        0.0031
     18 C         -10.3032  -19.7640   25.1215 C.ar    1  UNL1       -0.0001
     19 C         -10.1439  -18.2732   25.0747 C.ar    1  UNL1       -0.0013
     20 C          -9.2597  -17.6455   24.0383 C.ar    1  UNL1        0.0121
     21 C          -9.1005  -16.1547   23.9916 C.3     1  UNL1        0.0342
@<TRIPOS>BOND
     1    11    12    1
     2    12    10    1
     3     1    10    1
     4     1     2    1
     5     2     3    1
     6     3     4   ar
     7     4     5   ar
     8     5     6   ar
     9     6     7   ar
    10     7     8   ar
    11     8     9    1
    12     9    14    1
    13    14    15    1
    14    15    16   ar
    15    16    17   ar
    16    17    18   ar
    17    18    19   ar
    18    19    20   ar
    19    20    21    1
    20     9     1    1
    21    20    15   ar
    22     8     3   ar
    23    12    13    1
@<TRIPOS>MOLECULE
*****
 21 23 0 0 0
SMALL
GASTEIGER

@<TRIPOS>ATOM
      1 C          -5.6147  -16.4745   23.8000 C.3     1  UNL1        0.0644
      2 C          -4.5469  -17.4370   23.3719 C.3     1  UNL1        0.0315
      3 C          -5.1594  -18.4110   22.4096 C.ar    1  UNL1       -0.0226
      4 C          -4.5869  -19.5796   21.6636 C.ar    1  UNL1       -0.0045
      5 C          -5.4609  -20.3877   20.7508 C.ar    1  UNL1       -0.0003
      6 C          -6.9073  -20.0272   20.5841 C.ar    1  UNL1       -0.0002
      7 C          -7.4798  -18.8586   21.3301 C.ar    1  UNL1       -0.0011
      8 C          -6.6058  -18.0505   22.2428 C.ar    1  UNL1        0.0133
      9 C          -6.8872  -16.8536   23.1021 C.3     1  UNL1        0.1894
     10 C          -5.4407  -15.3332   24.7577 C.3     1  UNL1        0.0729
     11 C          -7.2630  -15.4996   26.6019 C.3     1  UNL1        0.0859
     12 N          -6.6330  -14.7563   25.4615 N.3     1  UNL1       -0.2962
     13 H          -6.3489  -13.8463   25.8243 H       1  UNL1        0.1233
     14 O          -8.2091  -16.1581   23.2395 O.3     1  UNL1       -0.4750
     15 C          -9.4632  -16.9602   23.4229 C.ar    1  UNL1        0.1348
     16 C          -9.5937  -17.8916   24.5915 C.ar    1  UNL1        0.0366
     17 C         -10.8478  -18.6937   24.7750 C.ar    1  UNL1        0.0031
     18 C         -11.9716  -18.5645   23.7898 C.ar    1  UNL1       -0.0001
     19 C         -11.8411  -17.6332   22.6213 C.ar    1  UNL1       -0.0013
     20 C         -10.5870  -16.8310   22.4378 C.ar    1  UNL1        0.0121
     21 C         -10.4567  -15.8997   21.2692 C.3     1  UNL1        0.0342
@<TRIPOS>BOND
     1    11    12    1
     2    12    10    1
     3     1    10    1
     4     1     2    1
     5     2     3    1
     6     3     4   ar
     7     4     5   ar
     8     5     6   ar
     9     6     7   ar
    10     7     8   ar
    11     8     9    1
    12     9    14    1
    13    14    15    1
    14    15    16   ar
    15    16    17   ar
    16    17    18   ar
    17    18    19   ar
    18    19    20   ar
    19    20    21    1
    20     9     1    1
    21    20    15   ar
    22     8     3   ar
    23    12    13    1
@<TRIPOS>MOLECULE
*****
 21 23 0 0 0
SMALL
GASTEIGER

@<TRIPOS>ATOM
      1 C          -9.1761  -17.7651   21.6192 C.3     1  UNL1        0.0644
      2 C          -8.8418  -19.0940   21.0090 C.3     1  UNL1        0.0315
      3 C          -7.3922  -19.3741   21.2736 C.ar    1  UNL1       -0.0226
      4 C          -6.5111  -20.5322   20.9099 C.ar    1  UNL1       -0.0045
      5 C          -5.0682  -20.5346   21.3199 C.ar    1  UNL1       -0.0003
      6 C          -4.5065  -19.3788   22.0936 C.ar    1  UNL1       -0.0002
      7 C          -5.3876  -18.2206   22.4572 C.ar    1  UNL1       -0.0011
      8 C          -6.8304  -18.2183   22.0472 C.ar    1  UNL1        0.0133
      9 C          -7.9329  -17.2239   22.2608 C.3     1  UNL1        0.1894
     10 C         -10.5178  -17.0950   21.5924 C.3     1  UNL1        0.0729
     11 C         -11.5504  -15.9140   19.5215 C.3     1  UNL1        0.0859
     12 N         -10.7216  -15.8570   20.7704 N.3     1  UNL1       -0.2962
     13 H         -11.1572  -15.1662   21.3816 H       1  UNL1        0.1233
     14 O          -7.8133  -15.9176   22.9883 O.3     1  UNL1       -0.4750
     15 C          -7.5227  -15.9024   24.4598 C.ar    1  UNL1        0.1348
     16 C          -8.6009  -16.2561   25.4409 C.ar    1  UNL1        0.0366
     17 C          -8.3103  -16.2410   26.9124 C.ar    1  UNL1        0.0031
     18 C          -6.9415  -15.8721   27.4028 C.ar    1  UNL1       -0.0001
     19 C          -5.8634  -15.5185   26.4218 C.ar    1  UNL1       -0.0013
     20 C          -6.1540  -15.5336   24.9503 C.ar    1  UNL1        0.0121
     21 C          -5.0758  -15.1799   23.9693 C.3     1  UNL1        0.0342
@<TRIPOS>BOND
     1    11    12    1
     2    12    10    1
     3     1    10    1
     4     1     2    1
     5     2     3    1
     6     3     4   ar
     7     4     5   ar
     8     5     6   ar
     9     6     7   ar
    10     7     8   ar
    11     8     9    1
    12     9    14    1
    13    14    15    1
    14    15    16   ar
    15    16    17   ar
    16    17    18   ar
    17    18    19   ar
    18    19    20   ar
    19    20    21    1
    20     9     1    1
    21    20    15   ar
    22     8     3   ar
    23    12    13    1
@<TRIPOS>MOLECULE
*****
 21 23 0 0 0
SMALL
GASTEIGER

@<TRIPOS>ATOM
      1 C          -7.1975  -18.8901   21.8274 C.3     1  UNL1        0.0644
      2 C          -6.1772  -19.9307   21.4723 C.3     1  UNL1        0.0315
      3 C          -4.8225  -19.3901   21.8221 C.ar    1  UNL1       -0.0226
      4 C          -3.4459  -19.9721   21.6942 C.ar    1  UNL1       -0.0045
      5 C          -2.2523  -19.1793   22.1377 C.ar    1  UNL1       -0.0003
      6 C          -2.4353  -17.8045   22.7090 C.ar    1  UNL1       -0.0002
      7 C          -3.8118  -17.2225   22.8368 C.ar    1  UNL1       -0.0011
      8 C          -5.0054  -18.0153   22.3934 C.ar    1  UNL1        0.0133
      9 C          -6.4732  -17.7063   22.3967 C.3     1  UNL1        0.1894
     10 C          -8.6814  -19.0118   21.6452 C.3     1  UNL1        0.0729
     11 C         -10.6241  -18.1736   20.1375 C.3     1  UNL1        0.0859
     12 N          -9.4571  -17.8829   21.0338 N.3     1  UNL1       -0.2962
     13 H          -9.8119  -17.3177   21.8053 H       1  UNL1        0.1233
     14 O          -7.1057  -16.4363   22.8837 O.3     1  UNL1       -0.4750
     15 C          -7.0922  -16.1047   24.3464 C.ar    1  UNL1        0.1348
     16 C          -5.8653  -15.5064   24.9685 C.ar    1  UNL1        0.0366
     17 C          -5.8516  -15.1747   26.4313 C.ar    1  UNL1        0.0031
     18 C          -7.0649  -15.4412   27.2721 C.ar    1  UNL1       -0.0001
     19 C          -8.2918  -16.0394   26.6501 C.ar    1  UNL1       -0.0013
     20 C          -8.3054  -16.3711   25.1873 C.ar    1  UNL1        0.0121
     21 C          -9.5323  -16.9693   24.5653 C.3     1  UNL1        0.0342
@<TRIPOS>BOND
     1    11    12    1
     2    12    10    1
     3     1    10    1
     4     1     2    1
     5     2     3    1
     6     3     4   ar
     7     4     5   ar
     8     5     6   ar
     9     6     7   ar
    10     7     8   ar
    11     8     9    1
    12     9    14    1
    13    14    15    1
    14    15    16   ar
    15    16    17   ar
    16    17    18   ar
    17    18    19   ar
    18    19    20   ar
    19    20    21    1
    20     9     1    1
    21    20    15   ar
    22     8     3   ar
    23    12    13    1
@<TRIPOS>MOLECULE
*****
 21 23 0 0 0
SMALL
GASTEIGER

@<TRIPOS>ATOM
      1 C          -6.9018  -18.6591   21.4183 C.3     1  UNL1        0.0644
      2 C          -5.6068  -18.5080   22.1600 C.3     1  UNL1        0.0315
      3 C          -5.7557  -17.3700   23.1258 C.ar    1  UNL1       -0.0226
      4 C          -4.8075  -16.7652   24.1183 C.ar    1  UNL1       -0.0045
      5 C          -5.2464  -15.6082   24.9660 C.ar    1  UNL1       -0.0003
      6 C          -6.6335  -15.0559   24.8211 C.ar    1  UNL1       -0.0002
      7 C          -7.5817  -15.6606   23.8286 C.ar    1  UNL1       -0.0011
      8 C          -7.1428  -16.8176   22.9809 C.ar    1  UNL1        0.0133
      9 C          -7.8511  -17.6144   21.9256 C.3     1  UNL1        0.1894
     10 C          -7.1958  -19.6763   20.3558 C.3     1  UNL1        0.0729
     11 C          -9.4378  -19.9617   19.0745 C.3     1  UNL1        0.0859
     12 N          -8.0878  -19.3208   19.2035 N.3     1  UNL1       -0.2962
     13 H          -8.2432  -18.3138   19.2512 H       1  UNL1        0.1233
     14 O          -9.2611  -17.4034   21.4595 O.3     1  UNL1       -0.4750
     15 C         -10.4086  -17.7388   22.3654 C.ar    1  UNL1        0.1348
     16 C         -10.1797  -18.5810   23.5855 C.ar    1  UNL1        0.0366
     17 C         -11.3272  -18.9164   24.4914 C.ar    1  UNL1        0.0031
     18 C         -12.7037  -18.4097   24.1772 C.ar    1  UNL1       -0.0001
     19 C         -12.9326  -17.5676   22.9572 C.ar    1  UNL1       -0.0013
     20 C         -11.7851  -17.2322   22.0513 C.ar    1  UNL1        0.0121
     21 C         -12.0141  -16.3900   20.8313 C.3     1  UNL1        0.0342
@<TRIPOS>BOND
     1    11    12    1
     2    12    10    1
     3     1    10    1
     4     1     2    1
     5     2     3    1
     6     3     4   ar
     7     4     5   ar
     8     5     6   ar
     9     6     7   ar
    10     7     8   ar
    11     8     9    1
    12     9    14    1
    13    14    15    1
    14    15    16   ar
    15    16    17   ar
    16    17    18   ar
    17    18    19   ar
    18    19    20   ar
    19    20    21    1
    20     9     1    1
    21    20    15   ar
    22     8     3   ar
    23    12    13    1
@<TRIPOS>MOLECULE
*****
 21 23 0 0 0
SMALL
GASTEIGER

@<TRIPOS>ATOM
      1 C          -7.4271  -16.7899   22.9305 C.3     1  UNL1        0.0644
      2 C          -8.5937  -15.9800   22.4475 C.3     1  UNL1        0.0315
      3 C          -9.4545  -16.8677   21.5985 C.ar    1  UNL1       -0.0226
      4 C         -10.7342  -16.6145   20.8580 C.ar    1  UNL1       -0.0045
      5 C         -11.3793  -17.7198   20.0757 C.ar    1  UNL1       -0.0003
      6 C         -10.7448  -19.0784   20.0340 C.ar    1  UNL1       -0.0002
      7 C          -9.4652  -19.3316   20.7745 C.ar    1  UNL1       -0.0011
      8 C          -8.8200  -18.2263   21.5567 C.ar    1  UNL1        0.0133
      9 C          -7.5671  -18.1781   22.3800 C.3     1  UNL1        0.1894
     10 C          -6.3159  -16.2979   23.8097 C.3     1  UNL1        0.0729
     11 C          -5.6414  -15.2075   26.0694 C.3     1  UNL1        0.0859
     12 N          -6.6129  -15.3525   24.9358 N.3     1  UNL1       -0.2962
     13 H          -6.7227  -14.4268   24.5218 H       1  UNL1        0.1233
     14 O          -6.6202  -19.3182   22.6120 O.3     1  UNL1       -0.4750
     15 C          -5.2864  -19.3369   21.9261 C.ar    1  UNL1        0.1348
     16 C          -4.1352  -18.5681   22.5037 C.ar    1  UNL1        0.0366
     17 C          -2.8013  -18.5867   21.8179 C.ar    1  UNL1        0.0031
     18 C          -2.6186  -19.3742   20.5543 C.ar    1  UNL1       -0.0001
     19 C          -3.7698  -20.1429   19.9767 C.ar    1  UNL1       -0.0013
     20 C          -5.1037  -20.1243   20.6625 C.ar    1  UNL1        0.0121
     21 C          -6.2549  -20.8931   20.0848 C.3     1  UNL1        0.0342
@<TRIPOS>BOND
     1    11    12    1
     2    12    10    1
     3     1    10    1
     4     1     2    1
     5     2     3    1
     6     3     4   ar
     7     4     5   ar
     8     5     6   ar
     9     6     7   ar
    10     7     8   ar
    11     8     9    1
    12     9    14    1
    13    14    15    1
    14    15    16   ar
    15    16    17   ar
    16    17    18   ar
    17    18    19   ar
    18    19    20   ar
    19    20    21    1
    20     9     1    1
    21    20    15   ar
    22     8     3   ar
    23    12    13    1
@<TRIPOS>MOLECULE
*****
 21 23 0 0 0
SMALL
GASTEIGER

@<TRIPOS>ATOM
      1 C          -5.8743  -19.0043   21.8526 C.3     1  UNL1        0.0644
      2 C          -4.8911  -18.2557   22.7028 C.3     1  UNL1        0.0315
      3 C          -5.6257  -17.1435   23.3909 C.ar    1  UNL1       -0.0226
      4 C          -5.1716  -16.0829   24.3494 C.ar    1  UNL1       -0.0045
      5 C          -6.1547  -15.0835   24.8830 C.ar    1  UNL1       -0.0003
      6 C          -7.5919  -15.1447   24.4579 C.ar    1  UNL1       -0.0002
      7 C          -8.0460  -16.2053   23.4994 C.ar    1  UNL1       -0.0011
      8 C          -7.0629  -17.2047   22.9658 C.ar    1  UNL1        0.0133
      9 C          -7.2166  -18.3547   22.0151 C.3     1  UNL1        0.1894
     10 C          -5.5689  -20.1937   20.9911 C.3     1  UNL1        0.0729
     11 C          -3.6733  -19.2564   19.4817 C.3     1  UNL1        0.0859
     12 N          -4.2123  -20.3399   20.3681 N.3     1  UNL1       -0.2962
     13 H          -3.5474  -20.4523   21.1333 H       1  UNL1        0.1233
     14 O          -8.4891  -18.7804   21.3447 O.3     1  UNL1       -0.4750
     15 C          -9.8100  -18.5093   22.0016 C.ar    1  UNL1        0.1348
     16 C         -10.7248  -17.4605   21.4418 C.ar    1  UNL1        0.0366
     17 C         -12.0458  -17.1894   22.0987 C.ar    1  UNL1        0.0031
     18 C         -12.4520  -17.9671   23.3154 C.ar    1  UNL1       -0.0001
     19 C         -11.5372  -19.0158   23.8751 C.ar    1  UNL1       -0.0013
     20 C         -10.2163  -19.2870   23.2182 C.ar    1  UNL1        0.0121
     21 C          -9.3016  -20.3357   23.7780 C.3     1  UNL1        0.0342
@<TRIPOS>BOND
     1    11    12    1
     2    12    10    1
     3     1    10    1
     4     1     2    1
     5     2     3    1
     6     3     4   ar
     7     4     5   ar
     8     5     6   ar
     9     6     7   ar
    10     7     8   ar
    11     8     9    1
    12     9    14    1
    13    14    15    1
    14    15    16   ar
    15    16    17   ar
    16    17    18   ar
    17    18    19   ar
    18    19    20   ar
    19    20    21    1
    20     9     1    1
    21    20    15   ar
    22     8     3   ar
    23    12    13    1
@<TRIPOS>MOLECULE
*****
 21 23 0 0 0
SMALL
GASTEIGER

@<TRIPOS>ATOM
      1 C          -7.7960  -15.4652   22.8590 C.3     1  UNL1        0.0644
      2 C          -6.5415  -15.1981   23.6367 C.3     1  UNL1        0.0315
      3 C          -6.8100  -15.5242   25.0760 C.ar    1  UNL1       -0.0226
      4 C          -5.9446  -15.4549   26.2992 C.ar    1  UNL1       -0.0045
      5 C          -6.4997  -15.8544   27.6342 C.ar    1  UNL1       -0.0003
      6 C          -7.9202  -16.3232   27.7460 C.ar    1  UNL1       -0.0002
      7 C          -8.7856  -16.3925   26.5229 C.ar    1  UNL1       -0.0011
      8 C          -8.2305  -15.9930   25.1879 C.ar    1  UNL1        0.0133
      9 C          -8.8399  -15.9565   23.8177 C.3     1  UNL1        0.1894
     10 C          -7.9752  -15.2746   21.3820 C.3     1  UNL1        0.0729
     11 C          -8.9366  -13.5210   19.7235 C.3     1  UNL1        0.0859
     12 N          -9.1339  -14.4751   20.8641 N.3     1  UNL1       -0.2962
     13 H          -9.8447  -15.1442   20.5687 H       1  UNL1        0.1233
     14 O         -10.2462  -16.3435   23.4676 O.3     1  UNL1       -0.4750
     15 C         -10.5035  -17.5690   22.6421 C.ar    1  UNL1        0.1348
     16 C         -10.6739  -17.4505   21.1564 C.ar    1  UNL1        0.0366
     17 C         -10.9312  -18.6760   20.3308 C.ar    1  UNL1        0.0031
     18 C         -11.0182  -20.0203   20.9908 C.ar    1  UNL1       -0.0001
     19 C         -10.8479  -20.1388   22.4763 C.ar    1  UNL1       -0.0013
     20 C         -10.5905  -18.9133   23.3020 C.ar    1  UNL1        0.0121
     21 C         -10.4202  -19.0319   24.7875 C.3     1  UNL1        0.0342
@<TRIPOS>BOND
     1    11    12    1
     2    12    10    1
     3     1    10    1
     4     1     2    1
     5     2     3    1
     6     3     4   ar
     7     4     5   ar
     8     5     6   ar
     9     6     7   ar
    10     7     8   ar
    11     8     9    1
    12     9    14    1
    13    14    15    1
    14    15    16   ar
    15    16    17   ar
    16    17    18   ar
    17    18    19   ar
    18    19    20   ar
    19    20    21    1
    20     9     1    1
    21    20    15   ar
    22     8     3   ar
    23    12    13    1
