@<TRIPOS>MOLECULE
*****
 33 36 0 0 0
SMALL
GASTEIGER

@<TRIPOS>ATOM
      1 N          -9.2439  -17.0638   22.7295 N.ar    1  UNL1       -0.2874
      2 C         -10.7015  -16.7830   22.5146 C.ar    1  UNL1        0.0858
      3 C         -11.4263  -17.4184   21.3653 C.ar    1  UNL1        0.0705
      4 C         -10.6933  -18.3348   20.4309 C.ar    1  UNL1        0.1996
      5 O         -11.4181  -18.9703   19.2816 O.2     1  UNL1       -0.2864
      6 C          -9.2356  -18.6156   20.6458 C.ar    1  UNL1        0.0582
      7 C          -8.5026  -19.5319   19.7114 C.ar    1  UNL1        0.0340
      8 C          -7.0449  -19.8127   19.9262 C.ar    1  UNL1        0.1371
      9 F          -6.3119  -20.7290   18.9918 F       1  UNL1       -0.2045
     10 C          -6.3201  -19.1772   21.0756 C.ar    1  UNL1        0.0171
     11 C          -7.0531  -18.2609   22.0100 C.ar    1  UNL1        0.0720
     12 CL         -6.3284  -17.6254   23.1592 Cl      1  UNL1       -0.0810
     13 C          -8.5109  -17.9801   21.7951 C.ar    1  UNL1        0.0788
     14 N          -8.2609  -16.7758   27.8237 N.pl3   1  UNL1       -0.3408
     15 C          -8.0276  -16.2843   26.4259 C.ar    1  UNL1        0.1548
     16 N          -8.7524  -16.9198   25.2766 N.ar    1  UNL1       -0.2091
     17 C          -8.5190  -16.4283   23.8788 C.ar    1  UNL1        0.1769
     18 C          -7.5609  -15.3012   23.6302 C.ar    1  UNL1        0.1767
     19 F          -7.3276  -14.8097   22.2323 F       1  UNL1       -0.2009
     20 C          -6.8361  -14.6657   24.7795 C.ar    1  UNL1        0.0652
     21 C          -7.0695  -15.1573   26.1774 C.ar    1  UNL1        0.1734
     22 F          -6.3447  -14.5218   27.3266 F       1  UNL1       -0.2012
     23 H          -8.8898  -17.5156   27.9869 H       1  UNL1        0.1438
     24 H          -7.7852  -16.3587   28.5780 H       1  UNL1        0.1438
     25 C          -4.8624  -19.4580   21.2904 C.3     1  UNL1        0.0302
     26 C          -3.6927  -19.7375   20.3939 C.3     1  UNL1        0.0338
     27 C          -2.8009  -19.8551   21.5943 C.3     1  UNL1        0.1112
     28 O          -1.3431  -20.1359   21.8092 O.3     1  UNL1       -0.3844
     29 C          -3.9706  -19.5756   22.4907 C.3     1  UNL1        0.0338
     30 H          -1.1487  -20.1266   22.7595 H       1  UNL1        0.2103
     31 C         -12.8840  -17.1377   21.1504 C.2     1  UNL1        0.0774
     32 O         -13.9188  -17.9657   21.8528 O.co2   1  UNL1       -0.5444
     33 O         -13.3069  -16.0288   20.2331 O.co2   1  UNL1       -0.5444
@<TRIPOS>UNITY_ATOM_ATTR
32 1
charge -1
@<TRIPOS>BOND
     1    14    15    1
     2    15    16   ar
     3    16    17   ar
     4    17     1    1
     5     1     2   ar
     6     2     3   ar
     7     3    31    1
     8    31    32   ar
     9    31    33   ar
    10     3     4   ar
    11     4     5    2
    12     4     6   ar
    13     6     7   ar
    14     7     8   ar
    15     8     9    1
    16     8    10   ar
    17    25    10    1
    18    25    26    1
    19    26    27    1
    20    27    28    1
    21    27    29    1
    22    10    11   ar
    23    11    12    1
    24    11    13   ar
    25    17    18   ar
    26    18    19    1
    27    18    20   ar
    28    20    21   ar
    29    21    22    1
    30    21    15   ar
    31    13     1   ar
    32    13     6   ar
    33    29    25    1
    34    14    23    1
    35    14    24    1
    36    28    30    1
@<TRIPOS>MOLECULE
*****
 33 36 0 0 0
SMALL
GASTEIGER

@<TRIPOS>ATOM
      1 N         -14.2994   -2.9878   18.8878 N.ar    1  UNL1       -0.2874
      2 C         -14.5855   -1.5515   19.2120 C.ar    1  UNL1        0.0858
      3 C         -15.9279   -1.1579   19.7532 C.ar    1  UNL1        0.0705
      4 C         -16.9841   -2.2006   19.9703 C.ar    1  UNL1        0.1996
      5 O         -18.3266   -1.8069   20.5117 O.2     1  UNL1       -0.2864
      6 C         -16.6980   -3.6369   19.6461 C.ar    1  UNL1        0.0582
      7 C         -17.7543   -4.6796   19.8632 C.ar    1  UNL1        0.0340
      8 C         -17.4682   -6.1159   19.5390 C.ar    1  UNL1        0.1371
      9 F         -18.5244   -7.1586   19.7561 F       1  UNL1       -0.2045
     10 C         -16.1257   -6.5096   18.9977 C.ar    1  UNL1        0.0171
     11 C         -15.0694   -5.4669   18.7806 C.ar    1  UNL1        0.0720
     12 CL        -13.7271   -5.8605   18.2393 Cl      1  UNL1       -0.0810
     13 C         -15.3556   -4.0305   19.1048 C.ar    1  UNL1        0.0788
     14 N          -9.5547   -4.9730   19.6278 N.pl3   1  UNL1       -0.3408
     15 C         -10.5846   -4.3741   18.7164 C.ar    1  UNL1        0.1548
     16 N         -11.9270   -3.9804   19.2578 N.ar    1  UNL1       -0.2091
     17 C         -12.9569   -3.3815   18.3464 C.ar    1  UNL1        0.1769
     18 C         -12.6445   -3.1762   16.8938 C.ar    1  UNL1        0.1767
     19 F         -13.6745   -2.5773   15.9824 F       1  UNL1       -0.2009
     20 C         -11.3021   -3.5699   16.3524 C.ar    1  UNL1        0.0652
     21 C         -10.2721   -4.1688   17.2638 C.ar    1  UNL1        0.1734
     22 F          -8.9298   -4.5624   16.7224 F       1  UNL1       -0.2012
     23 H          -9.7598   -5.1077   20.5812 H       1  UNL1        0.1438
     24 H          -8.6736   -5.2313   19.2725 H       1  UNL1        0.1438
     25 C         -15.8396   -7.9458   18.6735 C.3     1  UNL1        0.0302
     26 C         -15.8763   -9.2341   19.4410 C.3     1  UNL1        0.0338
     27 C         -15.4349   -9.9771   18.2150 C.3     1  UNL1        0.1112
     28 O         -15.1488  -11.4135   17.8907 O.3     1  UNL1       -0.3844
     29 C         -15.3982   -8.6889   17.4475 C.3     1  UNL1        0.0338
     30 H         -14.8810  -11.4880   16.9614 H       1  UNL1        0.2103
     31 C         -16.2141    0.2784   20.0775 C.2     1  UNL1        0.0774
     32 O         -17.0368    0.6257   21.2826 O.co2   1  UNL1       -0.5444
     33 O         -15.6774    1.3674   19.1965 O.co2   1  UNL1       -0.5444
@<TRIPOS>UNITY_ATOM_ATTR
32 1
charge -1
@<TRIPOS>BOND
     1    14    15    1
     2    15    16   ar
     3    16    17   ar
     4    17     1    1
     5     1     2   ar
     6     2     3   ar
     7     3    31    1
     8    31    32   ar
     9    31    33   ar
    10     3     4   ar
    11     4     5    2
    12     4     6   ar
    13     6     7   ar
    14     7     8   ar
    15     8     9    1
    16     8    10   ar
    17    25    10    1
    18    25    26    1
    19    26    27    1
    20    27    28    1
    21    27    29    1
    22    10    11   ar
    23    11    12    1
    24    11    13   ar
    25    17    18   ar
    26    18    19    1
    27    18    20   ar
    28    20    21   ar
    29    21    22    1
    30    21    15   ar
    31    13     1   ar
    32    13     6   ar
    33    29    25    1
    34    14    23    1
    35    14    24    1
    36    28    30    1
@<TRIPOS>MOLECULE
*****
 33 36 0 0 0
SMALL
GASTEIGER

@<TRIPOS>ATOM
      1 N         -13.5119   -6.2395   18.6182 N.ar    1  UNL1       -0.2874
      2 C         -12.3486   -7.1864   18.6189 C.ar    1  UNL1        0.0858
      3 C         -10.9514   -6.6578   18.7538 C.ar    1  UNL1        0.0705
      4 C         -10.7174   -5.1823   18.8880 C.ar    1  UNL1        0.1996
      5 O          -9.3201   -4.6537   19.0229 O.2     1  UNL1       -0.2864
      6 C         -11.8807   -4.2353   18.8873 C.ar    1  UNL1        0.0582
      7 C         -11.6467   -2.7598   19.0214 C.ar    1  UNL1        0.0340
      8 C         -12.8099   -1.8128   19.0207 C.ar    1  UNL1        0.1371
      9 F         -12.5759   -0.3373   19.1548 F       1  UNL1       -0.2045
     10 C         -14.2073   -2.3414   18.8858 C.ar    1  UNL1        0.0171
     11 C         -14.4413   -3.8169   18.7516 C.ar    1  UNL1        0.0720
     12 CL        -15.8385   -4.3455   18.6168 Cl      1  UNL1       -0.0810
     13 C         -13.2779   -4.7639   18.7524 C.ar    1  UNL1        0.0788
     14 N         -17.6760   -8.5365   20.7121 N.pl3   1  UNL1       -0.3408
     15 C         -16.9913   -7.9165   19.5303 C.ar    1  UNL1        0.1548
     16 N         -15.5939   -7.3880   19.6652 N.ar    1  UNL1       -0.2091
     17 C         -14.9092   -6.7680   18.4833 C.ar    1  UNL1        0.1769
     18 C         -15.6218   -6.6766   17.1665 C.ar    1  UNL1        0.1767
     19 F         -14.9370   -6.0567   15.9847 F       1  UNL1       -0.2009
     20 C         -17.0191   -7.2052   17.0316 C.ar    1  UNL1        0.0652
     21 C         -17.7039   -7.8251   18.2135 C.ar    1  UNL1        0.1734
     22 F         -19.1011   -8.3537   18.0786 F       1  UNL1       -0.2012
     23 H         -17.2083   -8.5965   21.5764 H       1  UNL1        0.1438
     24 H         -18.5931   -8.8834   20.6236 H       1  UNL1        0.1438
     25 C         -15.3705   -1.3944   18.8851 C.3     1  UNL1        0.0302
     26 C         -16.2757   -0.8272   17.8321 C.3     1  UNL1        0.0338
     27 C         -17.0157   -0.0552   18.8840 C.3     1  UNL1        0.1112
     28 O         -18.1790    0.8918   18.8834 O.3     1  UNL1       -0.3844
     29 C         -16.1104   -0.6225   19.9370 C.3     1  UNL1        0.0338
     30 H         -18.3584    1.1842   19.7907 H       1  UNL1        0.2103
     31 C          -9.7880   -7.6048   18.7545 C.2     1  UNL1        0.0774
     32 O          -8.7218   -7.4821   19.8024 O.co2   1  UNL1       -0.5444
     33 O          -9.6910   -8.6744   17.7074 O.co2   1  UNL1       -0.5444
@<TRIPOS>UNITY_ATOM_ATTR
32 1
charge -1
@<TRIPOS>BOND
     1    14    15    1
     2    15    16   ar
     3    16    17   ar
     4    17     1    1
     5     1     2   ar
     6     2     3   ar
     7     3    31    1
     8    31    32   ar
     9    31    33   ar
    10     3     4   ar
    11     4     5    2
    12     4     6   ar
    13     6     7   ar
    14     7     8   ar
    15     8     9    1
    16     8    10   ar
    17    25    10    1
    18    25    26    1
    19    26    27    1
    20    27    28    1
    21    27    29    1
    22    10    11   ar
    23    11    12    1
    24    11    13   ar
    25    17    18   ar
    26    18    19    1
    27    18    20   ar
    28    20    21   ar
    29    21    22    1
    30    21    15   ar
    31    13     1   ar
    32    13     6   ar
    33    29    25    1
    34    14    23    1
    35    14    24    1
    36    28    30    1
@<TRIPOS>MOLECULE
*****
 33 36 0 0 0
SMALL
GASTEIGER

@<TRIPOS>ATOM
      1 N          -8.5720  -17.1825   23.8204 N.ar    1  UNL1       -0.2874
      2 C          -8.0154  -16.3334   24.9246 C.ar    1  UNL1        0.0858
      3 C          -6.5387  -16.0836   25.0070 C.ar    1  UNL1        0.0705
      4 C          -5.6185  -16.6829   23.9852 C.ar    1  UNL1        0.1996
      5 O          -4.1417  -16.4330   24.0676 O.2     1  UNL1       -0.2864
      6 C          -6.1750  -17.5319   22.8810 C.ar    1  UNL1        0.0582
      7 C          -5.2549  -18.1312   21.8591 C.ar    1  UNL1        0.0340
      8 C          -5.8114  -18.9803   20.7549 C.ar    1  UNL1        0.1371
      9 F          -4.8912  -19.5795   19.7331 F       1  UNL1       -0.2045
     10 C          -7.2882  -19.2301   20.6725 C.ar    1  UNL1        0.0171
     11 C          -8.2084  -18.6309   21.6944 C.ar    1  UNL1        0.0720
     12 CL         -9.6851  -18.8807   21.6120 Cl      1  UNL1       -0.0810
     13 C          -7.6518  -17.7818   22.7986 C.ar    1  UNL1        0.0788
     14 N         -13.2166  -16.0715   21.7726 N.pl3   1  UNL1       -0.3408
     15 C         -12.3711  -16.8769   22.7141 C.ar    1  UNL1        0.1548
     16 N         -10.8943  -16.6270   22.7965 N.ar    1  UNL1       -0.2091
     17 C         -10.0488  -17.4324   23.7380 C.ar    1  UNL1        0.1769
     18 C         -10.6800  -18.4876   24.5971 C.ar    1  UNL1        0.1767
     19 F          -9.8344  -19.2929   25.5387 F       1  UNL1       -0.2009
     20 C         -12.1567  -18.7374   24.5148 C.ar    1  UNL1        0.0652
     21 C         -13.0023  -17.9321   23.5732 C.ar    1  UNL1        0.1734
     22 F         -14.4790  -18.1820   23.4908 F       1  UNL1       -0.2012
     23 H         -12.8023  -15.3789   21.2087 H       1  UNL1        0.1438
     24 H         -14.1858  -16.2355   21.7185 H       1  UNL1        0.1438
     25 C          -7.8447  -20.0792   19.5683 C.3     1  UNL1        0.0302
     26 C          -8.9885  -19.9520   18.6062 C.3     1  UNL1        0.0338
     27 C          -8.6318  -21.2799   18.0067 C.3     1  UNL1        0.1112
     28 O          -9.1883  -22.1291   16.9024 O.3     1  UNL1       -0.3844
     29 C          -7.4880  -21.4071   18.9688 C.3     1  UNL1        0.0338
     30 H          -8.6614  -22.9394   16.8207 H       1  UNL1        0.2103
     31 C          -5.9821  -15.2345   26.1113 C.2     1  UNL1        0.0774
     32 O          -4.8304  -14.3125   25.8406 O.co2   1  UNL1       -0.5444
     33 O          -6.5773  -15.3075   27.4862 O.co2   1  UNL1       -0.5444
@<TRIPOS>UNITY_ATOM_ATTR
32 1
charge -1
@<TRIPOS>BOND
     1    14    15    1
     2    15    16   ar
     3    16    17   ar
     4    17     1    1
     5     1     2   ar
     6     2     3   ar
     7     3    31    1
     8    31    32   ar
     9    31    33   ar
    10     3     4   ar
    11     4     5    2
    12     4     6   ar
    13     6     7   ar
    14     7     8   ar
    15     8     9    1
    16     8    10   ar
    17    25    10    1
    18    25    26    1
    19    26    27    1
    20    27    28    1
    21    27    29    1
    22    10    11   ar
    23    11    12    1
    24    11    13   ar
    25    17    18   ar
    26    18    19    1
    27    18    20   ar
    28    20    21   ar
    29    21    22    1
    30    21    15   ar
    31    13     1   ar
    32    13     6   ar
    33    29    25    1
    34    14    23    1
    35    14    24    1
    36    28    30    1
@<TRIPOS>MOLECULE
*****
 33 36 0 0 0
SMALL
GASTEIGER

@<TRIPOS>ATOM
      1 N          -6.9998  -18.4974   21.6707 N.ar    1  UNL1       -0.2874
      2 C          -6.1788  -19.1881   20.6224 C.ar    1  UNL1        0.0858
      3 C          -4.6814  -19.1665   20.7077 C.ar    1  UNL1        0.0705
      4 C          -4.0050  -18.4542   21.8413 C.ar    1  UNL1        0.1996
      5 O          -2.5075  -18.4326   21.9265 O.2     1  UNL1       -0.2864
      6 C          -4.8259  -17.7635   22.8896 C.ar    1  UNL1        0.0582
      7 C          -4.1494  -17.0512   24.0232 C.ar    1  UNL1        0.0340
      8 C          -4.9704  -16.3605   25.0715 C.ar    1  UNL1        0.1371
      9 F          -4.2939  -15.6483   26.2051 F       1  UNL1       -0.2045
     10 C          -6.4678  -16.3821   24.9862 C.ar    1  UNL1        0.0171
     11 C          -7.1443  -17.0944   23.8526 C.ar    1  UNL1        0.0720
     12 CL         -8.6417  -17.1160   23.7673 Cl      1  UNL1       -0.0810
     13 C          -6.3233  -17.7851   22.8043 C.ar    1  UNL1        0.0788
     14 N         -11.4343  -16.4726   19.8720 N.pl3   1  UNL1       -0.3408
     15 C         -10.7145  -17.5066   20.6861 C.ar    1  UNL1        0.1548
     16 N          -9.2171  -17.4850   20.7713 N.ar    1  UNL1       -0.2091
     17 C          -8.4972  -18.5189   21.5854 C.ar    1  UNL1        0.1769
     18 C          -9.2748  -19.5745   22.3143 C.ar    1  UNL1        0.1767
     19 F          -8.5549  -20.6085   23.1284 F       1  UNL1       -0.2009
     20 C         -10.7722  -19.5961   22.2290 C.ar    1  UNL1        0.0652
     21 C         -11.4921  -18.5621   21.4149 C.ar    1  UNL1        0.1734
     22 F         -12.9895  -18.5837   21.3297 F       1  UNL1       -0.2012
     23 H         -10.9240  -15.7798   19.3936 H       1  UNL1        0.1438
     24 H         -12.4172  -16.4868   19.8160 H       1  UNL1        0.1438
     25 C          -7.2888  -15.6914   26.0345 C.3     1  UNL1        0.0302
     26 C          -8.6938  -15.1716   26.1094 C.3     1  UNL1        0.0338
     27 C          -8.4498  -14.7146   27.5171 C.3     1  UNL1        0.1112
     28 O          -9.2707  -14.0239   28.5655 O.3     1  UNL1       -0.3844
     29 C          -7.0447  -15.2345   27.4422 C.3     1  UNL1        0.0338
     30 H          -8.7367  -13.9022   29.3660 H       1  UNL1        0.2103
     31 C          -3.8604  -19.8572   19.6593 C.2     1  UNL1        0.0774
     32 O          -3.9923  -21.3378   19.4584 O.co2   1  UNL1       -0.5444
     33 O          -2.9076  -19.0672   18.8119 O.co2   1  UNL1       -0.5444
@<TRIPOS>UNITY_ATOM_ATTR
32 1
charge -1
@<TRIPOS>BOND
     1    14    15    1
     2    15    16   ar
     3    16    17   ar
     4    17     1    1
     5     1     2   ar
     6     2     3   ar
     7     3    31    1
     8    31    32   ar
     9    31    33   ar
    10     3     4   ar
    11     4     5    2
    12     4     6   ar
    13     6     7   ar
    14     7     8   ar
    15     8     9    1
    16     8    10   ar
    17    25    10    1
    18    25    26    1
    19    26    27    1
    20    27    28    1
    21    27    29    1
    22    10    11   ar
    23    11    12    1
    24    11    13   ar
    25    17    18   ar
    26    18    19    1
    27    18    20   ar
    28    20    21   ar
    29    21    22    1
    30    21    15   ar
    31    13     1   ar
    32    13     6   ar
    33    29    25    1
    34    14    23    1
    35    14    24    1
    36    28    30    1
@<TRIPOS>MOLECULE
*****
 33 36 0 0 0
SMALL
GASTEIGER

@<TRIPOS>ATOM
      1 N           1.1419    2.9786   32.1091 N.ar    1  UNL1       -0.2874
      2 C           0.4528    4.2493   32.5095 C.ar    1  UNL1        0.0858
      3 C           0.7039    4.8441   33.8634 C.ar    1  UNL1        0.0705
      4 C           1.6440    4.1681   34.8170 C.ar    1  UNL1        0.1996
      5 O           1.8950    4.7629   36.1710 O.2     1  UNL1       -0.2864
      6 C           2.3330    2.8973   34.4166 C.ar    1  UNL1        0.0582
      7 C           3.2731    2.2213   35.3701 C.ar    1  UNL1        0.0340
      8 C           3.9622    0.9506   34.9697 C.ar    1  UNL1        0.1371
      9 F           4.9023    0.2746   35.9233 F       1  UNL1       -0.2045
     10 C           3.7111    0.3557   33.6157 C.ar    1  UNL1        0.0171
     11 C           2.7710    1.0317   32.6622 C.ar    1  UNL1        0.0720
     12 CL          2.5200    0.4370   31.3083 Cl      1  UNL1       -0.0810
     13 C           2.0820    2.3026   33.0627 C.ar    1  UNL1        0.0788
     14 N          -1.4967   -0.2872   29.0475 N.pl3   1  UNL1       -0.3408
     15 C          -0.4284    0.7509   29.2243 C.ar    1  UNL1        0.1548
     16 N          -0.1774    1.3457   30.5783 N.ar    1  UNL1       -0.2091
     17 C           0.8908    2.3837   30.7551 C.ar    1  UNL1        0.1769
     18 C           1.7081    2.8270   29.5780 C.ar    1  UNL1        0.1767
     19 F           2.7764    3.8651   29.7549 F       1  UNL1       -0.2009
     20 C           1.4571    2.2322   28.2240 C.ar    1  UNL1        0.0652
     21 C           0.3888    1.1941   28.0472 C.ar    1  UNL1        0.1734
     22 F           0.1378    0.5994   26.6932 F       1  UNL1       -0.2012
     23 H          -2.0330   -0.5781   29.8201 H       1  UNL1        0.1438
     24 H          -1.6614   -0.6776   28.1588 H       1  UNL1        0.1438
     25 C           4.4002   -0.9150   33.2154 C.3     1  UNL1        0.0302
     26 C           4.2550   -2.3618   33.5838 C.3     1  UNL1        0.0338
     27 C           5.3746   -2.7122   32.6491 C.3     1  UNL1        0.1112
     28 O           6.0638   -3.9830   32.2487 O.3     1  UNL1       -0.3844
     29 C           5.5199   -1.2654   32.2807 C.3     1  UNL1        0.0338
     30 H           6.7576   -3.7842   31.6006 H       1  UNL1        0.2103
     31 C           0.0148    6.1149   34.2639 C.2     1  UNL1        0.0774
     32 O          -1.4835    6.1832   34.2783 O.co2   1  UNL1       -0.5444
     33 O           0.8242    7.3174   34.6499 O.co2   1  UNL1       -0.5444
@<TRIPOS>UNITY_ATOM_ATTR
32 1
charge -1
@<TRIPOS>BOND
     1    14    15    1
     2    15    16   ar
     3    16    17   ar
     4    17     1    1
     5     1     2   ar
     6     2     3   ar
     7     3    31    1
     8    31    32   ar
     9    31    33   ar
    10     3     4   ar
    11     4     5    2
    12     4     6   ar
    13     6     7   ar
    14     7     8   ar
    15     8     9    1
    16     8    10   ar
    17    25    10    1
    18    25    26    1
    19    26    27    1
    20    27    28    1
    21    27    29    1
    22    10    11   ar
    23    11    12    1
    24    11    13   ar
    25    17    18   ar
    26    18    19    1
    27    18    20   ar
    28    20    21   ar
    29    21    22    1
    30    21    15   ar
    31    13     1   ar
    32    13     6   ar
    33    29    25    1
    34    14    23    1
    35    14    24    1
    36    28    30    1
@<TRIPOS>MOLECULE
*****
 33 36 0 0 0
SMALL
GASTEIGER

@<TRIPOS>ATOM
      1 N          -8.9352  -17.1924   23.3576 N.ar    1  UNL1       -0.2874
      2 C         -10.4145  -17.0814   23.1356 C.ar    1  UNL1        0.0858
      3 C         -11.0284  -17.6333   21.8832 C.ar    1  UNL1        0.0705
      4 C         -10.1630  -18.2962   20.8528 C.ar    1  UNL1        0.1996
      5 O         -10.7769  -18.8481   19.6004 O.2     1  UNL1       -0.2864
      6 C          -8.6837  -18.4072   21.0749 C.ar    1  UNL1        0.0582
      7 C          -7.8183  -19.0701   20.0445 C.ar    1  UNL1        0.0340
      8 C          -6.3390  -19.1811   20.2666 C.ar    1  UNL1        0.1371
      9 F          -5.4736  -19.8440   19.2362 F       1  UNL1       -0.2045
     10 C          -5.7250  -18.6292   21.5190 C.ar    1  UNL1        0.0171
     11 C          -6.5905  -17.9663   22.5494 C.ar    1  UNL1        0.0720
     12 CL         -5.9766  -17.4145   23.8018 Cl      1  UNL1       -0.0810
     13 C          -8.0698  -17.8553   22.3273 C.ar    1  UNL1        0.0788
     14 N          -5.5032  -14.0613   25.6853 N.pl3   1  UNL1       -0.3408
     15 C          -6.6053  -15.0750   25.7739 C.ar    1  UNL1        0.1548
     16 N          -7.2192  -15.6269   24.5214 N.ar    1  UNL1       -0.2091
     17 C          -8.3213  -16.6405   24.6101 C.ar    1  UNL1        0.1769
     18 C          -8.8094  -17.1024   25.9511 C.ar    1  UNL1        0.1767
     19 F          -9.9116  -18.1161   26.0397 F       1  UNL1       -0.2009
     20 C          -8.1956  -16.5505   27.2035 C.ar    1  UNL1        0.0652
     21 C          -7.0934  -15.5368   27.1149 C.ar    1  UNL1        0.1734
     22 F          -6.4795  -14.9850   28.3673 F       1  UNL1       -0.2012
     23 H          -5.1828  -13.7582   24.8051 H       1  UNL1        0.1438
     24 H          -5.1003  -13.6991   26.5073 H       1  UNL1        0.1438
     25 C          -4.2458  -18.7403   21.7411 C.3     1  UNL1        0.0302
     26 C          -3.1418  -17.7688   22.0369 C.3     1  UNL1        0.0338
     27 C          -2.1537  -18.8973   22.0551 C.3     1  UNL1        0.1112
     28 O          -0.6743  -19.0084   22.2771 O.3     1  UNL1       -0.3844
     29 C          -3.2577  -19.8687   21.7593 C.3     1  UNL1        0.0338
     30 H          -0.4055  -19.9376   22.2053 H       1  UNL1        0.2103
     31 C         -12.5077  -17.5223   21.6611 C.2     1  UNL1        0.0774
     32 O         -13.4607  -18.1817   22.6134 O.co2   1  UNL1       -0.5444
     33 O         -13.0341  -16.7518   20.4866 O.co2   1  UNL1       -0.5444
@<TRIPOS>UNITY_ATOM_ATTR
32 1
charge -1
@<TRIPOS>BOND
     1    14    15    1
     2    15    16   ar
     3    16    17   ar
     4    17     1    1
     5     1     2   ar
     6     2     3   ar
     7     3    31    1
     8    31    32   ar
     9    31    33   ar
    10     3     4   ar
    11     4     5    2
    12     4     6   ar
    13     6     7   ar
    14     7     8   ar
    15     8     9    1
    16     8    10   ar
    17    25    10    1
    18    25    26    1
    19    26    27    1
    20    27    28    1
    21    27    29    1
    22    10    11   ar
    23    11    12    1
    24    11    13   ar
    25    17    18   ar
    26    18    19    1
    27    18    20   ar
    28    20    21   ar
    29    21    22    1
    30    21    15   ar
    31    13     1   ar
    32    13     6   ar
    33    29    25    1
    34    14    23    1
    35    14    24    1
    36    28    30    1
@<TRIPOS>MOLECULE
*****
 33 36 0 0 0
SMALL
GASTEIGER

@<TRIPOS>ATOM
      1 N          -3.2657    3.7380   21.4476 N.ar    1  UNL1       -0.2874
      2 C          -4.3646    3.9318   20.4452 C.ar    1  UNL1        0.0858
      3 C          -5.7723    4.1595   20.9104 C.ar    1  UNL1        0.0705
      4 C          -6.0812    4.1933   22.3778 C.ar    1  UNL1        0.1996
      5 O          -7.4890    4.4210   22.8429 O.2     1  UNL1       -0.2864
      6 C          -4.9823    3.9994   23.3802 C.ar    1  UNL1        0.0582
      7 C          -5.2911    4.0332   24.8477 C.ar    1  UNL1        0.0340
      8 C          -4.1922    3.8394   25.8500 C.ar    1  UNL1        0.1371
      9 F          -4.5010    3.8732   27.3175 F       1  UNL1       -0.2045
     10 C          -2.7843    3.6117   25.3849 C.ar    1  UNL1        0.0171
     11 C          -2.4755    3.5779   23.9174 C.ar    1  UNL1        0.0720
     12 CL         -1.0678    3.3502   23.4523 Cl      1  UNL1       -0.0810
     13 C          -3.5745    3.7718   22.9151 C.ar    1  UNL1        0.0788
     14 N           0.5315    0.4924   20.0166 N.pl3   1  UNL1       -0.3408
     15 C           0.0407    1.8875   20.2670 C.ar    1  UNL1        0.1548
     16 N          -1.3671    2.1152   20.7321 N.ar    1  UNL1       -0.2091
     17 C          -1.8579    3.5103   20.9825 C.ar    1  UNL1        0.1769
     18 C          -0.9408    4.6778   20.7678 C.ar    1  UNL1        0.1767
     19 F          -1.4317    6.0729   21.0183 F       1  UNL1       -0.2009
     20 C           0.4669    4.4501   20.3028 C.ar    1  UNL1        0.0652
     21 C           0.9577    3.0550   20.0523 C.ar    1  UNL1        0.1734
     22 F           2.3655    2.8273   19.5872 F       1  UNL1       -0.2012
     23 H          -0.0704   -0.2739   20.1575 H       1  UNL1        0.1438
     24 H           1.4555    0.3429   19.7113 H       1  UNL1        0.1438
     25 C          -1.6854    3.4178   26.3873 C.3     1  UNL1        0.0302
     26 C          -0.8246    4.3321   27.2076 C.3     1  UNL1        0.0338
     27 C          -0.1313    3.1436   27.8048 C.3     1  UNL1        0.1112
     28 O           0.9677    2.9497   28.8073 O.3     1  UNL1       -0.3844
     29 C          -0.9921    2.2292   26.9845 C.3     1  UNL1        0.0338
     30 H           1.1323    2.0013   28.9271 H       1  UNL1        0.2103
     31 C          -6.8713    4.3534   19.9080 C.2     1  UNL1        0.0774
     32 O          -7.7984    5.5264   20.0289 O.co2   1  UNL1       -0.5444
     33 O          -7.0432    3.3743   18.7847 O.co2   1  UNL1       -0.5444
@<TRIPOS>UNITY_ATOM_ATTR
32 1
charge -1
@<TRIPOS>BOND
     1    14    15    1
     2    15    16   ar
     3    16    17   ar
     4    17     1    1
     5     1     2   ar
     6     2     3   ar
     7     3    31    1
     8    31    32   ar
     9    31    33   ar
    10     3     4   ar
    11     4     5    2
    12     4     6   ar
    13     6     7   ar
    14     7     8   ar
    15     8     9    1
    16     8    10   ar
    17    25    10    1
    18    25    26    1
    19    26    27    1
    20    27    28    1
    21    27    29    1
    22    10    11   ar
    23    11    12    1
    24    11    13   ar
    25    17    18   ar
    26    18    19    1
    27    18    20   ar
    28    20    21   ar
    29    21    22    1
    30    21    15   ar
    31    13     1   ar
    32    13     6   ar
    33    29    25    1
    34    14    23    1
    35    14    24    1
    36    28    30    1
@<TRIPOS>MOLECULE
*****
 33 36 0 0 0
SMALL
GASTEIGER

@<TRIPOS>ATOM
      1 N           5.0816   -1.6344   24.6759 N.ar    1  UNL1       -0.2874
      2 C           6.0084   -2.4435   25.5339 C.ar    1  UNL1        0.0858
      3 C           6.6623   -3.6739   24.9784 C.ar    1  UNL1        0.0705
      4 C           6.3894   -4.0950   23.5648 C.ar    1  UNL1        0.1996
      5 O           7.0433   -5.3255   23.0093 O.2     1  UNL1       -0.2864
      6 C           5.4626   -3.2859   22.7068 C.ar    1  UNL1        0.0582
      7 C           5.1897   -3.7071   21.2933 C.ar    1  UNL1        0.0340
      8 C           4.2629   -2.8979   20.4353 C.ar    1  UNL1        0.1371
      9 F           3.9899   -3.3191   19.0217 F       1  UNL1       -0.2045
     10 C           3.6089   -1.6675   20.9908 C.ar    1  UNL1        0.0171
     11 C           3.8818   -1.2463   22.4043 C.ar    1  UNL1        0.0720
     12 CL          3.2280   -0.0160   22.9598 Cl      1  UNL1       -0.0810
     13 C           4.8087   -2.0556   23.2623 C.ar    1  UNL1        0.0788
     14 N           1.1034    0.6254   27.1392 N.pl3   1  UNL1       -0.3408
     15 C           2.4386    0.7260   26.4630 C.ar    1  UNL1        0.1548
     16 N           3.0925   -0.5045   25.9075 N.ar    1  UNL1       -0.2091
     17 C           4.4277   -0.4039   25.2314 C.ar    1  UNL1        0.1769
     18 C           5.1090    0.9269   25.1107 C.ar    1  UNL1        0.1767
     19 F           6.4442    1.0274   24.4346 F       1  UNL1       -0.2009
     20 C           4.4551    2.1573   25.6662 C.ar    1  UNL1        0.0652
     21 C           3.1199    2.0568   26.3424 C.ar    1  UNL1        0.1734
     22 F           2.4660    3.2872   26.8978 F       1  UNL1       -0.2012
     23 H           0.6563   -0.2481   27.2184 H       1  UNL1        0.1438
     24 H           0.6743    1.4330   27.5038 H       1  UNL1        0.1438
     25 C           2.6821   -0.8584   20.1327 C.3     1  UNL1        0.0302
     26 C           2.8583    0.1029   18.9948 C.3     1  UNL1        0.0338
     27 C           1.3714    0.2860   18.9193 C.3     1  UNL1        0.1112
     28 O           0.4445    1.0952   18.0612 O.3     1  UNL1       -0.3844
     29 C           1.1952   -0.6752   20.0573 C.3     1  UNL1        0.0338
     30 H          -0.4722    0.9341   18.3344 H       1  UNL1        0.2103
     31 C           7.5892   -4.4831   25.8364 C.2     1  UNL1        0.0774
     32 O           9.0688   -4.2445   25.7744 O.co2   1  UNL1       -0.5444
     33 O           7.0364   -5.5309   26.7565 O.co2   1  UNL1       -0.5444
@<TRIPOS>UNITY_ATOM_ATTR
32 1
charge -1
@<TRIPOS>BOND
     1    14    15    1
     2    15    16   ar
     3    16    17   ar
     4    17     1    1
     5     1     2   ar
     6     2     3   ar
     7     3    31    1
     8    31    32   ar
     9    31    33   ar
    10     3     4   ar
    11     4     5    2
    12     4     6   ar
    13     6     7   ar
    14     7     8   ar
    15     8     9    1
    16     8    10   ar
    17    25    10    1
    18    25    26    1
    19    26    27    1
    20    27    28    1
    21    27    29    1
    22    10    11   ar
    23    11    12    1
    24    11    13   ar
    25    17    18   ar
    26    18    19    1
    27    18    20   ar
    28    20    21   ar
    29    21    22    1
    30    21    15   ar
    31    13     1   ar
    32    13     6   ar
    33    29    25    1
    34    14    23    1
    35    14    24    1
    36    28    30    1
