@<TRIPOS>MOLECULE
*****
 37 40 0 0 0
SMALL
GASTEIGER

@<TRIPOS>ATOM
      1 C           6.7877   -4.2718   29.7434 C.ar    1  UNL1        0.0067
      2 C           6.3300   -3.2988   28.6975 C.ar    1  UNL1        0.0155
      3 C           6.4974   -3.6268   27.2434 C.ar    1  UNL1        0.0659
      4 C           7.1225   -4.9278   26.8352 C.ar    1  UNL1        0.0295
      5 C           7.5802   -5.9007   27.8810 C.ar    1  UNL1        0.0315
      6 C           7.4128   -5.5727   29.3351 C.ar    1  UNL1        0.1362
      7 F           7.8705   -6.5458   30.3810 F       1  UNL1       -0.2045
      8 C           7.1562   -4.9756   25.3363 C.ar    1  UNL1        0.0875
      9 C           6.5519   -3.7042   24.8182 C.ar    1  UNL1        0.0925
     10 N           6.1447   -2.8706   25.9969 N.ar    1  UNL1       -0.2896
     11 C           6.3843   -3.3318   23.3748 C.ar    1  UNL1        0.0981
     12 C           5.1000   -3.6416   22.6646 C.ar    1  UNL1        0.0220
     13 C           4.9324   -3.2692   21.2213 C.ar    1  UNL1        0.0231
     14 C           6.0492   -2.5871   20.4882 C.ar    1  UNL1        0.1410
     15 C           7.3336   -2.2773   21.1984 C.ar    1  UNL1        0.1187
     16 N           7.5011   -2.6497   22.6417 N.ar    1  UNL1       -0.2409
     17 S           5.8816   -2.2147   19.0448 S.O2    1  UNL1        0.0619
     18 O           7.1034   -1.3482   19.1265 O.2     1  UNL1       -0.1529
     19 O           4.6599   -3.0811   18.9632 O.2     1  UNL1       -0.1529
     20 N           5.7139   -1.8424   17.6015 N.3     1  UNL1       -0.1723
     21 H           5.0875   -2.5341   17.1898 H       1  UNL1        0.1491
     22 C           5.1715   -0.4933   17.2331 C.3     1  UNL1        0.1701
     23 C           6.0749    0.5375   16.6237 C.3     1  UNL1        0.0278
     24 C           3.7256   -0.1750   17.4739 C.3     1  UNL1        0.4118
     25 F           2.2796    0.1432   17.7148 F       1  UNL1       -0.1685
     26 F           3.3390   -1.0672   16.3317 F       1  UNL1       -0.1685
     27 F           4.1122    0.7171   18.6161 F       1  UNL1       -0.1685
     28 C           5.4984   -1.5182   25.9392 C.ar    1  UNL1        0.1477
     29 C           4.0543   -1.3930   25.5535 C.ar    1  UNL1        0.0374
     30 C           3.4079   -0.0406   25.4958 C.ar    1  UNL1        0.0047
     31 C           4.2058    1.1865   25.8237 C.ar    1  UNL1        0.0208
     32 C           5.6499    1.0613   26.2094 C.ar    1  UNL1        0.1005
     33 N           6.2963   -0.2910   26.2672 N.ar    1  UNL1       -0.2264
     34 C           7.7951   -3.4668   31.9988 C.3     1  UNL1        0.0051
     35 C           6.6203   -3.9438   31.1975 C.3     1  UNL1        0.0287
     36 C           7.6989   -6.0978   24.5021 C.1     1  UNL1        0.1020
     37 N           8.2416   -7.2202   23.6678 N.1     1  UNL1       -0.1908
@<TRIPOS>BOND
     1    34    35    1
     2    35     1    1
     3     1     2   ar
     4     2     3   ar
     5     3     4   ar
     6     4     5   ar
     7     5     6   ar
     8     6     7    1
     9     4     8   ar
    10     8    36    1
    11    36    37    3
    12     8     9   ar
    13     9    11    1
    14    11    12   ar
    15    12    13   ar
    16    13    14   ar
    17    14    17    1
    18    17    18    2
    19    17    19    2
    20    17    20    1
    21    20    22    1
    22    22    23    1
    23    22    24    1
    24    24    25    1
    25    24    26    1
    26    24    27    1
    27    14    15   ar
    28    15    16   ar
    29     9    10   ar
    30    10    28    1
    31    28    29   ar
    32    29    30   ar
    33    30    31   ar
    34    31    32   ar
    35    32    33   ar
    36     6     1   ar
    37    16    11   ar
    38    33    28   ar
    39    10     3   ar
    40    20    21    1
@<TRIPOS>MOLECULE
*****
 37 40 0 0 0
SMALL
GASTEIGER

@<TRIPOS>ATOM
      1 C           2.0915   -0.5823   20.5028 C.ar    1  UNL1        0.0067
      2 C           1.8631    0.0796   21.8292 C.ar    1  UNL1        0.0155
      3 C           2.6634   -0.3422   23.0257 C.ar    1  UNL1        0.0659
      4 C           3.6921   -1.4261   22.8957 C.ar    1  UNL1        0.0295
      5 C           3.9205   -2.0880   21.5692 C.ar    1  UNL1        0.0315
      6 C           3.1202   -1.6662   20.3728 C.ar    1  UNL1        0.1362
      7 F           3.3487   -2.3282   19.0463 F       1  UNL1       -0.2045
      8 C           4.3240   -1.6291   24.2409 C.ar    1  UNL1        0.0875
      9 C           3.6858   -0.6707   25.2023 C.ar    1  UNL1        0.0925
     10 N           2.6595    0.1246   24.4513 N.ar    1  UNL1       -0.2896
     11 C           4.0160   -0.5321   26.6589 C.ar    1  UNL1        0.0981
     12 C           5.3083    0.1039   27.0778 C.ar    1  UNL1        0.0220
     13 C           5.6384    0.2425   28.5344 C.ar    1  UNL1        0.0231
     14 C           4.6763   -0.2549   29.5721 C.ar    1  UNL1        0.1410
     15 C           3.3841   -0.8909   29.1533 C.ar    1  UNL1        0.1187
     16 N           3.0539   -1.0295   27.6967 N.ar    1  UNL1       -0.2409
     17 S           5.0066   -0.1162   31.0288 S.O2    1  UNL1        0.0619
     18 O           3.5585   -0.3001   31.3746 O.2     1  UNL1       -0.1529
     19 O           6.4545    0.0676   30.6830 O.2     1  UNL1       -0.1529
     20 N           5.3368    0.0224   32.4854 N.3     1  UNL1       -0.1723
     21 H           4.7453    0.7682   32.8517 H       1  UNL1        0.1491
     22 C           5.1747   -1.1506   33.4061 C.3     1  UNL1        0.1701
     23 C           4.5700   -0.9591   34.7654 C.3     1  UNL1        0.0278
     24 C           5.6172   -2.5151   32.9676 C.3     1  UNL1        0.4118
     25 F           6.0598   -3.8796   32.5291 F       1  UNL1       -0.1685
     26 F           7.0414   -2.0449   32.9420 F       1  UNL1       -0.1685
     27 F           4.1930   -2.9852   32.9932 F       1  UNL1       -0.1685
     28 C           1.7831    1.1983   25.0250 C.ar    1  UNL1        0.1477
     29 C           0.2939    1.0200   25.0446 C.ar    1  UNL1        0.0374
     30 C          -0.5826    2.0936   25.6183 C.ar    1  UNL1        0.0047
     31 C           0.0303    3.3456   26.1725 C.ar    1  UNL1        0.0208
     32 C           1.5195    3.5238   26.1529 C.ar    1  UNL1        0.1005
     33 N           2.3960    2.4502   25.5791 N.ar    1  UNL1       -0.2264
     34 C           1.9232    0.6864   18.2419 C.3     1  UNL1        0.0051
     35 C           1.2911   -0.1605   19.3063 C.3     1  UNL1        0.0287
     36 C           5.4044   -2.6171   24.5673 C.1     1  UNL1        0.1020
     37 N           6.4849   -3.6051   24.8938 N.1     1  UNL1       -0.1908
@<TRIPOS>BOND
     1    34    35    1
     2    35     1    1
     3     1     2   ar
     4     2     3   ar
     5     3     4   ar
     6     4     5   ar
     7     5     6   ar
     8     6     7    1
     9     4     8   ar
    10     8    36    1
    11    36    37    3
    12     8     9   ar
    13     9    11    1
    14    11    12   ar
    15    12    13   ar
    16    13    14   ar
    17    14    17    1
    18    17    18    2
    19    17    19    2
    20    17    20    1
    21    20    22    1
    22    22    23    1
    23    22    24    1
    24    24    25    1
    25    24    26    1
    26    24    27    1
    27    14    15   ar
    28    15    16   ar
    29     9    10   ar
    30    10    28    1
    31    28    29   ar
    32    29    30   ar
    33    30    31   ar
    34    31    32   ar
    35    32    33   ar
    36     6     1   ar
    37    16    11   ar
    38    33    28   ar
    39    10     3   ar
    40    20    21    1
@<TRIPOS>MOLECULE
*****
 37 40 0 0 0
SMALL
GASTEIGER

@<TRIPOS>ATOM
      1 C           1.8993   -0.0838   21.1616 C.ar    1  UNL1        0.0067
      2 C           1.5744    0.5508   22.4813 C.ar    1  UNL1        0.0155
      3 C           2.3286    0.1473   23.7135 C.ar    1  UNL1        0.0659
      4 C           3.4078   -0.8908   23.6260 C.ar    1  UNL1        0.0295
      5 C           3.7328   -1.5253   22.3063 C.ar    1  UNL1        0.0315
      6 C           2.9786   -1.1219   21.0741 C.ar    1  UNL1        0.1362
      7 F           3.3036   -1.7565   19.7544 F       1  UNL1       -0.2045
      8 C           3.9770   -1.0846   25.0002 C.ar    1  UNL1        0.0875
      9 C           3.2495   -0.1664   25.9371 C.ar    1  UNL1        0.0925
     10 N           2.2307    0.5950   25.1419 N.ar    1  UNL1       -0.2896
     11 C           3.4973   -0.0329   27.4105 C.ar    1  UNL1        0.0981
     12 C           4.6744    0.7546   27.9047 C.ar    1  UNL1        0.0220
     13 C           4.9222    0.8880   29.3781 C.ar    1  UNL1        0.0231
     14 C           3.9929    0.2338   30.3571 C.ar    1  UNL1        0.1410
     15 C           2.8159   -0.5537   29.8629 C.ar    1  UNL1        0.1187
     16 N           2.5681   -0.6871   28.3896 N.ar    1  UNL1       -0.2409
     17 S           4.2408    0.3672   31.8306 S.O2    1  UNL1        0.0619
     18 O           5.7155    0.2263   31.5952 O.2     1  UNL1       -0.1529
     19 O           2.7661    0.5082   32.0658 O.2     1  UNL1       -0.1529
     20 N           4.4886    0.5007   33.3039 N.3     1  UNL1       -0.1723
     21 H           3.6490    0.9165   33.7072 H       1  UNL1        0.1491
     22 C           4.8068   -0.7143   34.1240 C.3     1  UNL1        0.1701
     23 C           4.3447   -2.0674   33.6705 C.3     1  UNL1        0.0278
     24 C           5.5872   -0.5763   35.3975 C.3     1  UNL1        0.4118
     25 F           6.3675   -0.4382   36.6711 F       1  UNL1       -0.1685
     26 F           4.3152   -0.6707   36.1871 F       1  UNL1       -0.1685
     27 F           6.8590   -0.4819   34.6079 F       1  UNL1       -0.1685
     28 C           1.2809    1.6235   25.6803 C.ar    1  UNL1        0.1477
     29 C          -0.1907    1.3362   25.7224 C.ar    1  UNL1        0.0374
     30 C          -1.1406    2.3646   26.2608 C.ar    1  UNL1        0.0047
     31 C          -0.6188    3.6804   26.7573 C.ar    1  UNL1        0.0208
     32 C           0.8528    3.9677   26.7152 C.ar    1  UNL1        0.1005
     33 N           1.8027    2.9393   26.1768 N.ar    1  UNL1       -0.2264
     34 C           1.8458    1.0627   18.8308 C.3     1  UNL1        0.0051
     35 C           1.1451    0.3197   19.9294 C.3     1  UNL1        0.0287
     36 C           5.0800   -2.0307   25.3723 C.1     1  UNL1        0.1020
     37 N           6.1830   -2.9767   25.7443 N.1     1  UNL1       -0.1908
@<TRIPOS>BOND
     1    34    35    1
     2    35     1    1
     3     1     2   ar
     4     2     3   ar
     5     3     4   ar
     6     4     5   ar
     7     5     6   ar
     8     6     7    1
     9     4     8   ar
    10     8    36    1
    11    36    37    3
    12     8     9   ar
    13     9    11    1
    14    11    12   ar
    15    12    13   ar
    16    13    14   ar
    17    14    17    1
    18    17    18    2
    19    17    19    2
    20    17    20    1
    21    20    22    1
    22    22    23    1
    23    22    24    1
    24    24    25    1
    25    24    26    1
    26    24    27    1
    27    14    15   ar
    28    15    16   ar
    29     9    10   ar
    30    10    28    1
    31    28    29   ar
    32    29    30   ar
    33    30    31   ar
    34    31    32   ar
    35    32    33   ar
    36     6     1   ar
    37    16    11   ar
    38    33    28   ar
    39    10     3   ar
    40    20    21    1
@<TRIPOS>MOLECULE
*****
 37 40 0 0 0
SMALL
GASTEIGER

@<TRIPOS>ATOM
      1 C          -5.6217    4.8683   24.7351 C.ar    1  UNL1        0.0067
      2 C          -5.1092    4.5652   23.3584 C.ar    1  UNL1        0.0155
      3 C          -3.7190    4.0321   23.1762 C.ar    1  UNL1        0.0659
      4 C          -2.8414    3.8021   24.3706 C.ar    1  UNL1        0.0295
      5 C          -3.3539    4.1052   25.7473 C.ar    1  UNL1        0.0315
      6 C          -4.7441    4.6383   25.9296 C.ar    1  UNL1        0.1362
      7 F          -5.2566    4.9414   27.3064 F       1  UNL1       -0.2045
      8 C          -1.5254    3.2719   23.8837 C.ar    1  UNL1        0.0875
      9 C          -1.5898    3.1741   22.3882 C.ar    1  UNL1        0.0925
     10 N          -2.9455    3.6440   21.9509 N.ar    1  UNL1       -0.2896
     11 C          -0.4912    2.6913   21.4881 C.ar    1  UNL1        0.0981
     12 C           0.6784    3.5813   21.1883 C.ar    1  UNL1        0.0220
     13 C           1.7769    3.0985   20.2883 C.ar    1  UNL1        0.0231
     14 C           1.7057    1.7257   19.6880 C.ar    1  UNL1        0.1410
     15 C           0.5361    0.8357   19.9877 C.ar    1  UNL1        0.1187
     16 N          -0.5624    1.3185   20.8878 N.ar    1  UNL1       -0.2409
     17 S           2.8043    1.2429   18.7879 S.O2    1  UNL1        0.0619
     18 O           1.8052    0.4601   17.9883 O.2     1  UNL1       -0.1529
     19 O           3.8033    2.0256   19.5874 O.2     1  UNL1       -0.1529
     20 N           3.9029    0.7601   17.8878 N.3     1  UNL1       -0.1723
     21 H           4.4366    1.5828   17.6072 H       1  UNL1        0.1491
     22 C           4.8936   -0.2488   18.3883 C.3     1  UNL1        0.1701
     23 C           6.3562   -0.0652   18.1109 C.3     1  UNL1        0.0278
     24 C           4.4218   -1.4413   19.1663 C.3     1  UNL1        0.4118
     25 F           3.9500   -2.6339   19.9443 F       1  UNL1       -0.1685
     26 F           5.0305   -0.8693   20.4122 F       1  UNL1       -0.1685
     27 F           3.8131   -2.0133   17.9203 F       1  UNL1       -0.1685
     28 C          -3.4408    3.7136   20.5368 C.ar    1  UNL1        0.1477
     29 C          -4.8551    3.3292   20.2177 C.ar    1  UNL1        0.0374
     30 C          -5.3505    3.3987   18.8036 C.ar    1  UNL1        0.0047
     31 C          -4.4314    3.8527   17.7085 C.ar    1  UNL1        0.0208
     32 C          -3.0170    4.2371   18.0276 C.ar    1  UNL1        0.1005
     33 N          -2.5217    4.1675   19.4417 N.ar    1  UNL1       -0.2264
     34 C          -8.1129    4.9532   24.0027 C.3     1  UNL1        0.0051
     35 C          -7.0119    5.4014   24.9174 C.3     1  UNL1        0.0287
     36 C          -0.3513    2.9039   24.7415 C.1     1  UNL1        0.1020
     37 N           0.8229    2.5359   25.5995 N.1     1  UNL1       -0.1908
@<TRIPOS>BOND
     1    34    35    1
     2    35     1    1
     3     1     2   ar
     4     2     3   ar
     5     3     4   ar
     6     4     5   ar
     7     5     6   ar
     8     6     7    1
     9     4     8   ar
    10     8    36    1
    11    36    37    3
    12     8     9   ar
    13     9    11    1
    14    11    12   ar
    15    12    13   ar
    16    13    14   ar
    17    14    17    1
    18    17    18    2
    19    17    19    2
    20    17    20    1
    21    20    22    1
    22    22    23    1
    23    22    24    1
    24    24    25    1
    25    24    26    1
    26    24    27    1
    27    14    15   ar
    28    15    16   ar
    29     9    10   ar
    30    10    28    1
    31    28    29   ar
    32    29    30   ar
    33    30    31   ar
    34    31    32   ar
    35    32    33   ar
    36     6     1   ar
    37    16    11   ar
    38    33    28   ar
    39    10     3   ar
    40    20    21    1
@<TRIPOS>MOLECULE
*****
 37 40 0 0 0
SMALL
GASTEIGER

@<TRIPOS>ATOM
      1 C           7.6583   -4.9197   24.6774 C.ar    1  UNL1        0.0067
      2 C           6.9695   -4.3651   23.4658 C.ar    1  UNL1        0.0155
      3 C           5.9350   -3.2896   23.6176 C.ar    1  UNL1        0.0659
      4 C           5.5892   -2.7687   24.9811 C.ar    1  UNL1        0.0295
      5 C           6.2780   -3.3233   26.1927 C.ar    1  UNL1        0.0315
      6 C           7.3125   -4.3988   26.0408 C.ar    1  UNL1        0.1362
      7 F           8.0013   -4.9534   27.2525 F       1  UNL1       -0.2045
      8 C           4.5361   -1.7127   24.8205 C.ar    1  UNL1        0.0875
      9 C           4.2310   -1.5810   23.3577 C.ar    1  UNL1        0.0925
     10 N           5.0955   -2.5556   22.6143 N.ar    1  UNL1       -0.2896
     11 C           3.2360   -0.6398   22.7459 C.ar    1  UNL1        0.0981
     12 C           2.4691   -1.0497   21.5237 C.ar    1  UNL1        0.0220
     13 C           1.4742   -0.1086   20.9119 C.ar    1  UNL1        0.0231
     14 C           1.2461    1.2425   21.5223 C.ar    1  UNL1        0.1410
     15 C           2.0130    1.6524   22.7445 C.ar    1  UNL1        0.1187
     16 N           3.0080    0.7113   23.3563 N.ar    1  UNL1       -0.2409
     17 S           0.2511    2.1836   20.9105 S.O2    1  UNL1        0.0619
     18 O           1.0914    3.3502   21.3386 O.2     1  UNL1       -0.1529
     19 O          -0.5890    1.0171   20.4825 O.2     1  UNL1       -0.1529
     20 N          -0.7438    3.1247   20.2987 N.3     1  UNL1       -0.1723
     21 H          -0.9226    2.7895   19.3520 H       1  UNL1        0.1491
     22 C          -2.0816    3.3268   20.9464 C.3     1  UNL1        0.1701
     23 C          -2.1693    3.5866   22.4211 C.3     1  UNL1        0.0278
     24 C          -3.3317    3.2693   20.1194 C.3     1  UNL1        0.4118
     25 F          -4.5818    3.2117   19.2923 F       1  UNL1       -0.1685
     26 F          -2.5331    3.5879   18.8902 F       1  UNL1       -0.1685
     27 F          -4.1301    2.9507   21.3485 F       1  UNL1       -0.1685
     28 C           5.1170   -2.7602   21.1285 C.ar    1  UNL1        0.1477
     29 C           4.4530   -3.9635   20.5275 C.ar    1  UNL1        0.0374
     30 C           4.4744   -4.1682   19.0417 C.ar    1  UNL1        0.0047
     31 C           5.1597   -3.1695   18.1569 C.ar    1  UNL1        0.0208
     32 C           5.8236   -1.9662   18.7579 C.ar    1  UNL1        0.1005
     33 N           5.8023   -1.7615   20.2437 N.ar    1  UNL1       -0.2264
     34 C           8.2922   -7.4383   24.6083 C.3     1  UNL1        0.0051
     35 C           8.6928   -5.9952   24.5255 C.3     1  UNL1        0.0287
     36 C           3.8998   -0.9265   25.9282 C.1     1  UNL1        0.1020
     37 N           3.2635   -0.1403   27.0359 N.1     1  UNL1       -0.1908
@<TRIPOS>BOND
     1    34    35    1
     2    35     1    1
     3     1     2   ar
     4     2     3   ar
     5     3     4   ar
     6     4     5   ar
     7     5     6   ar
     8     6     7    1
     9     4     8   ar
    10     8    36    1
    11    36    37    3
    12     8     9   ar
    13     9    11    1
    14    11    12   ar
    15    12    13   ar
    16    13    14   ar
    17    14    17    1
    18    17    18    2
    19    17    19    2
    20    17    20    1
    21    20    22    1
    22    22    23    1
    23    22    24    1
    24    24    25    1
    25    24    26    1
    26    24    27    1
    27    14    15   ar
    28    15    16   ar
    29     9    10   ar
    30    10    28    1
    31    28    29   ar
    32    29    30   ar
    33    30    31   ar
    34    31    32   ar
    35    32    33   ar
    36     6     1   ar
    37    16    11   ar
    38    33    28   ar
    39    10     3   ar
    40    20    21    1
@<TRIPOS>MOLECULE
*****
 37 40 0 0 0
SMALL
GASTEIGER

@<TRIPOS>ATOM
      1 C           6.2555   -3.2915   31.1518 C.ar    1  UNL1        0.0067
      2 C           5.8550   -2.2785   30.1207 C.ar    1  UNL1        0.0155
      3 C           6.0246   -2.5853   28.6623 C.ar    1  UNL1        0.0659
      4 C           6.5947   -3.9053   28.2349 C.ar    1  UNL1        0.0295
      5 C           6.9952   -4.9184   29.2661 C.ar    1  UNL1        0.0315
      6 C           6.8256   -4.6115   30.7245 C.ar    1  UNL1        0.1362
      7 F           7.2261   -5.6247   31.7556 F       1  UNL1       -0.2045
      8 C           6.6440   -3.9254   26.7359 C.ar    1  UNL1        0.0875
      9 C           6.1044   -2.6178   26.2368 C.ar    1  UNL1        0.0925
     10 N           5.7216   -1.7896   27.4273 N.ar    1  UNL1       -0.2896
     11 C           5.9711   -2.2101   24.7993 C.ar    1  UNL1        0.0981
     12 C           7.1903   -1.8357   24.0098 C.ar    1  UNL1        0.0220
     13 C           7.0569   -1.4280   22.5725 C.ar    1  UNL1        0.0231
     14 C           5.7044   -1.3947   21.9247 C.ar    1  UNL1        0.1410
     15 C           4.4852   -1.7691   22.7143 C.ar    1  UNL1        0.1187
     16 N           4.6186   -2.1768   24.1516 N.ar    1  UNL1       -0.2409
     17 S           5.5711   -0.9870   20.4873 S.O2    1  UNL1        0.0619
     18 O           7.0226   -1.2938   20.2656 O.2     1  UNL1       -0.1529
     19 O           4.1197   -0.6802   20.7090 O.2     1  UNL1       -0.1529
     20 N           5.4377   -0.5793   19.0500 N.3     1  UNL1       -0.1723
     21 H           6.3841   -0.4571   18.6895 H       1  UNL1        0.1491
     22 C           4.7171   -1.4697   18.0815 C.3     1  UNL1        0.1701
     23 C           3.8817   -0.8696   16.9898 C.3     1  UNL1        0.0278
     24 C           4.8319   -2.9602   18.2049 C.3     1  UNL1        0.4118
     25 F           4.9466   -4.4507   18.3283 F       1  UNL1       -0.1685
     26 F           3.4216   -3.0267   18.7117 F       1  UNL1       -0.1685
     27 F           6.2420   -2.8935   17.6981 F       1  UNL1       -0.1685
     28 C           5.1382   -0.4082   27.3896 C.ar    1  UNL1        0.1477
     29 C           3.6612   -0.2129   27.5630 C.ar    1  UNL1        0.0374
     30 C           3.0777    1.1684   27.5253 C.ar    1  UNL1        0.0047
     31 C           3.9714    2.3545   27.3142 C.ar    1  UNL1        0.0208
     32 C           5.4485    2.1592   27.1407 C.ar    1  UNL1        0.1005
     33 N           6.0319    0.7779   27.1784 N.ar    1  UNL1       -0.2264
     34 C           4.8393   -2.3049   33.0937 C.3     1  UNL1        0.0051
     35 C           6.0859   -2.9847   32.6103 C.3     1  UNL1        0.0287
     36 C           7.1450   -5.0548   25.8853 C.1     1  UNL1        0.1020
     37 N           7.6461   -6.1842   25.0347 N.1     1  UNL1       -0.1908
@<TRIPOS>BOND
     1    34    35    1
     2    35     1    1
     3     1     2   ar
     4     2     3   ar
     5     3     4   ar
     6     4     5   ar
     7     5     6   ar
     8     6     7    1
     9     4     8   ar
    10     8    36    1
    11    36    37    3
    12     8     9   ar
    13     9    11    1
    14    11    12   ar
    15    12    13   ar
    16    13    14   ar
    17    14    17    1
    18    17    18    2
    19    17    19    2
    20    17    20    1
    21    20    22    1
    22    22    23    1
    23    22    24    1
    24    24    25    1
    25    24    26    1
    26    24    27    1
    27    14    15   ar
    28    15    16   ar
    29     9    10   ar
    30    10    28    1
    31    28    29   ar
    32    29    30   ar
    33    30    31   ar
    34    31    32   ar
    35    32    33   ar
    36     6     1   ar
    37    16    11   ar
    38    33    28   ar
    39    10     3   ar
    40    20    21    1
@<TRIPOS>MOLECULE
*****
 37 40 0 0 0
SMALL
GASTEIGER

@<TRIPOS>ATOM
      1 C           3.8607    2.1440   37.2080 C.ar    1  UNL1        0.0067
      2 C           4.0177    1.3677   35.9341 C.ar    1  UNL1        0.0155
      3 C           3.2346    1.7588   34.7160 C.ar    1  UNL1        0.0659
      4 C           2.2946    2.9263   34.7718 C.ar    1  UNL1        0.0295
      5 C           2.1376    3.7027   36.0456 C.ar    1  UNL1        0.0315
      6 C           2.9206    3.3115   37.2637 C.ar    1  UNL1        0.1362
      7 F           2.7636    4.0879   38.5375 F       1  UNL1       -0.2045
      8 C           1.6603    3.0756   33.4207 C.ar    1  UNL1        0.0875
      9 C           2.2084    2.0003   32.5299 C.ar    1  UNL1        0.0925
     10 N           3.1814    1.1865   33.3305 N.ar    1  UNL1       -0.2896
     11 C           1.8469    1.7780   31.0912 C.ar    1  UNL1        0.0981
     12 C           2.0999    2.8558   30.0791 C.ar    1  UNL1        0.0220
     13 C           1.7384    2.6334   28.6404 C.ar    1  UNL1        0.0231
     14 C           1.1239    1.3332   28.2138 C.ar    1  UNL1        0.1410
     15 C           0.8709    0.2554   29.2259 C.ar    1  UNL1        0.1187
     16 N           1.2324    0.4778   30.6646 N.ar    1  UNL1       -0.2409
     17 S           0.7624    1.1109   26.7751 S.O2    1  UNL1        0.0619
     18 O          -0.6487    0.7999   27.1777 O.2     1  UNL1       -0.1529
     19 O           2.1735    1.4218   26.3725 O.2     1  UNL1       -0.1529
     20 N           0.4010    0.8885   25.3364 N.3     1  UNL1       -0.1723
     21 H          -0.4913    0.3944   25.3299 H       1  UNL1        0.1491
     22 C           0.2543    2.0594   24.4103 C.3     1  UNL1        0.1701
     23 C           0.7150    1.9521   22.9869 C.3     1  UNL1        0.0278
     24 C          -0.3531    3.3375   24.9077 C.3     1  UNL1        0.4118
     25 F          -0.9606    4.6157   25.4051 F       1  UNL1       -0.1685
     26 F           0.9995    3.9857   24.8937 F       1  UNL1       -0.1685
     27 F          -1.7057    2.6892   24.9216 F       1  UNL1       -0.1685
     28 C           3.9638    0.0074   32.8329 C.ar    1  UNL1        0.1477
     29 C           4.8905    0.1617   31.6636 C.ar    1  UNL1        0.0374
     30 C           5.6729   -1.0173   31.1660 C.ar    1  UNL1        0.0047
     31 C           5.5286   -2.3507   31.8378 C.ar    1  UNL1        0.0208
     32 C           4.6019   -2.5050   33.0071 C.ar    1  UNL1        0.1005
     33 N           3.8194   -1.3260   33.5047 N.ar    1  UNL1       -0.2264
     34 C           5.7607    2.6278   38.9126 C.3     1  UNL1        0.0051
     35 C           4.6438    1.7528   38.4260 C.3     1  UNL1        0.0287
     36 C           0.6545    4.1173   33.0291 C.1     1  UNL1        0.1020
     37 N          -0.3513    5.1591   32.6376 N.1     1  UNL1       -0.1908
@<TRIPOS>BOND
     1    34    35    1
     2    35     1    1
     3     1     2   ar
     4     2     3   ar
     5     3     4   ar
     6     4     5   ar
     7     5     6   ar
     8     6     7    1
     9     4     8   ar
    10     8    36    1
    11    36    37    3
    12     8     9   ar
    13     9    11    1
    14    11    12   ar
    15    12    13   ar
    16    13    14   ar
    17    14    17    1
    18    17    18    2
    19    17    19    2
    20    17    20    1
    21    20    22    1
    22    22    23    1
    23    22    24    1
    24    24    25    1
    25    24    26    1
    26    24    27    1
    27    14    15   ar
    28    15    16   ar
    29     9    10   ar
    30    10    28    1
    31    28    29   ar
    32    29    30   ar
    33    30    31   ar
    34    31    32   ar
    35    32    33   ar
    36     6     1   ar
    37    16    11   ar
    38    33    28   ar
    39    10     3   ar
    40    20    21    1
@<TRIPOS>MOLECULE
*****
 37 40 0 0 0
SMALL
GASTEIGER

@<TRIPOS>ATOM
      1 C           4.6423   -3.0461   20.4769 C.ar    1  UNL1        0.0067
      2 C           5.3529   -3.2118   21.7874 C.ar    1  UNL1        0.0155
      3 C           4.9098   -2.4255   22.9855 C.ar    1  UNL1        0.0659
      4 C           3.7561   -1.4735   22.8731 C.ar    1  UNL1        0.0295
      5 C           3.0455   -1.3078   21.5625 C.ar    1  UNL1        0.0315
      6 C           3.4886   -2.0941   20.3644 C.ar    1  UNL1        0.1362
      7 F           2.7779   -1.9284   19.0538 F       1  UNL1       -0.2045
      8 C           3.5464   -0.8386   24.2158 C.ar    1  UNL1        0.0875
      9 C           4.5706   -1.3982   25.1581 C.ar    1  UNL1        0.0925
     10 N           5.4132   -2.3789   24.3978 N.ar    1  UNL1       -0.2896
     11 C           4.7250   -1.0399   26.6066 C.ar    1  UNL1        0.0981
     12 C           3.5863   -1.2569   27.5584 C.ar    1  UNL1        0.0220
     13 C           3.7407   -0.8986   29.0067 C.ar    1  UNL1        0.0231
     14 C           5.0339   -0.3232   29.5032 C.ar    1  UNL1        0.1410
     15 C           6.1727   -0.1062   28.5514 C.ar    1  UNL1        0.1187
     16 N           6.0183   -0.4645   27.1031 N.ar    1  UNL1       -0.2409
     17 S           5.1884    0.0351   30.9516 S.O2    1  UNL1        0.0619
     18 O           3.7004    0.1803   31.0744 O.2     1  UNL1       -0.1529
     19 O           6.6762   -0.1101   30.8289 O.2     1  UNL1       -0.1529
     20 N           5.3428    0.3934   32.4000 N.3     1  UNL1       -0.1723
     21 H           4.4390    0.7470   32.7138 H       1  UNL1        0.1491
     22 C           5.7667   -0.6509   33.3899 C.3     1  UNL1        0.1701
     23 C           6.9565   -0.4101   34.2709 C.3     1  UNL1        0.0278
     24 C           5.0007   -1.9359   33.4987 C.3     1  UNL1        0.4118
     25 F           4.2346   -3.2210   33.6076 F       1  UNL1       -0.1685
     26 F           3.8628   -1.2028   34.1452 F       1  UNL1       -0.1685
     27 F           6.1385   -2.6689   32.8523 F       1  UNL1       -0.1685
     28 C           6.5582   -3.1736   24.9523 C.ar    1  UNL1        0.1477
     29 C           7.9596   -2.8838   24.5027 C.ar    1  UNL1        0.0374
     30 C           9.1046   -3.6785   25.0572 C.ar    1  UNL1        0.0047
     31 C           8.8482   -4.7629   26.0613 C.ar    1  UNL1        0.0208
     32 C           7.4468   -5.0527   26.5109 C.ar    1  UNL1        0.1005
     33 N           6.3018   -4.2581   25.9564 N.ar    1  UNL1       -0.2264
     34 C           4.3512   -5.0803   18.8873 C.3     1  UNL1        0.0051
     35 C           5.0854   -3.8323   19.2788 C.3     1  UNL1        0.0287
     36 C           2.4969    0.1775   24.5564 C.1     1  UNL1        0.1020
     37 N           1.4473    1.1937   24.8969 N.1     1  UNL1       -0.1908
@<TRIPOS>BOND
     1    34    35    1
     2    35     1    1
     3     1     2   ar
     4     2     3   ar
     5     3     4   ar
     6     4     5   ar
     7     5     6   ar
     8     6     7    1
     9     4     8   ar
    10     8    36    1
    11    36    37    3
    12     8     9   ar
    13     9    11    1
    14    11    12   ar
    15    12    13   ar
    16    13    14   ar
    17    14    17    1
    18    17    18    2
    19    17    19    2
    20    17    20    1
    21    20    22    1
    22    22    23    1
    23    22    24    1
    24    24    25    1
    25    24    26    1
    26    24    27    1
    27    14    15   ar
    28    15    16   ar
    29     9    10   ar
    30    10    28    1
    31    28    29   ar
    32    29    30   ar
    33    30    31   ar
    34    31    32   ar
    35    32    33   ar
    36     6     1   ar
    37    16    11   ar
    38    33    28   ar
    39    10     3   ar
    40    20    21    1
@<TRIPOS>MOLECULE
*****
 37 40 0 0 0
SMALL
GASTEIGER

@<TRIPOS>ATOM
      1 C         -13.2322  -17.8540   23.4395 C.ar    1  UNL1        0.0067
      2 C         -11.8759  -17.5730   24.0153 C.ar    1  UNL1        0.0155
      3 C         -10.6429  -17.9317   23.2399 C.ar    1  UNL1        0.0659
      4 C         -10.7663  -18.5713   21.8888 C.ar    1  UNL1        0.0295
      5 C         -12.1225  -18.8523   21.3130 C.ar    1  UNL1        0.0315
      6 C         -13.3555  -18.4936   22.0884 C.ar    1  UNL1        0.1362
      7 F         -14.7118  -18.7746   21.5125 F       1  UNL1       -0.2045
      8 C          -9.3826  -18.8116   21.3617 C.ar    1  UNL1        0.0875
      9 C          -8.4042  -18.3204   22.3871 C.ar    1  UNL1        0.0925
     10 N          -9.1831  -17.7766   23.5479 N.ar    1  UNL1       -0.2896
     11 C          -6.9092  -18.3653   22.2719 C.ar    1  UNL1        0.0981
     12 C          -6.2397  -19.5596   21.6593 C.ar    1  UNL1        0.0220
     13 C          -4.7448  -19.6044   21.5441 C.ar    1  UNL1        0.0231
     14 C          -3.9195  -18.4549   22.0414 C.ar    1  UNL1        0.1410
     15 C          -4.5890  -17.2605   22.6539 C.ar    1  UNL1        0.1187
     16 N          -6.0839  -17.2157   22.7692 N.ar    1  UNL1       -0.2409
     17 S          -2.4245  -18.4997   21.9262 S.O2    1  UNL1        0.0619
     18 O          -2.3506  -17.0552   22.3236 O.2     1  UNL1       -0.1529
     19 O          -2.4986  -19.9442   21.5287 O.2     1  UNL1       -0.1529
     20 N          -0.9297  -18.5446   21.8109 N.3     1  UNL1       -0.1723
     21 H          -0.6590  -19.5261   21.8722 H       1  UNL1        0.1491
     22 C          -0.2541  -17.9843   20.5945 C.3     1  UNL1        0.1701
     23 C           1.2426  -17.9018   20.5390 C.3     1  UNL1        0.0278
     24 C          -1.0751  -17.5064   19.4337 C.3     1  UNL1        0.4118
     25 F          -1.8962  -17.0286   18.2729 F       1  UNL1       -0.1685
     26 F          -1.2800  -18.9260   18.9943 F       1  UNL1       -0.1685
     27 F          -0.8702  -16.0870   19.8731 F       1  UNL1       -0.1685
     28 C          -8.6039  -17.1821   24.7974 C.ar    1  UNL1        0.1477
     29 C          -9.0408  -17.6871   26.1405 C.ar    1  UNL1        0.0374
     30 C          -8.4616  -17.0927   27.3900 C.ar    1  UNL1        0.0047
     31 C          -7.4455  -15.9932   27.2963 C.ar    1  UNL1        0.0208
     32 C          -7.0086  -15.4883   25.9531 C.ar    1  UNL1        0.1005
     33 N          -7.5877  -16.0827   24.7036 N.ar    1  UNL1       -0.2264
     34 C         -15.1195  -18.5164   25.0975 C.3     1  UNL1        0.0051
     35 C         -14.4651  -17.4954   24.2149 C.3     1  UNL1        0.0287
     36 C          -9.0380  -19.4338   20.0411 C.1     1  UNL1        0.1020
     37 N          -8.6934  -20.0560   18.7204 N.1     1  UNL1       -0.1908
@<TRIPOS>BOND
     1    34    35    1
     2    35     1    1
     3     1     2   ar
     4     2     3   ar
     5     3     4   ar
     6     4     5   ar
     7     5     6   ar
     8     6     7    1
     9     4     8   ar
    10     8    36    1
    11    36    37    3
    12     8     9   ar
    13     9    11    1
    14    11    12   ar
    15    12    13   ar
    16    13    14   ar
    17    14    17    1
    18    17    18    2
    19    17    19    2
    20    17    20    1
    21    20    22    1
    22    22    23    1
    23    22    24    1
    24    24    25    1
    25    24    26    1
    26    24    27    1
    27    14    15   ar
    28    15    16   ar
    29     9    10   ar
    30    10    28    1
    31    28    29   ar
    32    29    30   ar
    33    30    31   ar
    34    31    32   ar
    35    32    33   ar
    36     6     1   ar
    37    16    11   ar
    38    33    28   ar
    39    10     3   ar
    40    20    21    1
