@<TRIPOS>MOLECULE
*****
 30 34 0 0 0
SMALL
GASTEIGER

@<TRIPOS>ATOM
      1 C          -7.1873  -17.3575   23.2554 C.ar    1  UNL1        0.0389
      2 C          -5.8334  -16.7517   23.4788 C.ar    1  UNL1        0.0026
      3 C          -4.6246  -17.3560   22.8279 C.ar    1  UNL1        0.0177
      4 C          -3.2707  -16.7501   23.0513 C.ar    1  UNL1        0.0038
      5 C          -2.0620  -17.3545   22.4004 C.ar    1  UNL1        0.0297
      6 C          -2.2071  -18.5646   21.5261 C.ar    1  UNL1        0.1416
      7 F          -0.9983  -19.1690   20.8752 F       1  UNL1       -0.2041
      8 C          -3.5610  -19.1705   21.3027 C.ar    1  UNL1        0.0487
      9 C          -4.7697  -18.5661   21.9536 C.ar    1  UNL1        0.0835
     10 N          -6.1237  -19.1720   21.7302 N.ar    1  UNL1       -0.2440
     11 C          -7.3324  -18.5677   22.3811 C.ar    1  UNL1        0.0985
     12 C          -8.6864  -19.1735   22.1576 C.ar    1  UNL1        0.0987
     13 C          -9.3812  -19.8903   23.2772 C.ar    1  UNL1        0.0207
     14 C         -10.7351  -20.4961   23.0538 C.ar    1  UNL1        0.0032
     15 C         -11.3941  -20.3851   21.7109 C.ar    1  UNL1        0.0207
     16 C         -10.6993  -19.6683   20.5914 C.ar    1  UNL1        0.0989
     17 N          -9.3454  -19.0625   20.8148 N.ar    1  UNL1       -0.2423
     18 C          -8.7353  -17.0990   25.3259 C.3     1  UNL1        0.0557
     19 C          -8.3961  -16.7532   23.9063 C.3     1  UNL1        0.1808
     20 N          -9.2657  -15.8030   23.1375 N.pl3   1  UNL1       -0.2199
     21 H          -8.9712  -14.8752   22.9906 H       1  UNL1        0.2922
     22 C         -10.5841  -16.2666   22.5925 C.2     1  UNL1        0.3369
     23 N         -11.5188  -17.0555   23.4607 N.2     1  UNL1        0.0113
     24 C         -12.8373  -17.5190   22.9158 C.2     1  UNL1        0.4718
     25 N         -13.2209  -17.1937   21.5026 N.2     1  UNL1        0.0177
     26 C         -12.2860  -16.4047   20.6344 C.2     1  UNL1        0.3919
     27 N         -12.3908  -15.9361   19.2134 N.2     1  UNL1       -0.0102
     28 C         -11.1372  -15.1829   18.8801 C.2     1  UNL1        0.3354
     29 N         -10.2576  -15.1860   20.0951 N.2     1  UNL1       -0.2031
     30 C         -10.9677  -15.9412   21.1794 C.3     1  UNL1        0.3227
@<TRIPOS>BOND
     1    19    18    1
     2    19    20    1
     3    20    22    1
     4    22    23    2
     5    23    24    1
     6    24    25    2
     7    25    26    1
     8    26    27    2
     9    27    28    1
    10    28    29    2
    11    29    30    1
    12    19     1    1
    13     1     2   ar
    14     2     3   ar
    15     3     4   ar
    16     4     5   ar
    17     5     6   ar
    18     6     7    1
    19     6     8   ar
    20     8     9   ar
    21     9    10   ar
    22    10    11   ar
    23    11    12    1
    24    12    13   ar
    25    13    14   ar
    26    14    15   ar
    27    15    16   ar
    28    16    17   ar
    29    30    22    1
    30    11     1   ar
    31    17    12   ar
    32    30    26    1
    33     9     3   ar
    34    20    21    1
@<TRIPOS>MOLECULE
*****
 30 34 0 0 0
SMALL
GASTEIGER

@<TRIPOS>ATOM
      1 C          -7.5542  -19.0309   22.4345 C.ar    1  UNL1        0.0389
      2 C          -6.1762  -19.4924   22.8058 C.ar    1  UNL1        0.0026
      3 C          -5.0542  -19.3752   21.8171 C.ar    1  UNL1        0.0177
      4 C          -3.6761  -19.8367   22.1883 C.ar    1  UNL1        0.0038
      5 C          -2.5542  -19.7194   21.1996 C.ar    1  UNL1        0.0297
      6 C          -2.8104  -19.1406   19.8397 C.ar    1  UNL1        0.1416
      7 F          -1.6884  -19.0233   18.8510 F       1  UNL1       -0.2041
      8 C          -4.1884  -18.6790   19.4685 C.ar    1  UNL1        0.0487
      9 C          -5.3103  -18.7963   20.4572 C.ar    1  UNL1        0.0835
     10 N          -6.6885  -18.3348   20.0860 N.ar    1  UNL1       -0.2440
     11 C          -7.8104  -18.4520   21.0746 C.ar    1  UNL1        0.0985
     12 C          -9.1886  -17.9905   20.7034 C.ar    1  UNL1        0.0987
     13 C         -10.1067  -18.9035   19.9461 C.ar    1  UNL1        0.0207
     14 C         -11.4847  -18.4420   19.5749 C.ar    1  UNL1        0.0032
     15 C         -11.9447  -17.0675   19.9610 C.ar    1  UNL1        0.0207
     16 C         -11.0266  -16.1545   20.7184 C.ar    1  UNL1        0.0989
     17 N          -9.6485  -16.6160   21.0896 N.ar    1  UNL1       -0.2423
     18 C          -9.1730  -20.5017   23.8369 C.3     1  UNL1        0.0557
     19 C          -8.6762  -19.1481   23.4232 C.3     1  UNL1        0.1808
     20 N          -9.3014  -17.9118   23.9982 N.pl3   1  UNL1       -0.2199
     21 H         -10.1830  -17.6118   23.6787 H       1  UNL1        0.2922
     22 C          -8.5836  -17.1327   25.0601 C.2     1  UNL1        0.3369
     23 N          -9.0503  -17.1994   26.4840 N.2     1  UNL1        0.0113
     24 C          -8.3324  -16.4203   27.5459 C.2     1  UNL1        0.4718
     25 N          -7.1478  -15.5743   27.1838 N.2     1  UNL1        0.0177
     26 C          -6.6811  -15.5076   25.7598 C.2     1  UNL1        0.3919
     27 N          -5.5525  -14.7656   25.1073 N.2     1  UNL1       -0.0102
     28 C          -5.5729  -15.0863   23.6421 C.2     1  UNL1        0.3354
     29 N          -6.7141  -16.0263   23.3891 N.2     1  UNL1       -0.2031
     30 C          -7.3990  -16.2867   24.6980 C.3     1  UNL1        0.3227
@<TRIPOS>BOND
     1    19    18    1
     2    19    20    1
     3    20    22    1
     4    22    23    2
     5    23    24    1
     6    24    25    2
     7    25    26    1
     8    26    27    2
     9    27    28    1
    10    28    29    2
    11    29    30    1
    12    19     1    1
    13     1     2   ar
    14     2     3   ar
    15     3     4   ar
    16     4     5   ar
    17     5     6   ar
    18     6     7    1
    19     6     8   ar
    20     8     9   ar
    21     9    10   ar
    22    10    11   ar
    23    11    12    1
    24    12    13   ar
    25    13    14   ar
    26    14    15   ar
    27    15    16   ar
    28    16    17   ar
    29    30    22    1
    30    11     1   ar
    31    17    12   ar
    32    30    26    1
    33     9     3   ar
    34    20    21    1
@<TRIPOS>MOLECULE
*****
 30 34 0 0 0
SMALL
GASTEIGER

@<TRIPOS>ATOM
      1 C          -6.4164  -18.8637   21.8690 C.ar    1  UNL1        0.0389
      2 C          -5.2148  -18.3817   22.6266 C.ar    1  UNL1        0.0026
      3 C          -3.8727  -18.3425   21.9578 C.ar    1  UNL1        0.0177
      4 C          -2.6711  -17.8605   22.7153 C.ar    1  UNL1        0.0038
      5 C          -1.3290  -17.8213   22.0465 C.ar    1  UNL1        0.0297
      6 C          -1.1886  -18.2640   20.6202 C.ar    1  UNL1        0.1416
      7 F           0.1536  -18.2247   19.9515 F       1  UNL1       -0.2041
      8 C          -2.3902  -18.7459   19.8627 C.ar    1  UNL1        0.0487
      9 C          -3.7322  -18.7852   20.5315 C.ar    1  UNL1        0.0835
     10 N          -4.9339  -19.2671   19.7740 N.ar    1  UNL1       -0.2440
     11 C          -6.2759  -19.3064   20.4428 C.ar    1  UNL1        0.0985
     12 C          -7.4776  -19.7883   19.6853 C.ar    1  UNL1        0.0987
     13 C          -7.4223  -21.0889   18.9399 C.ar    1  UNL1        0.0207
     14 C          -8.6239  -21.5708   18.1824 C.ar    1  UNL1        0.0032
     15 C          -9.8808  -20.7523   18.1703 C.ar    1  UNL1        0.0207
     16 C          -9.9361  -19.4518   18.9157 C.ar    1  UNL1        0.0989
     17 N          -8.7345  -18.9698   19.6731 N.ar    1  UNL1       -0.2423
     18 C          -8.3372  -20.2136   22.9818 C.3     1  UNL1        0.0557
     19 C          -7.7585  -18.9029   22.5378 C.3     1  UNL1        0.1808
     20 N          -8.5220  -17.6314   22.7626 N.pl3   1  UNL1       -0.2199
     21 H          -8.0386  -16.7850   22.9007 H       1  UNL1        0.2922
     22 C         -10.0217  -17.6497   22.7768 C.2     1  UNL1        0.3369
     23 N         -10.7530  -18.3162   23.9042 N.2     1  UNL1        0.0113
     24 C         -12.2528  -18.3345   23.9185 C.2     1  UNL1        0.4718
     25 N         -13.0214  -17.6861   22.8054 N.2     1  UNL1        0.0177
     26 C         -12.2901  -17.0195   21.6780 C.2     1  UNL1        0.3919
     27 N         -12.7741  -16.3032   20.4523 N.2     1  UNL1       -0.0102
     28 C         -11.5734  -15.8422   19.6804 C.2     1  UNL1        0.3354
     29 N         -10.3474  -16.2737   20.4291 N.2     1  UNL1       -0.2031
     30 C         -10.7903  -17.0013   21.6638 C.3     1  UNL1        0.3227
@<TRIPOS>BOND
     1    19    18    1
     2    19    20    1
     3    20    22    1
     4    22    23    2
     5    23    24    1
     6    24    25    2
     7    25    26    1
     8    26    27    2
     9    27    28    1
    10    28    29    2
    11    29    30    1
    12    19     1    1
    13     1     2   ar
    14     2     3   ar
    15     3     4   ar
    16     4     5   ar
    17     5     6   ar
    18     6     7    1
    19     6     8   ar
    20     8     9   ar
    21     9    10   ar
    22    10    11   ar
    23    11    12    1
    24    12    13   ar
    25    13    14   ar
    26    14    15   ar
    27    15    16   ar
    28    16    17   ar
    29    30    22    1
    30    11     1   ar
    31    17    12   ar
    32    30    26    1
    33     9     3   ar
    34    20    21    1
@<TRIPOS>MOLECULE
*****
 30 34 0 0 0
SMALL
GASTEIGER

@<TRIPOS>ATOM
      1 C          -5.2072  -18.2437   22.0548 C.ar    1  UNL1        0.0389
      2 C          -4.3371  -18.8963   21.0219 C.ar    1  UNL1        0.0026
      3 C          -2.9683  -18.3507   20.7409 C.ar    1  UNL1        0.0177
      4 C          -2.0982  -19.0034   19.7080 C.ar    1  UNL1        0.0038
      5 C          -0.7296  -18.4577   19.4271 C.ar    1  UNL1        0.0297
      6 C          -0.2310  -17.2594   20.1790 C.ar    1  UNL1        0.1416
      7 F           1.1377  -16.7137   19.8980 F       1  UNL1       -0.2041
      8 C          -1.1011  -16.6067   21.2119 C.ar    1  UNL1        0.0487
      9 C          -2.4698  -17.1524   21.4928 C.ar    1  UNL1        0.0835
     10 N          -3.3400  -16.4997   22.5258 N.ar    1  UNL1       -0.2440
     11 C          -4.7086  -17.0453   22.8067 C.ar    1  UNL1        0.0985
     12 C          -5.5788  -16.3926   23.8396 C.ar    1  UNL1        0.0987
     13 C          -5.2171  -16.4859   25.2924 C.ar    1  UNL1        0.0207
     14 C          -6.0872  -15.8333   26.3253 C.ar    1  UNL1        0.0032
     15 C          -7.3190  -15.0873   25.9054 C.ar    1  UNL1        0.0207
     16 C          -7.6806  -14.9940   24.4527 C.ar    1  UNL1        0.0989
     17 N          -6.8105  -15.6467   23.4198 N.ar    1  UNL1       -0.2423
     18 C          -6.7518  -20.2434   22.6589 C.3     1  UNL1        0.0557
     19 C          -6.5759  -18.7893   22.3358 C.3     1  UNL1        0.1808
     20 N          -7.7687  -17.8807   22.2936 N.pl3   1  UNL1       -0.2199
     21 H          -7.8142  -17.1000   22.8916 H       1  UNL1        0.2922
     22 C          -8.8922  -18.1617   21.3403 C.2     1  UNL1        0.3369
     23 N          -8.6825  -19.1012   20.1900 N.2     1  UNL1        0.0113
     24 C          -9.8060  -19.3822   19.2366 C.2     1  UNL1        0.4718
     25 N         -11.1392  -18.7236   19.4337 N.2     1  UNL1        0.0177
     26 C         -11.3489  -17.7841   20.5841 C.2     1  UNL1        0.3919
     27 N         -12.5433  -16.9935   21.0293 N.2     1  UNL1       -0.0102
     28 C         -12.1580  -16.2239   22.2579 C.2     1  UNL1        0.3354
     29 N         -10.7255  -16.5389   22.5718 N.2     1  UNL1       -0.2031
     30 C         -10.2254  -17.5032   21.5374 C.3     1  UNL1        0.3227
@<TRIPOS>BOND
     1    19    18    1
     2    19    20    1
     3    20    22    1
     4    22    23    2
     5    23    24    1
     6    24    25    2
     7    25    26    1
     8    26    27    2
     9    27    28    1
    10    28    29    2
    11    29    30    1
    12    19     1    1
    13     1     2   ar
    14     2     3   ar
    15     3     4   ar
    16     4     5   ar
    17     5     6   ar
    18     6     7    1
    19     6     8   ar
    20     8     9   ar
    21     9    10   ar
    22    10    11   ar
    23    11    12    1
    24    12    13   ar
    25    13    14   ar
    26    14    15   ar
    27    15    16   ar
    28    16    17   ar
    29    30    22    1
    30    11     1   ar
    31    17    12   ar
    32    30    26    1
    33     9     3   ar
    34    20    21    1
@<TRIPOS>MOLECULE
*****
 30 34 0 0 0
SMALL
GASTEIGER

@<TRIPOS>ATOM
      1 C          -7.1410  -19.2964   22.1646 C.ar    1  UNL1        0.0389
      2 C          -6.2955  -20.1941   21.3107 C.ar    1  UNL1        0.0026
      3 C          -4.8777  -19.8157   20.9992 C.ar    1  UNL1        0.0177
      4 C          -4.0323  -20.7134   20.1452 C.ar    1  UNL1        0.0038
      5 C          -2.6146  -20.3351   19.8338 C.ar    1  UNL1        0.0297
      6 C          -2.0424  -19.0590   20.3764 C.ar    1  UNL1        0.1416
      7 F          -0.6247  -18.6807   20.0649 F       1  UNL1       -0.2041
      8 C          -2.8879  -18.1614   21.2303 C.ar    1  UNL1        0.0487
      9 C          -4.3055  -18.5397   21.5418 C.ar    1  UNL1        0.0835
     10 N          -5.1511  -17.6421   22.3958 N.ar    1  UNL1       -0.2440
     11 C          -6.5688  -18.0204   22.7072 C.ar    1  UNL1        0.0985
     12 C          -7.4143  -17.1227   23.5613 C.ar    1  UNL1        0.0987
     13 C          -6.8467  -16.5289   24.8163 C.ar    1  UNL1        0.0207
     14 C          -7.6922  -15.6312   25.6703 C.ar    1  UNL1        0.0032
     15 C          -9.1052  -15.3274   25.2693 C.ar    1  UNL1        0.0207
     16 C          -9.6728  -15.9213   24.0142 C.ar    1  UNL1        0.0989
     17 N          -8.8274  -16.8189   23.1602 N.ar    1  UNL1       -0.2423
     18 C          -8.9000  -20.2724   23.8089 C.3     1  UNL1        0.0557
     19 C          -8.5587  -19.6747   22.4761 C.3     1  UNL1        0.1808
     20 N          -9.6351  -19.4554   21.4547 N.pl3   1  UNL1       -0.2199
     21 H          -9.5407  -19.8341   20.5509 H       1  UNL1        0.2922
     22 C         -10.8555  -18.6590   21.8104 C.2     1  UNL1        0.3369
     23 N         -11.6130  -18.9687   23.0674 N.2     1  UNL1        0.0113
     24 C         -12.8334  -18.1723   23.4232 C.2     1  UNL1        0.4718
     25 N         -13.2962  -17.0662   22.5218 N.2     1  UNL1        0.0177
     26 C         -12.5385  -16.7565   21.2647 C.2     1  UNL1        0.3919
     27 N         -12.7538  -15.7331   20.1895 N.2     1  UNL1       -0.0102
     28 C         -11.6665  -15.8969   19.1693 C.2     1  UNL1        0.3354
     29 N         -10.7793  -17.0216   19.6140 N.2     1  UNL1       -0.2031
     30 C         -11.3182  -17.5529   20.9091 C.3     1  UNL1        0.3227
@<TRIPOS>BOND
     1    19    18    1
     2    19    20    1
     3    20    22    1
     4    22    23    2
     5    23    24    1
     6    24    25    2
     7    25    26    1
     8    26    27    2
     9    27    28    1
    10    28    29    2
    11    29    30    1
    12    19     1    1
    13     1     2   ar
    14     2     3   ar
    15     3     4   ar
    16     4     5   ar
    17     5     6   ar
    18     6     7    1
    19     6     8   ar
    20     8     9   ar
    21     9    10   ar
    22    10    11   ar
    23    11    12    1
    24    12    13   ar
    25    13    14   ar
    26    14    15   ar
    27    15    16   ar
    28    16    17   ar
    29    30    22    1
    30    11     1   ar
    31    17    12   ar
    32    30    26    1
    33     9     3   ar
    34    20    21    1
@<TRIPOS>MOLECULE
*****
 30 34 0 0 0
SMALL
GASTEIGER

@<TRIPOS>ATOM
      1 C          -6.9249  -18.1236   22.5104 C.ar    1  UNL1        0.0389
      2 C          -7.9527  -17.5587   23.4456 C.ar    1  UNL1        0.0026
      3 C          -7.5281  -16.6782   24.5834 C.ar    1  UNL1        0.0177
      4 C          -8.5559  -16.1133   25.5185 C.ar    1  UNL1        0.0038
      5 C          -8.1313  -15.2329   26.6562 C.ar    1  UNL1        0.0297
      6 C          -6.6789  -14.9173   26.8588 C.ar    1  UNL1        0.1416
      7 F          -6.2543  -14.0367   27.9966 F       1  UNL1       -0.2041
      8 C          -5.6511  -15.4821   25.9236 C.ar    1  UNL1        0.0487
      9 C          -6.0757  -16.3626   24.7859 C.ar    1  UNL1        0.0835
     10 N          -5.0479  -16.9275   23.8507 N.ar    1  UNL1       -0.2440
     11 C          -5.4725  -17.8080   22.7129 C.ar    1  UNL1        0.0985
     12 C          -4.4447  -18.3729   21.7777 C.ar    1  UNL1        0.0987
     13 C          -3.3639  -19.2697   22.3044 C.ar    1  UNL1        0.0207
     14 C          -2.3361  -19.8346   21.3692 C.ar    1  UNL1        0.0032
     15 C          -2.3892  -19.5027   19.9074 C.ar    1  UNL1        0.0207
     16 C          -3.4701  -18.6058   19.3807 C.ar    1  UNL1        0.0989
     17 N          -4.4979  -18.0409   20.3159 N.ar    1  UNL1       -0.2423
     18 C          -6.6400  -20.3020   21.1235 C.3     1  UNL1        0.0557
     19 C          -7.3495  -19.0041   21.3726 C.3     1  UNL1        0.1808
     20 N          -8.4835  -18.5867   20.4840 N.pl3   1  UNL1       -0.2199
     21 H          -8.3188  -18.3966   19.5321 H       1  UNL1        0.2922
     22 C          -9.8685  -18.4588   21.0455 C.2     1  UNL1        0.3369
     23 N         -10.3109  -19.3572   22.1622 N.2     1  UNL1        0.0113
     24 C         -11.6960  -19.2294   22.7238 C.2     1  UNL1        0.4718
     25 N         -12.6386  -18.2031   22.1687 N.2     1  UNL1        0.0177
     26 C         -12.1961  -17.3046   21.0520 C.2     1  UNL1        0.3919
     27 N         -12.8988  -16.2082   20.3076 N.2     1  UNL1       -0.0102
     28 C         -11.9480  -15.6584   19.2859 C.2     1  UNL1        0.3354
     29 N         -10.6578  -16.4151   19.3989 N.2     1  UNL1       -0.2031
     30 C         -10.8111  -17.4324   20.4904 C.3     1  UNL1        0.3227
@<TRIPOS>BOND
     1    19    18    1
     2    19    20    1
     3    20    22    1
     4    22    23    2
     5    23    24    1
     6    24    25    2
     7    25    26    1
     8    26    27    2
     9    27    28    1
    10    28    29    2
    11    29    30    1
    12    19     1    1
    13     1     2   ar
    14     2     3   ar
    15     3     4   ar
    16     4     5   ar
    17     5     6   ar
    18     6     7    1
    19     6     8   ar
    20     8     9   ar
    21     9    10   ar
    22    10    11   ar
    23    11    12    1
    24    12    13   ar
    25    13    14   ar
    26    14    15   ar
    27    15    16   ar
    28    16    17   ar
    29    30    22    1
    30    11     1   ar
    31    17    12   ar
    32    30    26    1
    33     9     3   ar
    34    20    21    1
@<TRIPOS>MOLECULE
*****
 30 34 0 0 0
SMALL
GASTEIGER

@<TRIPOS>ATOM
      1 C          -6.9711  -19.0654   22.1732 C.ar    1  UNL1        0.0389
      2 C          -6.0389  -19.9023   21.3483 C.ar    1  UNL1        0.0026
      3 C          -4.6122  -19.4766   21.1648 C.ar    1  UNL1        0.0177
      4 C          -3.6800  -20.3136   20.3400 C.ar    1  UNL1        0.0038
      5 C          -2.2534  -19.8878   20.1566 C.ar    1  UNL1        0.0297
      6 C          -1.7591  -18.6252   20.7980 C.ar    1  UNL1        0.1416
      7 F          -0.3325  -18.1995   20.6145 F       1  UNL1       -0.2041
      8 C          -2.6914  -17.7883   21.6228 C.ar    1  UNL1        0.0487
      9 C          -4.1179  -18.2140   21.8063 C.ar    1  UNL1        0.0835
     10 N          -5.0503  -17.3771   22.6311 N.ar    1  UNL1       -0.2440
     11 C          -6.4768  -17.8028   22.8146 C.ar    1  UNL1        0.0985
     12 C          -7.4092  -16.9658   23.6395 C.ar    1  UNL1        0.0987
     13 C          -8.6813  -16.4461   23.0381 C.ar    1  UNL1        0.0207
     14 C          -9.6136  -15.6092   23.8629 C.ar    1  UNL1        0.0032
     15 C          -9.2738  -15.2920   25.2890 C.ar    1  UNL1        0.0207
     16 C          -8.0017  -15.8118   25.8904 C.ar    1  UNL1        0.0989
     17 N          -7.0694  -16.6487   25.0656 N.ar    1  UNL1       -0.2423
     18 C          -8.8923  -19.8911   23.7151 C.3     1  UNL1        0.0557
     19 C          -8.3977  -19.4911   22.3566 C.3     1  UNL1        0.1808
     20 N          -9.3297  -19.5168   21.1816 N.pl3   1  UNL1       -0.2199
     21 H          -9.2568  -20.2339   20.5110 H       1  UNL1        0.2922
     22 C         -10.3729  -18.4499   21.0282 C.2     1  UNL1        0.3369
     23 N         -10.3578  -17.5538   19.8255 N.2     1  UNL1        0.0113
     24 C         -11.4010  -16.4868   19.6720 C.2     1  UNL1        0.4718
     25 N         -12.4591  -16.3160   20.7214 N.2     1  UNL1        0.0177
     26 C         -12.4741  -17.2122   21.9242 C.2     1  UNL1        0.3919
     27 N         -13.3857  -17.2807   23.1134 N.2     1  UNL1       -0.0102
     28 C         -12.9059  -18.3901   24.0018 C.2     1  UNL1        0.3354
     29 N         -11.6979  -19.0071   23.3617 N.2     1  UNL1       -0.2031
     30 C         -11.4310  -18.2791   22.0776 C.3     1  UNL1        0.3227
@<TRIPOS>BOND
     1    19    18    1
     2    19    20    1
     3    20    22    1
     4    22    23    2
     5    23    24    1
     6    24    25    2
     7    25    26    1
     8    26    27    2
     9    27    28    1
    10    28    29    2
    11    29    30    1
    12    19     1    1
    13     1     2   ar
    14     2     3   ar
    15     3     4   ar
    16     4     5   ar
    17     5     6   ar
    18     6     7    1
    19     6     8   ar
    20     8     9   ar
    21     9    10   ar
    22    10    11   ar
    23    11    12    1
    24    12    13   ar
    25    13    14   ar
    26    14    15   ar
    27    15    16   ar
    28    16    17   ar
    29    30    22    1
    30    11     1   ar
    31    17    12   ar
    32    30    26    1
    33     9     3   ar
    34    20    21    1
@<TRIPOS>MOLECULE
*****
 30 34 0 0 0
SMALL
GASTEIGER

@<TRIPOS>ATOM
      1 C          -7.7238  -17.9470   23.1143 C.ar    1  UNL1        0.0389
      2 C          -8.5954  -17.2873   24.1415 C.ar    1  UNL1        0.0026
      3 C          -7.9859  -16.3902   25.1777 C.ar    1  UNL1        0.0177
      4 C          -8.8575  -15.7305   26.2049 C.ar    1  UNL1        0.0038
      5 C          -8.2480  -14.8334   27.2410 C.ar    1  UNL1        0.0297
      6 C          -6.7670  -14.5959   27.2500 C.ar    1  UNL1        0.1416
      7 F          -6.1575  -13.6987   28.2863 F       1  UNL1       -0.2041
      8 C          -5.8954  -15.2556   26.2228 C.ar    1  UNL1        0.0487
      9 C          -6.5048  -16.1527   25.1867 C.ar    1  UNL1        0.0835
     10 N          -5.6333  -16.8124   24.1594 N.ar    1  UNL1       -0.2440
     11 C          -6.2427  -17.7095   23.1233 C.ar    1  UNL1        0.0985
     12 C          -5.3711  -18.3692   22.0960 C.ar    1  UNL1        0.0987
     13 C          -4.0528  -18.9604   22.4991 C.ar    1  UNL1        0.0207
     14 C          -3.1812  -19.6201   21.4719 C.ar    1  UNL1        0.0032
     15 C          -3.6280  -19.6886   20.0416 C.ar    1  UNL1        0.0207
     16 C          -4.9463  -19.0973   19.6386 C.ar    1  UNL1        0.0989
     17 N          -5.8179  -18.4377   20.6657 N.ar    1  UNL1       -0.2423
     18 C          -8.3912  -20.3252   22.3087 C.3     1  UNL1        0.0557
     19 C          -8.3332  -18.8442   22.0780 C.3     1  UNL1        0.1808
     20 N          -8.8848  -18.2603   20.8112 N.pl3   1  UNL1       -0.2199
     21 H          -8.3586  -18.3017   19.9802 H       1  UNL1        0.2922
     22 C         -10.2380  -17.6131   20.8106 C.2     1  UNL1        0.3369
     23 N         -10.6145  -16.6633   19.7124 N.2     1  UNL1        0.0113
     24 C         -11.9677  -16.0161   19.7117 C.2     1  UNL1        0.4718
     25 N         -12.9444  -16.3188   20.8092 N.2     1  UNL1        0.0177
     26 C         -12.5678  -17.2688   21.9074 C.2     1  UNL1        0.3919
     27 N         -13.3155  -17.7566   23.1127 N.2     1  UNL1       -0.0102
     28 C         -12.4244  -18.7052   23.8584 C.2     1  UNL1        0.3354
     29 N         -11.1260  -18.8037   23.1138 N.2     1  UNL1       -0.2031
     30 C         -11.2146  -17.9159   21.9080 C.3     1  UNL1        0.3227
@<TRIPOS>BOND
     1    19    18    1
     2    19    20    1
     3    20    22    1
     4    22    23    2
     5    23    24    1
     6    24    25    2
     7    25    26    1
     8    26    27    2
     9    27    28    1
    10    28    29    2
    11    29    30    1
    12    19     1    1
    13     1     2   ar
    14     2     3   ar
    15     3     4   ar
    16     4     5   ar
    17     5     6   ar
    18     6     7    1
    19     6     8   ar
    20     8     9   ar
    21     9    10   ar
    22    10    11   ar
    23    11    12    1
    24    12    13   ar
    25    13    14   ar
    26    14    15   ar
    27    15    16   ar
    28    16    17   ar
    29    30    22    1
    30    11     1   ar
    31    17    12   ar
    32    30    26    1
    33     9     3   ar
    34    20    21    1
@<TRIPOS>MOLECULE
*****
 30 34 0 0 0
SMALL
GASTEIGER

@<TRIPOS>ATOM
      1 C           3.3857   -0.5929   25.0544 C.ar    1  UNL1        0.0389
      2 C           4.1723   -1.7074   24.4308 C.ar    1  UNL1        0.0026
      3 C           4.0293   -1.9983   22.9662 C.ar    1  UNL1        0.0177
      4 C           4.8159   -3.1128   22.3425 C.ar    1  UNL1        0.0038
      5 C           4.6728   -3.4037   20.8780 C.ar    1  UNL1        0.0297
      6 C           3.7431   -2.5799   20.0371 C.ar    1  UNL1        0.1416
      7 F           3.6000   -2.8708   18.5725 F       1  UNL1       -0.2041
      8 C           2.9565   -1.4654   20.6607 C.ar    1  UNL1        0.0487
      9 C           3.0996   -1.1746   22.1253 C.ar    1  UNL1        0.0835
     10 N           2.3129   -0.0600   22.7490 N.ar    1  UNL1       -0.2440
     11 C           2.4560    0.2308   24.2135 C.ar    1  UNL1        0.0985
     12 C           1.6693    1.3454   24.8372 C.ar    1  UNL1        0.0987
     13 C           0.2235    1.1420   25.1808 C.ar    1  UNL1        0.0207
     14 C          -0.5632    2.2565   25.8045 C.ar    1  UNL1        0.0032
     15 C           0.0960    3.5744   26.0846 C.ar    1  UNL1        0.0207
     16 C           1.5419    3.7778   25.7410 C.ar    1  UNL1        0.0989
     17 N           2.3286    2.6633   25.1173 N.ar    1  UNL1       -0.2423
     18 C           4.5680    0.6705   26.9925 C.3     1  UNL1        0.0557
     19 C           3.5288   -0.3020   26.5190 C.3     1  UNL1        0.1808
     20 N           2.6326   -0.9837   27.5101 N.pl3   1  UNL1       -0.2199
     21 H           2.3749   -1.9243   27.3751 H       1  UNL1        0.2922
     22 C           2.1291   -0.2324   28.7067 C.2     1  UNL1        0.3369
     23 N           0.8604    0.5624   28.6139 N.2     1  UNL1        0.0113
     24 C           0.3569    1.3137   29.8106 C.2     1  UNL1        0.4718
     25 N           1.1220    1.2702   31.1000 N.2     1  UNL1        0.0177
     26 C           2.3908    0.4753   31.1928 C.2     1  UNL1        0.3919
     27 N           3.3519    0.2472   32.3215 N.2     1  UNL1       -0.0102
     28 C           4.4495   -0.6451   31.8224 C.2     1  UNL1        0.3354
     29 N           4.1667   -0.9684   30.3853 N.2     1  UNL1       -0.2031
     30 C           2.8943   -0.2760   29.9961 C.3     1  UNL1        0.3227
@<TRIPOS>BOND
     1    19    18    1
     2    19    20    1
     3    20    22    1
     4    22    23    2
     5    23    24    1
     6    24    25    2
     7    25    26    1
     8    26    27    2
     9    27    28    1
    10    28    29    2
    11    29    30    1
    12    19     1    1
    13     1     2   ar
    14     2     3   ar
    15     3     4   ar
    16     4     5   ar
    17     5     6   ar
    18     6     7    1
    19     6     8   ar
    20     8     9   ar
    21     9    10   ar
    22    10    11   ar
    23    11    12    1
    24    12    13   ar
    25    13    14   ar
    26    14    15   ar
    27    15    16   ar
    28    16    17   ar
    29    30    22    1
    30    11     1   ar
    31    17    12   ar
    32    30    26    1
    33     9     3   ar
    34    20    21    1
