@<TRIPOS>MOLECULE
*****
 37 41 0 0 0
SMALL
GASTEIGER

@<TRIPOS>ATOM
      1 C           7.6277   -2.4320   26.5236 C.ar    1  UNL1        0.0860
      2 C           8.7610   -3.3821   26.2730 C.ar    1  UNL1        0.1045
      3 N           9.1527   -4.3765   27.3255 N.ar    1  UNL1       -0.2436
      4 C           8.4110   -4.4208   28.6286 C.ar    1  UNL1        0.0826
      5 C           8.8027   -5.4152   29.6810 C.ar    1  UNL1        0.0214
      6 C           8.0611   -5.4594   30.9841 C.ar    1  UNL1        0.0312
      7 C           6.9278   -4.5093   31.2347 C.ar    1  UNL1        0.1403
      8 F           6.1861   -4.5535   32.5378 F       1  UNL1       -0.2042
      9 C           6.5361   -3.5149   30.1822 C.ar    1  UNL1        0.0324
     10 C           7.2777   -3.4706   28.8792 C.ar    1  UNL1        0.0334
     11 C           6.8860   -2.4762   27.8266 C.ar    1  UNL1        0.0552
     12 N           5.0160   -2.8012   21.8020 N.3     1  UNL1       -0.1559
     13 C           5.4077   -3.7957   22.8545 C.3     1  UNL1        0.1169
     14 C           6.1477   -3.3411   24.0775 C.3     1  UNL1        0.1129
     15 N           6.4960   -1.8921   24.2481 N.am    1  UNL1       -0.2730
     16 C           7.2360   -1.4375   25.4711 C.2     1  UNL1        0.2518
     17 O           7.5843    0.0115   25.6416 O.2     1  UNL1       -0.2698
     18 C           6.1044   -0.8977   23.1956 C.3     1  UNL1        0.1129
     19 C           5.3644   -1.3522   21.9725 C.3     1  UNL1        0.1169
     20 C           3.5361   -3.7104   19.3560 C.3     1  UNL1        0.1960
     21 S           4.2760   -3.2558   20.5790 S.O2    1  UNL1        0.0458
     22 O           4.2861   -4.6637   21.0962 O.2     1  UNL1       -0.1572
     23 O           4.2660   -1.8479   20.0618 O.2     1  UNL1       -0.1572
     24 N           5.7527   -1.5260   28.0772 N.pl3   1  UNL1       -0.3072
     25 C           6.0008   -0.2379   28.8046 C.3     1  UNL1        0.0922
     26 C           4.8675    0.7122   29.0552 C.3     1  UNL1        0.0397
     27 C           3.4861    0.3743   28.5784 C.3     1  UNL1        0.1013
     28 C           3.2379   -0.9139   27.8510 C.3     1  UNL1        0.0397
     29 C           4.3712   -1.8641   27.6004 C.3     1  UNL1        0.0922
     30 C           2.0131    0.4987   28.3235 C.ar    1  UNL1       -0.0096
     31 C           1.5199    1.2764   27.1396 C.ar    1  UNL1       -0.0033
     32 C           0.0470    1.4008   26.8846 C.ar    1  UNL1       -0.0003
     33 C          -0.9328    0.7474   27.8137 C.ar    1  UNL1       -0.0000
     34 C          -0.4396   -0.0303   28.9976 C.ar    1  UNL1       -0.0003
     35 C           1.0334   -0.1547   29.2526 C.ar    1  UNL1       -0.0033
     36 C           3.2227    1.7057   29.2173 C.1     1  UNL1        0.0753
     37 N           2.9593    3.0369   29.8561 N.1     1  UNL1       -0.1956
@<TRIPOS>BOND
     1    20    21    1
     2    21    22    2
     3    21    23    2
     4    21    12    1
     5    12    13    1
     6    13    14    1
     7    14    15    1
     8    15    16   am
     9    16    17    2
    10    16     1    1
    11     1     2   ar
    12     2     3   ar
    13     3     4   ar
    14     4     5   ar
    15     5     6   ar
    16     6     7   ar
    17     7     8    1
    18     7     9   ar
    19     9    10   ar
    20    10    11   ar
    21    11    24    1
    22    24    25    1
    23    25    26    1
    24    26    27    1
    25    27    36    1
    26    36    37    3
    27    27    30    1
    28    30    31   ar
    29    31    32   ar
    30    32    33   ar
    31    33    34   ar
    32    34    35   ar
    33    27    28    1
    34    28    29    1
    35    15    18    1
    36    18    19    1
    37    19    12    1
    38    11     1   ar
    39    29    24    1
    40    10     4   ar
    41    35    30   ar
@<TRIPOS>MOLECULE
*****
 37 41 0 0 0
SMALL
GASTEIGER

@<TRIPOS>ATOM
      1 C           6.9452   -1.9605   26.6773 C.ar    1  UNL1        0.0860
      2 C           7.5189   -2.3454   28.0087 C.ar    1  UNL1        0.1045
      3 N           8.0871   -3.7186   28.2118 N.ar    1  UNL1       -0.2436
      4 C           8.0817   -4.7070   27.0835 C.ar    1  UNL1        0.0826
      5 C           8.6499   -6.0803   27.2866 C.ar    1  UNL1        0.0214
      6 C           8.6445   -7.0686   26.1582 C.ar    1  UNL1        0.0312
      7 C           8.0707   -6.6837   24.8268 C.ar    1  UNL1        0.1403
      8 F           8.0653   -7.6721   23.6985 F       1  UNL1       -0.2042
      9 C           7.5025   -5.3104   24.6237 C.ar    1  UNL1        0.0324
     10 C           7.5079   -4.3221   25.7521 C.ar    1  UNL1        0.0334
     11 C           6.9397   -2.9488   25.5490 C.ar    1  UNL1        0.0552
     12 N           2.2519    0.3871   27.9858 N.3     1  UNL1       -0.1559
     13 C           2.8201   -0.9862   28.1889 C.3     1  UNL1        0.1169
     14 C           4.1951   -1.3109   27.6850 C.3     1  UNL1        0.1129
     15 N           5.0019   -0.2624   26.9781 N.am    1  UNL1       -0.2730
     16 C           6.3769   -0.5872   26.4743 C.2     1  UNL1        0.2518
     17 O           7.1837    0.4613   25.7673 O.2     1  UNL1       -0.2698
     18 C           4.4337    1.1108   26.7750 C.3     1  UNL1        0.1129
     19 C           3.0586    1.4356   27.2789 C.3     1  UNL1        0.1169
     20 C          -0.4981    1.0366   28.9935 C.3     1  UNL1        0.1960
     21 S           0.8769    0.7119   28.4897 S.O2    1  UNL1        0.0458
     22 O           0.6943    1.6858   27.3636 O.2     1  UNL1       -0.1572
     23 O           1.0595   -0.2621   29.6157 O.2     1  UNL1       -0.1572
     24 N           6.3659   -2.5639   24.2176 N.pl3   1  UNL1       -0.3072
     25 C           4.8886   -2.6674   23.9793 C.3     1  UNL1        0.0922
     26 C           4.3149   -2.2825   22.6479 C.3     1  UNL1        0.0397
     27 C           5.2185   -1.7941   21.5547 C.3     1  UNL1        0.1013
     28 C           6.6959   -1.6905   21.7930 C.3     1  UNL1        0.0397
     29 C           7.2696   -2.0755   23.1244 C.3     1  UNL1        0.0922
     30 C           5.6626   -1.2795   20.2175 C.ar    1  UNL1       -0.0096
     31 C           6.1262   -2.2383   19.1613 C.ar    1  UNL1       -0.0033
     32 C           6.5703   -1.7237   17.8240 C.ar    1  UNL1       -0.0003
     33 C           6.5507   -0.2504   17.5432 C.ar    1  UNL1       -0.0000
     34 C           6.0871    0.7084   18.5995 C.ar    1  UNL1       -0.0003
     35 C           5.6430    0.1938   19.9367 C.ar    1  UNL1       -0.0033
     36 C           3.8953   -1.7189   20.8520 C.1     1  UNL1        0.0753
     37 N           2.5723   -1.6437   20.1494 N.1     1  UNL1       -0.1956
@<TRIPOS>BOND
     1    20    21    1
     2    21    22    2
     3    21    23    2
     4    21    12    1
     5    12    13    1
     6    13    14    1
     7    14    15    1
     8    15    16   am
     9    16    17    2
    10    16     1    1
    11     1     2   ar
    12     2     3   ar
    13     3     4   ar
    14     4     5   ar
    15     5     6   ar
    16     6     7   ar
    17     7     8    1
    18     7     9   ar
    19     9    10   ar
    20    10    11   ar
    21    11    24    1
    22    24    25    1
    23    25    26    1
    24    26    27    1
    25    27    36    1
    26    36    37    3
    27    27    30    1
    28    30    31   ar
    29    31    32   ar
    30    32    33   ar
    31    33    34   ar
    32    34    35   ar
    33    27    28    1
    34    28    29    1
    35    15    18    1
    36    18    19    1
    37    19    12    1
    38    11     1   ar
    39    29    24    1
    40    10     4   ar
    41    35    30   ar
@<TRIPOS>MOLECULE
*****
 37 41 0 0 0
SMALL
GASTEIGER

@<TRIPOS>ATOM
      1 C          -0.6813    3.9571   18.4342 C.ar    1  UNL1        0.0860
      2 C          -1.3759    3.9873   17.1051 C.ar    1  UNL1        0.1045
      3 N          -2.8724    3.9108   17.0391 N.ar    1  UNL1       -0.2436
      4 C          -3.6745    3.8041   18.3022 C.ar    1  UNL1        0.0826
      5 C          -5.1710    3.7276   18.2362 C.ar    1  UNL1        0.0214
      6 C          -5.9729    3.6209   19.4993 C.ar    1  UNL1        0.0312
      7 C          -5.2783    3.5906   20.8284 C.ar    1  UNL1        0.1403
      8 F          -6.0803    3.4839   22.0916 F       1  UNL1       -0.2042
      9 C          -3.7818    3.6671   20.8944 C.ar    1  UNL1        0.0324
     10 C          -2.9798    3.7738   19.6313 C.ar    1  UNL1        0.0334
     11 C          -1.4832    3.8503   19.6973 C.ar    1  UNL1        0.0552
     12 N           3.2735    0.2721   18.2575 N.3     1  UNL1       -0.1559
     13 C           1.7769    0.1956   18.1915 C.3     1  UNL1        0.1169
     14 C           0.9575    1.4494   18.2724 C.3     1  UNL1        0.1129
     15 N           1.6347    2.7798   18.4193 N.am    1  UNL1       -0.2730
     16 C           0.8154    4.0336   18.5002 C.2     1  UNL1        0.2518
     17 O           1.4926    5.3639   18.6471 O.2     1  UNL1       -0.2698
     18 C           3.1313    2.8563   18.4853 C.3     1  UNL1        0.1129
     19 C           3.9507    1.6025   18.4044 C.3     1  UNL1        0.1169
     20 C           4.9122   -2.2355   18.0957 C.3     1  UNL1        0.1960
     21 S           4.0929   -0.9817   18.1766 S.O2    1  UNL1        0.0458
     22 O           4.2308   -0.9880   19.6702 O.2     1  UNL1       -0.1572
     23 O           3.9550   -0.9754   16.6830 O.2     1  UNL1       -0.1572
     24 N          -0.7885    3.8201   21.0264 N.pl3   1  UNL1       -0.3072
     25 C          -0.4636    5.1031   21.7323 C.3     1  UNL1        0.0922
     26 C           0.2310    5.0729   23.0614 C.3     1  UNL1        0.0397
     27 C           0.6007    3.7596   23.6847 C.3     1  UNL1        0.1013
     28 C           0.2758    2.4765   22.9789 C.3     1  UNL1        0.0397
     29 C          -0.4188    2.5067   21.6497 C.3     1  UNL1        0.0922
     30 C           1.1495    2.7728   24.6723 C.ar    1  UNL1       -0.0096
     31 C           2.5894    2.3592   24.5981 C.ar    1  UNL1       -0.0033
     32 C           3.1382    1.3725   25.5856 C.ar    1  UNL1       -0.0003
     33 C           2.2470    0.7994   26.6474 C.ar    1  UNL1       -0.0000
     34 C           0.8071    1.2130   26.7216 C.ar    1  UNL1       -0.0003
     35 C           0.2583    2.1997   25.7340 C.ar    1  UNL1       -0.0033
     36 C           1.1162    4.7000   24.7335 C.1     1  UNL1        0.0753
     37 N           1.6317    5.6403   25.7822 N.1     1  UNL1       -0.1956
@<TRIPOS>BOND
     1    20    21    1
     2    21    22    2
     3    21    23    2
     4    21    12    1
     5    12    13    1
     6    13    14    1
     7    14    15    1
     8    15    16   am
     9    16    17    2
    10    16     1    1
    11     1     2   ar
    12     2     3   ar
    13     3     4   ar
    14     4     5   ar
    15     5     6   ar
    16     6     7   ar
    17     7     8    1
    18     7     9   ar
    19     9    10   ar
    20    10    11   ar
    21    11    24    1
    22    24    25    1
    23    25    26    1
    24    26    27    1
    25    27    36    1
    26    36    37    3
    27    27    30    1
    28    30    31   ar
    29    31    32   ar
    30    32    33   ar
    31    33    34   ar
    32    34    35   ar
    33    27    28    1
    34    28    29    1
    35    15    18    1
    36    18    19    1
    37    19    12    1
    38    11     1   ar
    39    29    24    1
    40    10     4   ar
    41    35    30   ar
@<TRIPOS>MOLECULE
*****
 37 41 0 0 0
SMALL
GASTEIGER

@<TRIPOS>ATOM
      1 C          -0.3335    3.4345   20.8603 C.ar    1  UNL1        0.0860
      2 C          -0.7327    3.5995   19.4239 C.ar    1  UNL1        0.1045
      3 N          -2.1800    3.7509   19.0603 N.ar    1  UNL1       -0.2436
      4 C          -3.2283    3.7373   20.1332 C.ar    1  UNL1        0.0826
      5 C          -4.6756    3.8887   19.7697 C.ar    1  UNL1        0.0214
      6 C          -5.7238    3.8751   20.8426 C.ar    1  UNL1        0.0312
      7 C          -5.3246    3.7101   22.2790 C.ar    1  UNL1        0.1403
      8 F          -6.3728    3.6966   23.3520 F       1  UNL1       -0.2042
      9 C          -3.8772    3.5587   22.6426 C.ar    1  UNL1        0.0324
     10 C          -2.8291    3.5723   21.5697 C.ar    1  UNL1        0.0334
     11 C          -1.3816    3.4209   21.9332 C.ar    1  UNL1        0.0552
     12 N           3.0986   -0.7448   20.9285 N.3     1  UNL1       -0.1559
     13 C           1.6512   -0.5934   20.5650 C.3     1  UNL1        0.1169
     14 C           0.9896    0.7492   20.6634 C.3     1  UNL1        0.1129
     15 N           1.7755    1.9404   21.1254 N.am    1  UNL1       -0.2730
     16 C           1.1139    3.2830   21.2239 C.2     1  UNL1        0.2518
     17 O           1.8998    4.4743   21.6858 O.2     1  UNL1       -0.2698
     18 C           3.2228    1.7891   21.4889 C.3     1  UNL1        0.1129
     19 C           3.8844    0.4464   21.3905 C.3     1  UNL1        0.1169
     20 C           4.4217   -3.4300   20.7316 C.3     1  UNL1        0.1960
     21 S           3.7602   -2.0874   20.8301 S.O2    1  UNL1        0.0458
     22 O           3.9372   -2.1094   22.3194 O.2     1  UNL1       -0.1572
     23 O           3.5831   -2.0655   19.3408 O.2     1  UNL1       -0.1572
     24 N          -0.9824    3.2559   23.3697 N.pl3   1  UNL1       -0.3072
     25 C          -0.9453    4.4479   24.2794 C.3     1  UNL1        0.0922
     26 C          -0.5461    4.2829   25.7159 C.3     1  UNL1        0.0397
     27 C          -0.1840    2.9259   26.2426 C.3     1  UNL1        0.1013
     28 C          -0.2212    1.7338   25.3328 C.3     1  UNL1        0.0397
     29 C          -0.6204    1.8988   23.8964 C.3     1  UNL1        0.0922
     30 C           0.2423    1.8535   27.2009 C.ar    1  UNL1       -0.0096
     31 C          -0.7899    1.0433   27.9274 C.ar    1  UNL1       -0.0033
     32 C          -0.3635   -0.0291   28.8857 C.ar    1  UNL1       -0.0003
     33 C           1.0952   -0.2912   29.1173 C.ar    1  UNL1       -0.0000
     34 C           2.1274    0.5191   28.3908 C.ar    1  UNL1       -0.0003
     35 C           1.7010    1.5915   27.4325 C.ar    1  UNL1       -0.0033
     36 C           0.0012    3.7455   27.4852 C.1     1  UNL1        0.0753
     37 N           0.1864    4.5651   28.7277 N.1     1  UNL1       -0.1956
@<TRIPOS>BOND
     1    20    21    1
     2    21    22    2
     3    21    23    2
     4    21    12    1
     5    12    13    1
     6    13    14    1
     7    14    15    1
     8    15    16   am
     9    16    17    2
    10    16     1    1
    11     1     2   ar
    12     2     3   ar
    13     3     4   ar
    14     4     5   ar
    15     5     6   ar
    16     6     7   ar
    17     7     8    1
    18     7     9   ar
    19     9    10   ar
    20    10    11   ar
    21    11    24    1
    22    24    25    1
    23    25    26    1
    24    26    27    1
    25    27    36    1
    26    36    37    3
    27    27    30    1
    28    30    31   ar
    29    31    32   ar
    30    32    33   ar
    31    33    34   ar
    32    34    35   ar
    33    27    28    1
    34    28    29    1
    35    15    18    1
    36    18    19    1
    37    19    12    1
    38    11     1   ar
    39    29    24    1
    40    10     4   ar
    41    35    30   ar
@<TRIPOS>MOLECULE
*****
 37 41 0 0 0
SMALL
GASTEIGER

@<TRIPOS>ATOM
      1 C           6.9468   -2.0405   27.6665 C.ar    1  UNL1        0.0860
      2 C           7.3974   -2.5694   28.9958 C.ar    1  UNL1        0.1045
      3 N           7.8256   -4.0009   29.1274 N.ar    1  UNL1       -0.2436
      4 C           7.8032   -4.9036   27.9295 C.ar    1  UNL1        0.0826
      5 C           8.2313   -6.3351   28.0610 C.ar    1  UNL1        0.0214
      6 C           8.2089   -7.2377   26.8632 C.ar    1  UNL1        0.0312
      7 C           7.7583   -6.7088   25.5339 C.ar    1  UNL1        0.1403
      8 F           7.7358   -7.6114   24.3360 F       1  UNL1       -0.2042
      9 C           7.3301   -5.2772   25.4024 C.ar    1  UNL1        0.0324
     10 C           7.3525   -4.3747   26.6002 C.ar    1  UNL1        0.0334
     11 C           6.9243   -2.9430   26.4687 C.ar    1  UNL1        0.0552
     12 N           2.2076    0.5173   28.1653 N.3     1  UNL1       -0.1559
     13 C           2.6358   -0.9143   28.2968 C.3     1  UNL1        0.1169
     14 C           4.0728   -1.2897   28.0867 C.3     1  UNL1        0.1129
     15 N           5.0816   -0.2335   27.7451 N.am    1  UNL1       -0.2730
     16 C           6.5186   -0.6088   27.5350 C.2     1  UNL1        0.2518
     17 O           7.5274    0.4473   27.1934 O.2     1  UNL1       -0.2698
     18 C           4.6535    1.1980   27.6136 C.3     1  UNL1        0.1129
     19 C           3.2165    1.5735   27.8238 C.3     1  UNL1        0.1169
     20 C          -0.6663    1.2680   28.5856 C.3     1  UNL1        0.1960
     21 S           0.7707    0.8926   28.3755 S.O2    1  UNL1        0.0458
     22 O           0.6695   -0.1144   29.4825 O.2     1  UNL1       -0.1572
     23 O           0.8718    1.8996   27.2684 O.2     1  UNL1       -0.1572
     24 N           6.4737   -2.4141   25.1394 N.pl3   1  UNL1       -0.3072
     25 C           7.4694   -1.8023   24.1990 C.3     1  UNL1        0.0922
     26 C           7.0187   -1.2734   22.8696 C.3     1  UNL1        0.0397
     27 C           5.5724   -1.3562   22.4807 C.3     1  UNL1        0.1013
     28 C           4.5767   -1.9680   23.4211 C.3     1  UNL1        0.0397
     29 C           5.0273   -2.4969   24.7504 C.3     1  UNL1        0.0922
     30 C           4.3209   -1.2087   21.6670 C.ar    1  UNL1       -0.0096
     31 C           4.0382   -2.1645   20.5460 C.ar    1  UNL1       -0.0033
     32 C           2.7867   -2.0170   19.7323 C.ar    1  UNL1       -0.0003
     33 C           1.8180   -0.9138   20.0396 C.ar    1  UNL1       -0.0000
     34 C           2.1007    0.0419   21.1606 C.ar    1  UNL1       -0.0003
     35 C           3.3522   -0.1055   21.9743 C.ar    1  UNL1       -0.0033
     36 C           6.1335   -0.6932   21.2577 C.1     1  UNL1        0.0753
     37 N           6.6945   -0.0303   20.0347 N.1     1  UNL1       -0.1956
@<TRIPOS>BOND
     1    20    21    1
     2    21    22    2
     3    21    23    2
     4    21    12    1
     5    12    13    1
     6    13    14    1
     7    14    15    1
     8    15    16   am
     9    16    17    2
    10    16     1    1
    11     1     2   ar
    12     2     3   ar
    13     3     4   ar
    14     4     5   ar
    15     5     6   ar
    16     6     7   ar
    17     7     8    1
    18     7     9   ar
    19     9    10   ar
    20    10    11   ar
    21    11    24    1
    22    24    25    1
    23    25    26    1
    24    26    27    1
    25    27    36    1
    26    36    37    3
    27    27    30    1
    28    30    31   ar
    29    31    32   ar
    30    32    33   ar
    31    33    34   ar
    32    34    35   ar
    33    27    28    1
    34    28    29    1
    35    15    18    1
    36    18    19    1
    37    19    12    1
    38    11     1   ar
    39    29    24    1
    40    10     4   ar
    41    35    30   ar
@<TRIPOS>MOLECULE
*****
 37 41 0 0 0
SMALL
GASTEIGER

@<TRIPOS>ATOM
      1 C           6.6607   -1.6097   23.8151 C.ar    1  UNL1        0.0860
      2 C           7.4706   -2.4861   22.9064 C.ar    1  UNL1        0.1045
      3 N           6.9005   -2.9358   21.5939 N.ar    1  UNL1       -0.2436
      4 C           5.5203   -2.5090   21.1901 C.ar    1  UNL1        0.0826
      5 C           4.9502   -2.9586   19.8776 C.ar    1  UNL1        0.0214
      6 C           3.5701   -2.5319   19.4738 C.ar    1  UNL1        0.0312
      7 C           2.7601   -1.6555   20.3825 C.ar    1  UNL1        0.1403
      8 F           1.3799   -1.2287   19.9787 F       1  UNL1       -0.2042
      9 C           3.3302   -1.2058   21.6950 C.ar    1  UNL1        0.0324
     10 C           4.7103   -1.6326   22.0988 C.ar    1  UNL1        0.0334
     11 C           5.2805   -1.1829   23.4114 C.ar    1  UNL1        0.0552
     12 N           7.0783   -3.8911   28.7010 N.3     1  UNL1       -0.1559
     13 C           6.5081   -4.3407   27.3884 C.3     1  UNL1        0.1169
     14 C           6.5589   -3.4304   26.1974 C.3     1  UNL1        0.1129
     15 N           7.1800   -2.0704   26.3188 N.am    1  UNL1       -0.2730
     16 C           7.2309   -1.1601   25.1277 C.2     1  UNL1        0.2518
     17 O           7.8519    0.1999   25.2491 O.2     1  UNL1       -0.2698
     18 C           7.7502   -1.6207   27.6313 C.3     1  UNL1        0.1129
     19 C           7.6993   -2.5311   28.8224 C.3     1  UNL1        0.1169
     20 C           6.9766   -5.7117   31.0831 C.3     1  UNL1        0.1960
     21 S           7.0274   -4.8014   29.8921 S.O2    1  UNL1        0.0458
     22 O           7.4400   -5.9556   29.0275 O.2     1  UNL1       -0.1572
     23 O           6.6149   -3.6471   30.7566 O.2     1  UNL1       -0.1572
     24 N           4.4705   -0.3065   24.3201 N.pl3   1  UNL1       -0.3072
     25 C           4.5527    1.1857   24.1922 C.3     1  UNL1        0.0922
     26 C           3.7427    2.0621   25.1009 C.3     1  UNL1        0.0397
     27 C           2.8505    1.4463   26.1376 C.3     1  UNL1        0.1013
     28 C           2.7684   -0.0460   26.2656 C.3     1  UNL1        0.0397
     29 C           3.5783   -0.9224   25.3569 C.3     1  UNL1        0.0922
     30 C           1.8684    1.3353   27.2660 C.ar    1  UNL1       -0.0096
     31 C           0.3977    1.2766   26.9772 C.ar    1  UNL1       -0.0033
     32 C          -0.5844    1.1657   28.1056 C.ar    1  UNL1       -0.0003
     33 C          -0.0957    1.1133   29.5228 C.ar    1  UNL1       -0.0000
     34 C           1.3751    1.1720   29.8116 C.ar    1  UNL1       -0.0003
     35 C           2.3572    1.2830   28.6832 C.ar    1  UNL1       -0.0033
     36 C           2.5916    2.9000   26.4015 C.1     1  UNL1        0.0753
     37 N           2.3327    4.3537   26.6654 N.1     1  UNL1       -0.1956
@<TRIPOS>BOND
     1    20    21    1
     2    21    22    2
     3    21    23    2
     4    21    12    1
     5    12    13    1
     6    13    14    1
     7    14    15    1
     8    15    16   am
     9    16    17    2
    10    16     1    1
    11     1     2   ar
    12     2     3   ar
    13     3     4   ar
    14     4     5   ar
    15     5     6   ar
    16     6     7   ar
    17     7     8    1
    18     7     9   ar
    19     9    10   ar
    20    10    11   ar
    21    11    24    1
    22    24    25    1
    23    25    26    1
    24    26    27    1
    25    27    36    1
    26    36    37    3
    27    27    30    1
    28    30    31   ar
    29    31    32   ar
    30    32    33   ar
    31    33    34   ar
    32    34    35   ar
    33    27    28    1
    34    28    29    1
    35    15    18    1
    36    18    19    1
    37    19    12    1
    38    11     1   ar
    39    29    24    1
    40    10     4   ar
    41    35    30   ar
@<TRIPOS>MOLECULE
*****
 37 41 0 0 0
SMALL
GASTEIGER

@<TRIPOS>ATOM
      1 C           5.1209    0.1405   27.3533 C.ar    1  UNL1        0.0860
      2 C           4.8826    0.4827   28.7942 C.ar    1  UNL1        0.1045
      3 N           3.5421    0.9943   29.2318 N.ar    1  UNL1       -0.2436
      4 C           2.4399    1.1636   28.2285 C.ar    1  UNL1        0.0826
      5 C           1.0995    1.6752   28.6660 C.ar    1  UNL1        0.0214
      6 C          -0.0026    1.8445   27.6627 C.ar    1  UNL1        0.0312
      7 C           0.2357    1.5023   26.2219 C.ar    1  UNL1        0.1403
      8 F          -0.8665    1.6717   25.2186 F       1  UNL1       -0.2042
      9 C           1.5762    0.9908   25.7843 C.ar    1  UNL1        0.0324
     10 C           2.6783    0.8214   26.7876 C.ar    1  UNL1        0.0334
     11 C           4.0188    0.3099   26.3500 C.ar    1  UNL1        0.0552
     12 N           7.5627   -4.6783   27.6119 N.3     1  UNL1       -0.1559
     13 C           6.2222   -4.1667   28.0494 C.3     1  UNL1        0.1169
     14 C           5.8551   -2.7310   27.8174 C.3     1  UNL1        0.1129
     15 N           6.8285   -1.8068   27.1478 N.am    1  UNL1       -0.2730
     16 C           6.4614   -0.3711   26.9158 C.2     1  UNL1        0.2518
     17 O           7.4348    0.5532   26.2462 O.2     1  UNL1       -0.2698
     18 C           8.1689   -2.3183   26.7103 C.3     1  UNL1        0.1129
     19 C           8.5361   -3.7541   26.9423 C.3     1  UNL1        0.1169
     20 C           8.2969   -7.5498   28.0760 C.3     1  UNL1        0.1960
     21 S           7.9298   -6.1140   27.8439 S.O2    1  UNL1        0.0458
     22 O           7.3215   -6.0482   29.2134 O.2     1  UNL1       -0.1572
     23 O           8.5381   -6.1798   26.4744 O.2     1  UNL1       -0.1572
     24 N           4.2571   -0.0323   24.9092 N.pl3   1  UNL1       -0.3072
     25 C           4.7197    1.0270   23.9533 C.3     1  UNL1        0.0922
     26 C           4.9580    0.6848   22.5124 C.3     1  UNL1        0.0397
     27 C           4.7337   -0.7167   22.0274 C.3     1  UNL1        0.1013
     28 C           4.2711   -1.7762   22.9833 C.3     1  UNL1        0.0397
     29 C           4.0328   -1.4340   24.4242 C.3     1  UNL1        0.0922
     30 C           4.6614   -1.8922   21.0984 C.ar    1  UNL1       -0.0096
     31 C           3.4190   -2.1375   20.2945 C.ar    1  UNL1       -0.0033
     32 C           3.3466   -3.3129   19.3655 C.ar    1  UNL1       -0.0003
     33 C           4.5167   -4.2431   19.2403 C.ar    1  UNL1       -0.0000
     34 C           5.7591   -3.9979   20.0442 C.ar    1  UNL1       -0.0003
     35 C           5.8315   -2.8224   20.9732 C.ar    1  UNL1       -0.0033
     36 C           5.1712   -0.0656   20.7489 C.1     1  UNL1        0.0753
     37 N           5.6087    0.5855   19.4704 N.1     1  UNL1       -0.1956
@<TRIPOS>BOND
     1    20    21    1
     2    21    22    2
     3    21    23    2
     4    21    12    1
     5    12    13    1
     6    13    14    1
     7    14    15    1
     8    15    16   am
     9    16    17    2
    10    16     1    1
    11     1     2   ar
    12     2     3   ar
    13     3     4   ar
    14     4     5   ar
    15     5     6   ar
    16     6     7   ar
    17     7     8    1
    18     7     9   ar
    19     9    10   ar
    20    10    11   ar
    21    11    24    1
    22    24    25    1
    23    25    26    1
    24    26    27    1
    25    27    36    1
    26    36    37    3
    27    27    30    1
    28    30    31   ar
    29    31    32   ar
    30    32    33   ar
    31    33    34   ar
    32    34    35   ar
    33    27    28    1
    34    28    29    1
    35    15    18    1
    36    18    19    1
    37    19    12    1
    38    11     1   ar
    39    29    24    1
    40    10     4   ar
    41    35    30   ar
@<TRIPOS>MOLECULE
*****
 37 41 0 0 0
SMALL
GASTEIGER

@<TRIPOS>ATOM
      1 C           5.8326   -0.7362   27.9324 C.ar    1  UNL1        0.0860
      2 C           5.8576   -0.6720   29.4308 C.ar    1  UNL1        0.1045
      3 N           6.1785   -1.9007   30.2289 N.ar    1  UNL1       -0.2436
      4 C           6.4745   -3.1939   29.5286 C.ar    1  UNL1        0.0826
      5 C           6.7954   -4.4226   30.3268 C.ar    1  UNL1        0.0214
      6 C           7.0913   -5.7157   29.6265 C.ar    1  UNL1        0.0312
      7 C           7.0663   -5.7799   28.1281 C.ar    1  UNL1        0.1403
      8 F           7.3622   -7.0731   27.4278 F       1  UNL1       -0.2042
      9 C           6.7453   -4.5512   27.3299 C.ar    1  UNL1        0.0324
     10 C           6.4494   -3.2581   28.0302 C.ar    1  UNL1        0.0334
     11 C           6.1285   -2.0293   27.2321 C.ar    1  UNL1        0.0552
     12 N           1.2479    1.8821   26.7594 N.3     1  UNL1       -0.1559
     13 C           1.5689    0.6533   27.5575 C.3     1  UNL1        0.1169
     14 C           2.9901    0.1901   27.6824 C.3     1  UNL1        0.1129
     15 N           4.0904    0.9558   27.0093 N.am    1  UNL1       -0.2730
     16 C           5.5116    0.4926   27.1342 C.2     1  UNL1        0.2518
     17 O           6.6119    1.2583   26.4610 O.2     1  UNL1       -0.2698
     18 C           3.7695    2.1846   26.2112 C.3     1  UNL1        0.1129
     19 C           2.3482    2.6478   26.0862 C.3     1  UNL1        0.1169
     20 C          -1.5944    2.8085   26.5095 C.3     1  UNL1        0.1960
     21 S          -0.1732    2.3453   26.6344 S.O2    1  UNL1        0.0458
     22 O          -0.6385    1.1095   27.3459 O.2     1  UNL1       -0.1572
     23 O           0.2920    3.5811   25.9230 O.2     1  UNL1       -0.1572
     24 N           6.1034   -2.0935   25.7337 N.pl3   1  UNL1       -0.3072
     25 C           7.3687   -1.8939   24.9532 C.3     1  UNL1        0.0922
     26 C           7.3436   -1.9582   23.4548 C.3     1  UNL1        0.0397
     27 C           6.0533   -2.2221   22.7368 C.3     1  UNL1        0.1013
     28 C           4.7880   -2.4217   23.5173 C.3     1  UNL1        0.0397
     29 C           4.8130   -2.3575   25.0158 C.3     1  UNL1        0.0922
     30 C           5.0857   -2.4434   21.6122 C.ar    1  UNL1       -0.0096
     31 C           4.9382   -3.8080   21.0073 C.ar    1  UNL1       -0.0033
     32 C           3.9706   -4.0292   19.8826 C.ar    1  UNL1       -0.0003
     33 C           3.1505   -2.8858   19.3629 C.ar    1  UNL1       -0.0000
     34 C           3.2980   -1.5212   19.9679 C.ar    1  UNL1       -0.0003
     35 C           4.2656   -1.2999   21.0925 C.ar    1  UNL1       -0.0033
     36 C           6.9826   -2.0993   21.5657 C.1     1  UNL1        0.0753
     37 N           7.9118   -1.9765   20.3947 N.1     1  UNL1       -0.1956
@<TRIPOS>BOND
     1    20    21    1
     2    21    22    2
     3    21    23    2
     4    21    12    1
     5    12    13    1
     6    13    14    1
     7    14    15    1
     8    15    16   am
     9    16    17    2
    10    16     1    1
    11     1     2   ar
    12     2     3   ar
    13     3     4   ar
    14     4     5   ar
    15     5     6   ar
    16     6     7   ar
    17     7     8    1
    18     7     9   ar
    19     9    10   ar
    20    10    11   ar
    21    11    24    1
    22    24    25    1
    23    25    26    1
    24    26    27    1
    25    27    36    1
    26    36    37    3
    27    27    30    1
    28    30    31   ar
    29    31    32   ar
    30    32    33   ar
    31    33    34   ar
    32    34    35   ar
    33    27    28    1
    34    28    29    1
    35    15    18    1
    36    18    19    1
    37    19    12    1
    38    11     1   ar
    39    29    24    1
    40    10     4   ar
    41    35    30   ar
@<TRIPOS>MOLECULE
*****
 37 41 0 0 0
SMALL
GASTEIGER

@<TRIPOS>ATOM
      1 C           5.3074   -0.2504   18.3226 C.ar    1  UNL1        0.0860
      2 C           6.5145   -0.5406   17.4808 C.ar    1  UNL1        0.1045
      3 N           7.2831    0.5868   16.8579 N.ar    1  UNL1       -0.2436
      4 C           6.8446    2.0046   17.0767 C.ar    1  UNL1        0.0826
      5 C           7.6133    3.1320   16.4538 C.ar    1  UNL1        0.0214
      6 C           7.1747    4.5497   16.6727 C.ar    1  UNL1        0.0312
      7 C           5.9676    4.8399   17.5145 C.ar    1  UNL1        0.1403
      8 F           5.5291    6.2576   17.7333 F       1  UNL1       -0.2042
      9 C           5.1990    3.7124   18.1374 C.ar    1  UNL1        0.0324
     10 C           5.6375    2.2948   17.9185 C.ar    1  UNL1        0.0334
     11 C           4.8689    1.1673   18.5415 C.ar    1  UNL1        0.0552
     12 N           6.0189   -3.2811   22.7452 N.3     1  UNL1       -0.1559
     13 C           6.7875   -2.1536   22.1222 C.3     1  UNL1        0.1169
     14 C           6.2941   -1.5192   20.8557 C.3     1  UNL1        0.1129
     15 N           5.0321   -2.0123   20.2121 N.am    1  UNL1       -0.2730
     16 C           4.5388   -1.3779   18.9455 C.2     1  UNL1        0.2518
     17 O           3.2768   -1.8710   18.3019 O.2     1  UNL1       -0.2698
     18 C           4.2635   -3.1397   20.8349 C.3     1  UNL1        0.1129
     19 C           4.7569   -3.7742   22.1015 C.3     1  UNL1        0.1169
     20 C           7.0056   -4.5498   25.2782 C.3     1  UNL1        0.1960
     21 S           6.5122   -3.9155   24.0117 S.O2    1  UNL1        0.0458
     22 O           5.9143   -2.7929   24.8069 O.2     1  UNL1       -0.1572
     23 O           7.1101   -5.0380   23.2165 O.2     1  UNL1       -0.1572
     24 N           3.6618    1.4575   19.3833 N.pl3   1  UNL1       -0.3072
     25 C           2.3130    1.5887   18.7403 C.3     1  UNL1        0.0922
     26 C           1.1058    1.8789   19.5821 C.3     1  UNL1        0.0397
     27 C           1.2475    2.0379   21.0669 C.3     1  UNL1        0.1013
     28 C           2.5964    1.9067   21.7099 C.3     1  UNL1        0.0397
     29 C           3.8035    1.6165   20.8681 C.3     1  UNL1        0.0922
     30 C           0.8759    2.2705   22.5014 C.ar    1  UNL1       -0.0096
     31 C           0.8323    3.6667   23.0479 C.ar    1  UNL1       -0.0033
     32 C           0.4607    3.8993   24.4825 C.ar    1  UNL1       -0.0003
     33 C           0.1328    2.7357   25.3705 C.ar    1  UNL1       -0.0000
     34 C           0.1765    1.3395   24.8239 C.ar    1  UNL1       -0.0003
     35 C           0.5480    1.1069   23.3894 C.ar    1  UNL1       -0.0033
     36 C          -0.2304    2.2499   20.9221 C.1     1  UNL1        0.0753
     37 N          -1.7081    2.4619   20.7773 N.1     1  UNL1       -0.1956
@<TRIPOS>BOND
     1    20    21    1
     2    21    22    2
     3    21    23    2
     4    21    12    1
     5    12    13    1
     6    13    14    1
     7    14    15    1
     8    15    16   am
     9    16    17    2
    10    16     1    1
    11     1     2   ar
    12     2     3   ar
    13     3     4   ar
    14     4     5   ar
    15     5     6   ar
    16     6     7   ar
    17     7     8    1
    18     7     9   ar
    19     9    10   ar
    20    10    11   ar
    21    11    24    1
    22    24    25    1
    23    25    26    1
    24    26    27    1
    25    27    36    1
    26    36    37    3
    27    27    30    1
    28    30    31   ar
    29    31    32   ar
    30    32    33   ar
    31    33    34   ar
    32    34    35   ar
    33    27    28    1
    34    28    29    1
    35    15    18    1
    36    18    19    1
    37    19    12    1
    38    11     1   ar
    39    29    24    1
    40    10     4   ar
    41    35    30   ar
