@<TRIPOS>MOLECULE
*****
 30 33 0 0 0
SMALL
GASTEIGER

@<TRIPOS>ATOM
      1 N          -7.1737  -18.7920   21.9575 N.pl3   1  UNL1       -0.2905
      2 C          -7.9279  -20.0327   22.3340 C.3     1  UNL1        0.0926
      3 C          -9.3674  -19.9395   22.7452 C.3     1  UNL1        0.0273
      4 C         -10.0527  -18.6056   22.7800 C.3     1  UNL1        0.0422
      5 C          -9.2984  -17.3649   22.4035 C.3     1  UNL1        0.0750
      6 N          -9.9837  -16.0310   22.4383 N.3     1  UNL1       -0.3206
      7 C          -7.8589  -17.4581   21.9922 C.3     1  UNL1        0.1079
      8 H          -9.3269  -15.3040   22.1546 H       1  UNL1        0.1189
      9 H         -10.3119  -15.8420   23.3853 H       1  UNL1        0.1189
     10 C           0.9373  -18.0845   20.0966 C.3     1  UNL1        0.0523
     11 C          -0.5023  -17.9913   20.5078 C.ar    1  UNL1        0.0658
     12 C          -1.0284  -16.7243   21.1146 C.ar    1  UNL1        0.0773
     13 C          -2.4679  -16.6311   21.5258 C.ar    1  UNL1        0.2830
     14 O          -2.9940  -15.3642   22.1326 O.2     1  UNL1       -0.2651
     15 N          -3.3813  -17.8048   21.3304 N.ar    1  UNL1       -0.1755
     16 N          -4.8208  -17.7115   21.7417 N.ar    1  UNL1       -0.1461
     17 C          -5.7341  -18.8852   21.5462 C.ar    1  UNL1        0.1521
     18 C          -5.2080  -20.1521   20.9395 C.ar    1  UNL1        0.0392
     19 C          -3.7685  -20.2454   20.5282 C.ar    1  UNL1        0.0418
     20 C          -2.8552  -19.0717   20.7237 C.ar    1  UNL1        0.1667
     21 N          -1.4156  -19.1649   20.3124 N.ar    1  UNL1       -0.2306
     22 C         -11.4922  -18.5124   23.1913 C.ar    1  UNL1        0.0087
     23 C         -11.8721  -18.6730   24.6334 C.ar    1  UNL1        0.0300
     24 C         -13.3116  -18.5798   25.0447 C.ar    1  UNL1        0.1672
     25 F         -13.6915  -18.7404   26.4869 F       1  UNL1       -0.2018
     26 C         -14.3712  -18.3261   24.0137 C.ar    1  UNL1        0.1696
     27 F         -15.8107  -18.2329   24.4250 F       1  UNL1       -0.2017
     28 C         -13.9913  -18.1655   22.5716 C.ar    1  UNL1        0.0612
     29 C         -12.5518  -18.2587   22.1603 C.ar    1  UNL1        0.1386
     30 F         -12.1719  -18.0981   20.7181 F       1  UNL1       -0.2044
@<TRIPOS>BOND
     1    10    11    1
     2    11    12   ar
     3    12    13   ar
     4    13    14    2
     5    13    15   ar
     6    15    16   ar
     7    16    17   ar
     8    17     1    1
     9     1     2    1
    10     2     3    1
    11     3     4    1
    12     4    22    1
    13    22    23   ar
    14    23    24   ar
    15    24    25    1
    16    24    26   ar
    17    26    27    1
    18    26    28   ar
    19    28    29   ar
    20    29    30    1
    21     4     5    1
    22     5     6    1
    23     5     7    1
    24    17    18   ar
    25    18    19   ar
    26    19    20   ar
    27    20    21   ar
    28    21    11   ar
    29    20    15   ar
    30     7     1    1
    31    29    22   ar
    32     6     8    1
    33     6     9    1
@<TRIPOS>MOLECULE
*****
 30 33 0 0 0
SMALL
GASTEIGER

@<TRIPOS>ATOM
      1 N           5.1358   -1.3799   31.9853 N.pl3   1  UNL1       -0.2905
      2 C           5.5295   -1.0923   30.5668 C.3     1  UNL1        0.0926
      3 C           6.2627   -2.1281   29.7672 C.3     1  UNL1        0.0273
      4 C           6.6023   -3.4517   30.3861 C.3     1  UNL1        0.0422
      5 C           6.2085   -3.7393   31.8047 C.3     1  UNL1        0.0750
      6 N           6.5480   -5.0627   32.4237 N.3     1  UNL1       -0.3206
      7 C           5.4753   -2.7033   32.6043 C.3     1  UNL1        0.1079
      8 H           6.2078   -5.0857   33.3850 H       1  UNL1        0.1189
      9 H           7.5599   -5.1912   32.4179 H       1  UNL1        0.1189
     10 C           1.7849    3.9862   37.4376 C.3     1  UNL1        0.0523
     11 C           2.5181    2.9502   36.6380 C.ar    1  UNL1        0.0658
     12 C           3.5666    2.1008   37.2931 C.ar    1  UNL1        0.0773
     13 C           4.2998    1.0649   36.4936 C.ar    1  UNL1        0.2830
     14 O           5.3483    0.2154   37.1487 O.2     1  UNL1       -0.2651
     15 N           3.9846    0.8784   35.0389 N.ar    1  UNL1       -0.1755
     16 N           4.7178   -0.1575   34.2394 N.ar    1  UNL1       -0.1461
     17 C           4.4026   -0.3439   32.7849 C.ar    1  UNL1        0.1521
     18 C           3.3541    0.5055   32.1298 C.ar    1  UNL1        0.0392
     19 C           2.6209    1.5414   32.9293 C.ar    1  UNL1        0.0418
     20 C           2.9361    1.7279   34.3839 C.ar    1  UNL1        0.1667
     21 N           2.2029    2.7638   35.1834 N.ar    1  UNL1       -0.2306
     22 C           7.3355   -4.4876   29.5866 C.ar    1  UNL1        0.0087
     23 C           6.6179   -5.2554   28.5163 C.ar    1  UNL1        0.0300
     24 C           7.3511   -6.2912   27.7167 C.ar    1  UNL1        0.1672
     25 F           6.6335   -7.0591   26.6464 F       1  UNL1       -0.2018
     26 C           8.8019   -6.5593   27.9874 C.ar    1  UNL1        0.1696
     27 F           9.5351   -7.5952   27.1878 F       1  UNL1       -0.2017
     28 C           9.5195   -5.7915   29.0577 C.ar    1  UNL1        0.0612
     29 C           8.7862   -4.7556   29.8573 C.ar    1  UNL1        0.1386
     30 F           9.5038   -3.9877   30.9276 F       1  UNL1       -0.2044
@<TRIPOS>BOND
     1    10    11    1
     2    11    12   ar
     3    12    13   ar
     4    13    14    2
     5    13    15   ar
     6    15    16   ar
     7    16    17   ar
     8    17     1    1
     9     1     2    1
    10     2     3    1
    11     3     4    1
    12     4    22    1
    13    22    23   ar
    14    23    24   ar
    15    24    25    1
    16    24    26   ar
    17    26    27    1
    18    26    28   ar
    19    28    29   ar
    20    29    30    1
    21     4     5    1
    22     5     6    1
    23     5     7    1
    24    17    18   ar
    25    18    19   ar
    26    19    20   ar
    27    20    21   ar
    28    21    11   ar
    29    20    15   ar
    30     7     1    1
    31    29    22   ar
    32     6     8    1
    33     6     9    1
@<TRIPOS>MOLECULE
*****
 30 33 0 0 0
SMALL
GASTEIGER

@<TRIPOS>ATOM
      1 N          -7.4876  -17.7931   22.8121 N.pl3   1  UNL1       -0.2905
      2 C          -8.2145  -16.7014   23.5400 C.3     1  UNL1        0.0926
      3 C          -9.6859  -16.8260   23.8031 C.3     1  UNL1        0.0273
      4 C         -10.4306  -18.0424   23.3383 C.3     1  UNL1        0.0422
      5 C          -9.7037  -19.1341   22.6104 C.3     1  UNL1        0.0750
      6 N         -10.4483  -20.3505   22.1457 N.3     1  UNL1       -0.3206
      7 C          -8.2322  -19.0095   22.3473 C.3     1  UNL1        0.1079
      8 H          -9.8034  -20.9841   21.6735 H       1  UNL1        0.1189
      9 H         -11.1855  -20.0712   21.4984 H       1  UNL1        0.1189
     10 C           0.5016  -17.9521   20.3836 C.3     1  UNL1        0.0523
     11 C          -0.9699  -18.0767   20.6468 C.ar    1  UNL1        0.0658
     12 C          -1.8095  -18.9837   19.7968 C.ar    1  UNL1        0.0773
     13 C          -3.2810  -19.1084   20.0599 C.ar    1  UNL1        0.2830
     14 O          -4.1206  -20.0154   19.2100 O.2     1  UNL1       -0.2651
     15 N          -3.9129  -18.3261   21.1729 N.ar    1  UNL1       -0.1755
     16 N          -5.3843  -18.4508   21.4360 N.ar    1  UNL1       -0.1461
     17 C          -6.0161  -17.6685   22.5490 C.ar    1  UNL1        0.1521
     18 C          -5.1765  -16.7615   23.3989 C.ar    1  UNL1        0.0392
     19 C          -3.7050  -16.6368   23.1358 C.ar    1  UNL1        0.0418
     20 C          -3.0732  -17.4191   22.0228 C.ar    1  UNL1        0.1667
     21 N          -1.6017  -17.2944   21.7597 N.ar    1  UNL1       -0.2306
     22 C         -11.9020  -18.1670   23.6014 C.ar    1  UNL1        0.0087
     23 C         -12.3944  -18.4493   24.9899 C.ar    1  UNL1        0.0300
     24 C         -13.8658  -18.5739   25.2530 C.ar    1  UNL1        0.1672
     25 F         -14.3582  -18.8562   26.6415 F       1  UNL1       -0.2018
     26 C         -14.8450  -18.4162   24.1276 C.ar    1  UNL1        0.1696
     27 F         -16.3165  -18.5409   24.3908 F       1  UNL1       -0.2017
     28 C         -14.3527  -18.1340   22.7392 C.ar    1  UNL1        0.0612
     29 C         -12.8811  -18.0093   22.4761 C.ar    1  UNL1        0.1386
     30 F         -12.3888  -17.7271   21.0876 F       1  UNL1       -0.2044
@<TRIPOS>BOND
     1    10    11    1
     2    11    12   ar
     3    12    13   ar
     4    13    14    2
     5    13    15   ar
     6    15    16   ar
     7    16    17   ar
     8    17     1    1
     9     1     2    1
    10     2     3    1
    11     3     4    1
    12     4    22    1
    13    22    23   ar
    14    23    24   ar
    15    24    25    1
    16    24    26   ar
    17    26    27    1
    18    26    28   ar
    19    28    29   ar
    20    29    30    1
    21     4     5    1
    22     5     6    1
    23     5     7    1
    24    17    18   ar
    25    18    19   ar
    26    19    20   ar
    27    20    21   ar
    28    21    11   ar
    29    20    15   ar
    30     7     1    1
    31    29    22   ar
    32     6     8    1
    33     6     9    1
@<TRIPOS>MOLECULE
*****
 30 33 0 0 0
SMALL
GASTEIGER

@<TRIPOS>ATOM
      1 N           6.0017   -2.6081   32.2188 N.pl3   1  UNL1       -0.2905
      2 C           4.7405   -2.8300   32.9999 C.3     1  UNL1        0.0926
      3 C           4.3068   -1.8251   34.0255 C.3     1  UNL1        0.0273
      4 C           5.1343   -0.5981   34.2701 C.3     1  UNL1        0.0422
      5 C           6.3955   -0.3761   33.4890 C.3     1  UNL1        0.0750
      6 N           7.2230    0.8508   33.7335 N.3     1  UNL1       -0.3206
      7 C           6.8292   -1.3812   32.4633 C.3     1  UNL1        0.1079
      8 H           8.0379    0.8391   33.1201 H       1  UNL1        0.1189
      9 H           7.5298    0.8658   34.7061 H       1  UNL1        0.1189
     10 C           8.0313   -7.3218   25.6300 C.3     1  UNL1        0.0523
     11 C           7.5976   -6.3167   26.6556 C.ar    1  UNL1        0.0658
     12 C           7.0253   -5.0003   26.2205 C.ar    1  UNL1        0.0773
     13 C           6.5917   -3.9952   27.2460 C.ar    1  UNL1        0.2830
     14 O           6.0194   -2.6788   26.8109 O.2     1  UNL1       -0.2651
     15 N           6.7303   -4.3067   28.7068 N.ar    1  UNL1       -0.1755
     16 N           6.2967   -3.3017   29.7324 N.ar    1  UNL1       -0.1461
     17 C           6.4353   -3.6131   31.1931 C.ar    1  UNL1        0.1521
     18 C           7.0076   -4.9296   31.6283 C.ar    1  UNL1        0.0392
     19 C           7.4413   -5.9346   30.6027 C.ar    1  UNL1        0.0418
     20 C           7.3026   -5.6232   29.1420 C.ar    1  UNL1        0.1667
     21 N           7.7363   -6.6282   28.1163 N.ar    1  UNL1       -0.2306
     22 C           4.7007    0.4069   35.2957 C.ar    1  UNL1        0.0087
     23 C           3.6546    1.4256   34.9521 C.ar    1  UNL1        0.0300
     24 C           3.2209    2.4305   35.9777 C.ar    1  UNL1        0.1672
     25 F           2.1748    3.4492   35.6341 F       1  UNL1       -0.2018
     26 C           3.8333    2.4168   37.3470 C.ar    1  UNL1        0.1696
     27 F           3.3996    3.4218   38.3726 F       1  UNL1       -0.2017
     28 C           4.8794    1.3982   37.6906 C.ar    1  UNL1        0.0612
     29 C           5.3131    0.3932   36.6649 C.ar    1  UNL1        0.1386
     30 F           6.3591   -0.6255   37.0084 F       1  UNL1       -0.2044
@<TRIPOS>BOND
     1    10    11    1
     2    11    12   ar
     3    12    13   ar
     4    13    14    2
     5    13    15   ar
     6    15    16   ar
     7    16    17   ar
     8    17     1    1
     9     1     2    1
    10     2     3    1
    11     3     4    1
    12     4    22    1
    13    22    23   ar
    14    23    24   ar
    15    24    25    1
    16    24    26   ar
    17    26    27    1
    18    26    28   ar
    19    28    29   ar
    20    29    30    1
    21     4     5    1
    22     5     6    1
    23     5     7    1
    24    17    18   ar
    25    18    19   ar
    26    19    20   ar
    27    20    21   ar
    28    21    11   ar
    29    20    15   ar
    30     7     1    1
    31    29    22   ar
    32     6     8    1
    33     6     9    1
@<TRIPOS>MOLECULE
*****
 30 33 0 0 0
SMALL
GASTEIGER

@<TRIPOS>ATOM
      1 N         -14.4544   -1.3235   19.1115 N.pl3   1  UNL1       -0.2905
      2 C         -13.3732   -1.3461   18.0720 C.3     1  UNL1        0.0926
      3 C         -12.5911   -2.6031   17.8306 C.3     1  UNL1        0.0273
      4 C         -12.8902   -3.8375   18.6287 C.3     1  UNL1        0.0422
      5 C         -13.9713   -3.8148   19.6683 C.3     1  UNL1        0.0750
      6 N         -14.2703   -5.0491   20.4664 N.3     1  UNL1       -0.3206
      7 C         -14.7534   -2.5578   19.9097 C.3     1  UNL1        0.1079
      8 H         -15.0278   -4.8552   21.1214 H       1  UNL1        0.1189
      9 H         -13.4371   -5.3298   20.9835 H       1  UNL1        0.1189
     10 C         -19.7212    4.8906   20.9549 C.3     1  UNL1        0.0523
     11 C         -18.9391    3.6335   20.7135 C.ar    1  UNL1        0.0658
     12 C         -19.5134    2.3053   21.1086 C.ar    1  UNL1        0.0773
     13 C         -18.7314    1.0483   20.8672 C.ar    1  UNL1        0.2830
     14 O         -19.3057   -0.2798   21.2623 O.2     1  UNL1       -0.2651
     15 N         -17.3749    1.1194   20.2307 N.ar    1  UNL1       -0.1755
     16 N         -16.5929   -0.1376   19.9894 N.ar    1  UNL1       -0.1461
     17 C         -15.2365   -0.0664   19.3529 C.ar    1  UNL1        0.1521
     18 C         -14.6621    1.2618   18.9579 C.ar    1  UNL1        0.0392
     19 C         -15.4442    2.5188   19.1992 C.ar    1  UNL1        0.0418
     20 C         -16.8006    2.4476   19.8357 C.ar    1  UNL1        0.1667
     21 N         -17.5827    3.7047   20.0770 N.ar    1  UNL1       -0.2306
     22 C         -12.1081   -5.0944   18.3873 C.ar    1  UNL1        0.0087
     23 C         -10.8518   -5.3569   19.1638 C.ar    1  UNL1        0.0300
     24 C         -10.0697   -6.6139   18.9224 C.ar    1  UNL1        0.1672
     25 F          -8.8134   -6.8763   19.6988 F       1  UNL1       -0.2018
     26 C         -10.5438   -7.6084   17.9045 C.ar    1  UNL1        0.1696
     27 F          -9.7617   -8.8654   17.6630 F       1  UNL1       -0.2017
     28 C         -11.8001   -7.3460   17.1280 C.ar    1  UNL1        0.0612
     29 C         -12.5822   -6.0889   17.3695 C.ar    1  UNL1        0.1386
     30 F         -13.8385   -5.8265   16.5930 F       1  UNL1       -0.2044
@<TRIPOS>BOND
     1    10    11    1
     2    11    12   ar
     3    12    13   ar
     4    13    14    2
     5    13    15   ar
     6    15    16   ar
     7    16    17   ar
     8    17     1    1
     9     1     2    1
    10     2     3    1
    11     3     4    1
    12     4    22    1
    13    22    23   ar
    14    23    24   ar
    15    24    25    1
    16    24    26   ar
    17    26    27    1
    18    26    28   ar
    19    28    29   ar
    20    29    30    1
    21     4     5    1
    22     5     6    1
    23     5     7    1
    24    17    18   ar
    25    18    19   ar
    26    19    20   ar
    27    20    21   ar
    28    21    11   ar
    29    20    15   ar
    30     7     1    1
    31    29    22   ar
    32     6     8    1
    33     6     9    1
@<TRIPOS>MOLECULE
*****
 30 33 0 0 0
SMALL
GASTEIGER

@<TRIPOS>ATOM
      1 N           0.4134    1.6514   19.4784 N.pl3   1  UNL1       -0.2905
      2 C           0.2325    0.5290   20.4569 C.3     1  UNL1        0.0926
      3 C           1.2945   -0.5207   20.5989 C.3     1  UNL1        0.0273
      4 C           2.5375   -0.4480   19.7624 C.3     1  UNL1        0.0422
      5 C           2.7184    0.6743   18.7838 C.3     1  UNL1        0.0750
      6 N           3.9613    0.7470   17.9473 N.3     1  UNL1       -0.3206
      7 C           1.6563    1.7241   18.6419 C.3     1  UNL1        0.1079
      8 H           3.9169    1.5675   17.3430 H       1  UNL1        0.1189
      9 H           4.0352   -0.0937   17.3744 H       1  UNL1        0.1189
     10 C          -6.1409    6.8260   19.6030 C.3     1  UNL1        0.0523
     11 C          -5.0788    5.7763   19.7450 C.ar    1  UNL1        0.0658
     12 C          -5.2610    4.6524   20.7216 C.ar    1  UNL1        0.0773
     13 C          -4.1990    3.6027   20.8636 C.ar    1  UNL1        0.2830
     14 O          -4.3811    2.4788   21.8403 O.2     1  UNL1       -0.2651
     15 N          -2.9548    3.6768   20.0290 N.ar    1  UNL1       -0.1755
     16 N          -1.8928    2.6271   20.1710 N.ar    1  UNL1       -0.1461
     17 C          -0.6487    2.7012   19.3364 C.ar    1  UNL1        0.1521
     18 C          -0.4665    3.8251   18.3598 C.ar    1  UNL1        0.0392
     19 C          -1.5285    4.8748   18.2178 C.ar    1  UNL1        0.0418
     20 C          -2.7726    4.8006   19.0524 C.ar    1  UNL1        0.1667
     21 N          -3.8347    5.8504   18.9104 N.ar    1  UNL1       -0.2306
     22 C           3.5995   -1.4978   19.9044 C.ar    1  UNL1        0.0087
     23 C           3.5578   -2.7277   19.0468 C.ar    1  UNL1        0.0300
     24 C           4.6197   -3.7774   19.1888 C.ar    1  UNL1        0.1672
     25 F           4.5780   -5.0074   18.3311 F       1  UNL1       -0.2018
     26 C           5.7235   -3.5972   20.1884 C.ar    1  UNL1        0.1696
     27 F           6.7855   -4.6470   20.3304 F       1  UNL1       -0.2017
     28 C           5.7653   -2.3673   21.0460 C.ar    1  UNL1        0.0612
     29 C           4.7032   -1.3176   20.9040 C.ar    1  UNL1        0.1386
     30 F           4.7449   -0.0876   21.7616 F       1  UNL1       -0.2044
@<TRIPOS>BOND
     1    10    11    1
     2    11    12   ar
     3    12    13   ar
     4    13    14    2
     5    13    15   ar
     6    15    16   ar
     7    16    17   ar
     8    17     1    1
     9     1     2    1
    10     2     3    1
    11     3     4    1
    12     4    22    1
    13    22    23   ar
    14    23    24   ar
    15    24    25    1
    16    24    26   ar
    17    26    27    1
    18    26    28   ar
    19    28    29   ar
    20    29    30    1
    21     4     5    1
    22     5     6    1
    23     5     7    1
    24    17    18   ar
    25    18    19   ar
    26    19    20   ar
    27    20    21   ar
    28    21    11   ar
    29    20    15   ar
    30     7     1    1
    31    29    22   ar
    32     6     8    1
    33     6     9    1
@<TRIPOS>MOLECULE
*****
 30 33 0 0 0
SMALL
GASTEIGER

@<TRIPOS>ATOM
      1 N         -14.5780   -1.3195   19.1977 N.pl3   1  UNL1       -0.2905
      2 C         -14.6747   -2.4884   20.1326 C.3     1  UNL1        0.0926
      3 C         -13.8925   -3.7378   19.8547 C.3     1  UNL1        0.0273
      4 C         -13.0135   -3.8182   18.6418 C.3     1  UNL1        0.0422
      5 C         -12.9168   -2.6492   17.7069 C.3     1  UNL1        0.0750
      6 N         -12.0379   -2.7296   16.4940 N.3     1  UNL1       -0.3206
      7 C         -13.6991   -1.3998   17.9848 C.3     1  UNL1        0.1079
      8 H         -12.0925   -1.8527   15.9759 H       1  UNL1        0.1189
      9 H         -12.3500   -3.4965   15.8983 H       1  UNL1        0.1189
     10 C         -18.0249    6.2417   20.0335 C.3     1  UNL1        0.0523
     11 C         -17.2426    4.9923   19.7555 C.ar    1  UNL1        0.0658
     12 C         -15.9961    5.0574   18.9236 C.ar    1  UNL1        0.0773
     13 C         -15.2139    3.8081   18.6457 C.ar    1  UNL1        0.2830
     14 O         -13.9674    3.8731   17.8138 O.2     1  UNL1       -0.2651
     15 N         -15.6782    2.4936   19.1996 N.ar    1  UNL1       -0.1755
     16 N         -14.8959    1.2443   18.9217 N.ar    1  UNL1       -0.1461
     17 C         -15.3602   -0.0700   19.4756 C.ar    1  UNL1        0.1521
     18 C         -16.6067   -0.1351   20.3075 C.ar    1  UNL1        0.0392
     19 C         -17.3889    1.1142   20.5855 C.ar    1  UNL1        0.0418
     20 C         -16.9246    2.4286   20.0315 C.ar    1  UNL1        0.1667
     21 N         -17.7069    3.6780   20.3095 N.ar    1  UNL1       -0.2306
     22 C         -12.2314   -5.0676   18.3639 C.ar    1  UNL1        0.0087
     23 C         -10.9814   -5.3582   19.1405 C.ar    1  UNL1        0.0300
     24 C         -10.1992   -6.6076   18.8626 C.ar    1  UNL1        0.1672
     25 F          -8.9493   -6.8982   19.6392 F       1  UNL1       -0.2018
     26 C         -10.6670   -7.5664   17.8081 C.ar    1  UNL1        0.1696
     27 F          -9.8848   -8.8157   17.5302 F       1  UNL1       -0.2017
     28 C         -11.9170   -7.2757   17.0315 C.ar    1  UNL1        0.0612
     29 C         -12.6992   -6.0263   17.3095 C.ar    1  UNL1        0.1386
     30 F         -13.9491   -5.7356   16.5329 F       1  UNL1       -0.2044
@<TRIPOS>BOND
     1    10    11    1
     2    11    12   ar
     3    12    13   ar
     4    13    14    2
     5    13    15   ar
     6    15    16   ar
     7    16    17   ar
     8    17     1    1
     9     1     2    1
    10     2     3    1
    11     3     4    1
    12     4    22    1
    13    22    23   ar
    14    23    24   ar
    15    24    25    1
    16    24    26   ar
    17    26    27    1
    18    26    28   ar
    19    28    29   ar
    20    29    30    1
    21     4     5    1
    22     5     6    1
    23     5     7    1
    24    17    18   ar
    25    18    19   ar
    26    19    20   ar
    27    20    21   ar
    28    21    11   ar
    29    20    15   ar
    30     7     1    1
    31    29    22   ar
    32     6     8    1
    33     6     9    1
@<TRIPOS>MOLECULE
*****
 30 33 0 0 0
SMALL
GASTEIGER

@<TRIPOS>ATOM
      1 N         -14.3294   -1.3290   19.2680 N.pl3   1  UNL1       -0.2905
      2 C         -15.6326   -1.1934   19.9984 C.3     1  UNL1        0.0926
      3 C         -16.3432    0.1273   20.0257 C.3     1  UNL1        0.0273
      4 C         -15.7507    1.3125   19.3225 C.3     1  UNL1        0.0422
      5 C         -14.4476    1.1769   18.5921 C.3     1  UNL1        0.0750
      6 N         -13.8551    2.3620   17.8890 N.3     1  UNL1       -0.3206
      7 C         -13.7369   -0.1439   18.5649 C.3     1  UNL1        0.1079
      8 H         -12.9754    2.0916   17.4492 H       1  UNL1        0.1189
      9 H         -13.6827    3.1068   18.5642 H       1  UNL1        0.1189
     10 C          -9.4786   -8.0710   18.3927 C.3     1  UNL1        0.0523
     11 C         -10.1892   -6.7502   18.4199 C.ar    1  UNL1        0.0658
     12 C          -9.6020   -5.5678   17.7079 C.ar    1  UNL1        0.0773
     13 C         -10.3125   -4.2471   17.7351 C.ar    1  UNL1        0.2830
     14 O          -9.7253   -3.0646   17.0231 O.2     1  UNL1       -0.2651
     15 N         -11.6104   -4.1087   18.4743 N.ar    1  UNL1       -0.1755
     16 N         -12.3210   -2.7880   18.5016 N.ar    1  UNL1       -0.1461
     17 C         -13.6188   -2.6497   19.2408 C.ar    1  UNL1        0.1521
     18 C         -14.2061   -3.8322   19.9528 C.ar    1  UNL1        0.0392
     19 C         -13.4955   -5.1529   19.9256 C.ar    1  UNL1        0.0418
     20 C         -12.1977   -5.2912   19.1863 C.ar    1  UNL1        0.1667
     21 N         -11.4871   -6.6119   19.1591 N.ar    1  UNL1       -0.2306
     22 C         -16.4613    2.6331   19.3498 C.ar    1  UNL1        0.0087
     23 C         -16.2729    3.5624   20.5121 C.ar    1  UNL1        0.0300
     24 C         -16.9835    4.8830   20.5394 C.ar    1  UNL1        0.1672
     25 F         -16.7951    5.8123   21.7017 F       1  UNL1       -0.2018
     26 C         -17.8826    5.2745   19.4042 C.ar    1  UNL1        0.1696
     27 F         -18.5933    6.5952   19.4315 F       1  UNL1       -0.2017
     28 C         -18.0710    4.3453   18.2419 C.ar    1  UNL1        0.0612
     29 C         -17.3604    3.0246   18.2147 C.ar    1  UNL1        0.1386
     30 F         -17.5488    2.0953   17.0524 F       1  UNL1       -0.2044
@<TRIPOS>BOND
     1    10    11    1
     2    11    12   ar
     3    12    13   ar
     4    13    14    2
     5    13    15   ar
     6    15    16   ar
     7    16    17   ar
     8    17     1    1
     9     1     2    1
    10     2     3    1
    11     3     4    1
    12     4    22    1
    13    22    23   ar
    14    23    24   ar
    15    24    25    1
    16    24    26   ar
    17    26    27    1
    18    26    28   ar
    19    28    29   ar
    20    29    30    1
    21     4     5    1
    22     5     6    1
    23     5     7    1
    24    17    18   ar
    25    18    19   ar
    26    19    20   ar
    27    20    21   ar
    28    21    11   ar
    29    20    15   ar
    30     7     1    1
    31    29    22   ar
    32     6     8    1
    33     6     9    1
@<TRIPOS>MOLECULE
*****
 30 33 0 0 0
SMALL
GASTEIGER

@<TRIPOS>ATOM
      1 N          -7.3631  -18.7029   22.3896 N.pl3   1  UNL1       -0.2905
      2 C          -6.9301  -19.6054   21.2725 C.3     1  UNL1        0.0926
      3 C          -5.5509  -19.4776   20.6967 C.3     1  UNL1        0.0273
      4 C          -4.6047  -18.4472   21.2381 C.3     1  UNL1        0.0422
      5 C          -5.0376  -17.5447   22.3552 C.3     1  UNL1        0.0750
      6 N          -4.0915  -16.5144   22.8966 N.3     1  UNL1       -0.3206
      7 C          -6.4169  -17.6726   22.9310 C.3     1  UNL1        0.1079
      8 H          -4.5477  -15.9942   23.6460 H       1  UNL1        0.1189
      9 H          -3.8247  -15.8722   22.1504 H       1  UNL1        0.1189
     10 C         -15.3422  -18.3986   24.8373 C.3     1  UNL1        0.0523
     11 C         -13.9630  -18.2707   24.2615 C.ar    1  UNL1        0.0658
     12 C         -13.6671  -17.1990   23.2546 C.ar    1  UNL1        0.0773
     13 C         -12.2879  -17.0711   22.6788 C.ar    1  UNL1        0.2830
     14 O         -11.9920  -15.9995   21.6718 O.2     1  UNL1       -0.2651
     15 N         -11.2046  -18.0149   23.1100 N.ar    1  UNL1       -0.1755
     16 N          -9.8255  -17.8870   22.5342 N.ar    1  UNL1       -0.1461
     17 C          -8.7423  -18.8308   22.9654 C.ar    1  UNL1        0.1521
     18 C          -9.0382  -19.9024   23.9724 C.ar    1  UNL1        0.0392
     19 C         -10.4174  -20.0303   24.5481 C.ar    1  UNL1        0.0418
     20 C         -11.5006  -19.0866   24.1169 C.ar    1  UNL1        0.1667
     21 N         -12.8798  -19.2144   24.6927 N.ar    1  UNL1       -0.2306
     22 C          -3.2255  -18.3194   20.6623 C.ar    1  UNL1        0.0087
     23 C          -3.0467  -18.0027   19.2071 C.ar    1  UNL1        0.0300
     24 C          -1.6676  -17.8749   18.6313 C.ar    1  UNL1        0.1672
     25 F          -1.4887  -17.5581   17.1761 F       1  UNL1       -0.2018
     26 C          -0.4671  -18.0637   19.5108 C.ar    1  UNL1        0.1696
     27 F           0.9120  -17.9359   18.9350 F       1  UNL1       -0.2017
     28 C          -0.6460  -18.3804   20.9660 C.ar    1  UNL1        0.0612
     29 C          -2.0252  -18.5083   21.5418 C.ar    1  UNL1        0.1386
     30 F          -2.2040  -18.8250   22.9970 F       1  UNL1       -0.2044
@<TRIPOS>BOND
     1    10    11    1
     2    11    12   ar
     3    12    13   ar
     4    13    14    2
     5    13    15   ar
     6    15    16   ar
     7    16    17   ar
     8    17     1    1
     9     1     2    1
    10     2     3    1
    11     3     4    1
    12     4    22    1
    13    22    23   ar
    14    23    24   ar
    15    24    25    1
    16    24    26   ar
    17    26    27    1
    18    26    28   ar
    19    28    29   ar
    20    29    30    1
    21     4     5    1
    22     5     6    1
    23     5     7    1
    24    17    18   ar
    25    18    19   ar
    26    19    20   ar
    27    20    21   ar
    28    21    11   ar
    29    20    15   ar
    30     7     1    1
    31    29    22   ar
    32     6     8    1
    33     6     9    1
