@<TRIPOS>MOLECULE
*****
 41 44 0 0 0
SMALL
GASTEIGER

@<TRIPOS>ATOM
      1 C           1.0951    1.6170   39.6101 C.3     1  UNL1        0.1122
      2 N           2.2235    1.1594   38.7341 N.am    1  UNL1       -0.2870
      3 C           2.5065    1.8694   37.4435 C.2     1  UNL1        0.3040
      4 O           1.6610    3.0369   37.0288 O.2     1  UNL1       -0.2526
      5 N           3.6349    1.4119   36.5675 N.am    1  UNL1       -0.2641
      6 C           4.4804    0.2443   36.9822 C.3     1  UNL1        0.0966
      7 C           5.6088   -0.2132   36.1062 C.3     1  UNL1        0.0413
      8 C           5.8917    0.4968   34.8156 C.3     1  UNL1        0.0777
      9 C           5.0463    1.6643   34.4009 C.3     1  UNL1        0.0539
     10 C           3.9178    2.1218   35.2769 C.3     1  UNL1        0.0979
     11 H           2.7784    0.3931   39.0063 H       1  UNL1        0.1510
     12 N           7.0202    0.0392   33.9396 N.am    1  UNL1       -0.2901
     13 C           6.8317   -1.1355   33.0262 C.2     1  UNL1        0.3058
     14 O           5.5148   -1.8528   32.9887 O.2     1  UNL1       -0.2524
     15 N           7.9601   -1.5931   32.1502 N.am    1  UNL1       -0.2485
     16 H           7.8845    0.5100   33.9642 H       1  UNL1        0.1509
     17 H           8.8244   -1.1223   32.1748 H       1  UNL1        0.1583
     18 C           7.7716   -2.7679   31.2367 C.ar    1  UNL1        0.1664
     19 N           8.2500   -4.1669   31.4894 N.ar    1  UNL1       -0.2282
     20 C           7.8457   -5.0135   30.3190 C.ar    1  UNL1        0.0701
     21 C           8.1213   -6.4787   30.1537 C.3     1  UNL1        0.0528
     22 C           7.1173   -4.1377   29.3430 C.ar    1  UNL1        0.0803
     23 S           7.0716   -2.7498   29.9102 S.2     1  UNL1       -0.0488
     24 C           6.5367   -4.5733   28.0303 C.2     1  UNL1        0.1807
     25 C           6.9276   -3.8670   26.7661 C.3     1  UNL1        0.0779
     26 O           5.5653   -5.7152   27.9819 O.2     1  UNL1       -0.2908
     27 C           5.3292    2.3743   33.1102 C.3     1  UNL1        0.0754
     28 N           5.0986    1.6751   31.8034 N.3     1  UNL1       -0.2726
     29 C           6.1873    1.6342   30.7723 C.3     1  UNL1        0.0721
     30 C           5.9566    0.9350   29.4654 C.3     1  UNL1        0.0174
     31 C           4.6374    0.2766   29.1896 C.3     1  UNL1        0.0031
     32 C           3.5487    0.3175   30.2207 C.3     1  UNL1        0.0204
     33 C           3.7793    1.0167   31.5275 C.3     1  UNL1        0.0724
     34 C           2.2294   -0.3408   29.9450 C.3     1  UNL1        0.0277
     35 C           1.1633    0.4010   29.1944 C.ar    1  UNL1       -0.0220
     36 C           1.4842    1.7076   28.5312 C.ar    1  UNL1       -0.0020
     37 C           0.4182    2.4494   27.7807 C.ar    1  UNL1        0.0293
     38 C          -0.9687    1.8847   27.6935 C.ar    1  UNL1        0.1401
     39 F          -2.0348    2.6265   26.9430 F       1  UNL1       -0.2042
     40 C          -1.2895    0.5781   28.3568 C.ar    1  UNL1        0.0293
     41 C          -0.2235   -0.1637   29.1072 C.ar    1  UNL1       -0.0020
@<TRIPOS>BOND
     1     1     2    1
     2     2     3   am
     3     3     4    2
     4     3     5   am
     5     5     6    1
     6     6     7    1
     7     7     8    1
     8     8    12    1
     9    12    13   am
    10    13    14    2
    11    13    15   am
    12    15    18    1
    13    18    19   ar
    14    19    20   ar
    15    20    21    1
    16    20    22   ar
    17    22    24    1
    18    24    25    1
    19    24    26    2
    20    22    23   ar
    21     8     9    1
    22     9    27    1
    23    27    28    1
    24    28    29    1
    25    29    30    1
    26    30    31    1
    27    31    32    1
    28    32    34    1
    29    34    35    1
    30    35    36   ar
    31    36    37   ar
    32    37    38   ar
    33    38    39    1
    34    38    40   ar
    35    40    41   ar
    36    32    33    1
    37     9    10    1
    38    10     5    1
    39    23    18   ar
    40    33    28    1
    41    41    35   ar
    42     2    11    1
    43    12    16    1
    44    15    17    1
@<TRIPOS>MOLECULE
*****
 41 44 0 0 0
SMALL
GASTEIGER

@<TRIPOS>ATOM
      1 C           6.2982   -4.0659   20.1088 C.3     1  UNL1        0.1122
      2 N           5.3280   -2.9743   19.7665 N.am    1  UNL1       -0.2870
      3 C           5.2414   -1.7502   20.6290 C.2     1  UNL1        0.3040
      4 O           6.1250   -1.6177   21.8338 O.2     1  UNL1       -0.2526
      5 N           4.2713   -0.6586   20.2867 N.am    1  UNL1       -0.2641
      6 C           3.3877   -0.7911   19.0818 C.3     1  UNL1        0.0966
      7 C           2.4176    0.3005   18.7395 C.3     1  UNL1        0.0413
      8 C           2.3310    1.5246   19.6020 C.3     1  UNL1        0.0777
      9 C           3.2146    1.6571   20.8069 C.3     1  UNL1        0.0539
     10 C           4.1847    0.5655   21.1492 C.3     1  UNL1        0.0979
     11 H           4.7481   -3.0613   18.9757 H       1  UNL1        0.1510
     12 N           1.3608    2.6163   19.2597 N.am    1  UNL1       -0.2901
     13 C          -0.0353    2.5776   19.8068 C.2     1  UNL1        0.3058
     14 O          -0.4613    1.4474   20.6963 O.2     1  UNL1       -0.2524
     15 N          -1.0054    3.6693   19.4645 N.am    1  UNL1       -0.2485
     16 H           1.6404    3.3581   18.6760 H       1  UNL1        0.1509
     17 H          -0.7258    4.4111   18.8807 H       1  UNL1        0.1583
     18 C          -2.4016    3.6306   20.0117 C.ar    1  UNL1        0.1664
     19 N          -2.7912    3.2424   21.4072 N.ar    1  UNL1       -0.2282
     20 C          -4.2836    3.3453   21.5173 C.ar    1  UNL1        0.0701
     21 C          -5.1000    3.0485   22.7402 C.3     1  UNL1        0.0528
     22 C          -4.8164    3.7970   20.1898 C.ar    1  UNL1        0.0803
     23 S          -3.6532    3.9734   19.2593 S.2     1  UNL1       -0.0488
     24 C          -6.2590    4.0313   19.8522 C.2     1  UNL1        0.1807
     25 C          -6.8904    3.2956   18.7076 C.3     1  UNL1        0.0779
     26 O          -7.0702    5.0012   20.6592 O.2     1  UNL1       -0.2908
     27 C           3.1280    2.8813   21.6695 C.3     1  UNL1        0.0754
     28 N           1.9513    3.0763   22.5789 N.3     1  UNL1       -0.2726
     29 C           1.1743    4.3587   22.5357 C.3     1  UNL1        0.0721
     30 C          -0.0025    4.5536   23.4453 C.3     1  UNL1        0.0174
     31 C          -0.4023    3.4662   24.3980 C.3     1  UNL1        0.0031
     32 C           0.3747    2.1838   24.4412 C.3     1  UNL1        0.0204
     33 C           1.5514    1.9889   23.5317 C.3     1  UNL1        0.0724
     34 C          -0.0251    1.0964   25.3939 C.3     1  UNL1        0.0277
     35 C           0.1597    1.2873   26.8702 C.ar    1  UNL1       -0.0220
     36 C          -0.7699    0.6138   27.8357 C.ar    1  UNL1       -0.0020
     37 C          -0.5851    0.8046   29.3120 C.ar    1  UNL1        0.0293
     38 C           0.5293    1.6691   29.8227 C.ar    1  UNL1        0.1401
     39 F           0.7141    1.8600   31.2991 F       1  UNL1       -0.2042
     40 C           1.4588    2.3427   28.8573 C.ar    1  UNL1        0.0293
     41 C           1.2741    2.1518   27.3810 C.ar    1  UNL1       -0.0020
@<TRIPOS>BOND
     1     1     2    1
     2     2     3   am
     3     3     4    2
     4     3     5   am
     5     5     6    1
     6     6     7    1
     7     7     8    1
     8     8    12    1
     9    12    13   am
    10    13    14    2
    11    13    15   am
    12    15    18    1
    13    18    19   ar
    14    19    20   ar
    15    20    21    1
    16    20    22   ar
    17    22    24    1
    18    24    25    1
    19    24    26    2
    20    22    23   ar
    21     8     9    1
    22     9    27    1
    23    27    28    1
    24    28    29    1
    25    29    30    1
    26    30    31    1
    27    31    32    1
    28    32    34    1
    29    34    35    1
    30    35    36   ar
    31    36    37   ar
    32    37    38   ar
    33    38    39    1
    34    38    40   ar
    35    40    41   ar
    36    32    33    1
    37     9    10    1
    38    10     5    1
    39    23    18   ar
    40    33    28    1
    41    41    35   ar
    42     2    11    1
    43    12    16    1
    44    15    17    1
@<TRIPOS>MOLECULE
*****
 41 44 0 0 0
SMALL
GASTEIGER

@<TRIPOS>ATOM
      1 C           6.5038    7.3349   41.7235 C.3     1  UNL1        0.1122
      2 N           5.6159    6.6597   40.7206 N.am    1  UNL1       -0.2870
      3 C           5.7960    5.2009   40.4215 C.2     1  UNL1        0.3040
      4 O           6.8640    4.4174   41.1252 O.2     1  UNL1       -0.2526
      5 N           4.9081    4.5257   39.4186 N.am    1  UNL1       -0.2641
      6 C           3.8401    5.3093   38.7148 C.3     1  UNL1        0.0966
      7 C           2.9522    4.6341   37.7119 C.3     1  UNL1        0.0413
      8 C           3.1324    3.1754   37.4128 C.3     1  UNL1        0.0777
      9 C           4.2004    2.3918   38.1166 C.3     1  UNL1        0.0539
     10 C           5.0883    3.0670   39.1195 C.3     1  UNL1        0.0979
     11 H           4.9149    7.1740   40.2587 H       1  UNL1        0.1510
     12 N           2.2445    2.5002   36.4099 N.am    1  UNL1       -0.2901
     13 C           2.5752    2.5698   34.9485 C.2     1  UNL1        0.3058
     14 O           3.7938    3.3147   34.4899 O.2     1  UNL1       -0.2524
     15 N           1.6873    1.8946   33.9456 N.am    1  UNL1       -0.2485
     16 H           1.4447    2.0113   36.7109 H       1  UNL1        0.1509
     17 H           0.8875    1.4058   34.2465 H       1  UNL1        0.1583
     18 C           2.0181    1.9643   32.4841 C.ar    1  UNL1        0.1664
     19 N           1.8068    3.1483   31.5878 N.ar    1  UNL1       -0.2282
     20 C           2.2763    2.7779   30.2122 C.ar    1  UNL1        0.0701
     21 C           2.2492    3.6648   29.0027 C.3     1  UNL1        0.0528
     22 C           2.7778    1.3649   30.2583 C.ar    1  UNL1        0.0803
     23 S           2.6182    0.8621   31.6625 S.2     1  UNL1       -0.0488
     24 C           3.3401    0.5908   29.1031 C.2     1  UNL1        0.1807
     25 C           2.6197   -0.6209   28.5907 C.3     1  UNL1        0.0779
     26 O           4.6229    1.0283   28.4604 O.2     1  UNL1       -0.2908
     27 C           4.3806    0.9330   37.8174 C.3     1  UNL1        0.0754
     28 N           5.1241    0.5060   36.5867 N.3     1  UNL1       -0.2726
     29 C           6.4832    1.0709   36.2977 C.3     1  UNL1        0.0721
     30 C           7.2268    0.6438   35.0668 C.3     1  UNL1        0.0174
     31 C           6.6111   -0.3481   34.1251 C.3     1  UNL1        0.0031
     32 C           5.2519   -0.9130   34.4140 C.3     1  UNL1        0.0204
     33 C           4.5084   -0.4860   35.6448 C.3     1  UNL1        0.0724
     34 C           4.6363   -1.9049   33.4723 C.3     1  UNL1        0.0277
     35 C           5.4278   -2.4267   32.3098 C.ar    1  UNL1       -0.0220
     36 C           6.2390   -3.6798   32.4569 C.ar    1  UNL1       -0.0020
     37 C           7.0306   -4.2017   31.2946 C.ar    1  UNL1        0.0293
     38 C           7.0109   -3.4704   29.9851 C.ar    1  UNL1        0.1401
     39 F           7.8025   -3.9922   28.8227 F       1  UNL1       -0.2042
     40 C           6.1997   -2.2173   29.8380 C.ar    1  UNL1        0.0293
     41 C           5.4082   -1.6954   31.0003 C.ar    1  UNL1       -0.0020
@<TRIPOS>BOND
     1     1     2    1
     2     2     3   am
     3     3     4    2
     4     3     5   am
     5     5     6    1
     6     6     7    1
     7     7     8    1
     8     8    12    1
     9    12    13   am
    10    13    14    2
    11    13    15   am
    12    15    18    1
    13    18    19   ar
    14    19    20   ar
    15    20    21    1
    16    20    22   ar
    17    22    24    1
    18    24    25    1
    19    24    26    2
    20    22    23   ar
    21     8     9    1
    22     9    27    1
    23    27    28    1
    24    28    29    1
    25    29    30    1
    26    30    31    1
    27    31    32    1
    28    32    34    1
    29    34    35    1
    30    35    36   ar
    31    36    37   ar
    32    37    38   ar
    33    38    39    1
    34    38    40   ar
    35    40    41   ar
    36    32    33    1
    37     9    10    1
    38    10     5    1
    39    23    18   ar
    40    33    28    1
    41    41    35   ar
    42     2    11    1
    43    12    16    1
    44    15    17    1
@<TRIPOS>MOLECULE
*****
 41 44 0 0 0
SMALL
GASTEIGER

@<TRIPOS>ATOM
      1 C          -2.3141    3.1752   24.8334 C.3     1  UNL1        0.1122
      2 N          -1.0406    2.7561   25.5061 N.am    1  UNL1       -0.2870
      3 C           0.1191    2.2768   24.6844 C.2     1  UNL1        0.3040
      4 O           0.0054    2.2167   23.1900 O.2     1  UNL1       -0.2526
      5 N           1.3926    1.8577   25.3571 N.am    1  UNL1       -0.2641
      6 C           1.5064    1.9179   26.8515 C.3     1  UNL1        0.0966
      7 C           2.7799    1.4988   27.5243 C.3     1  UNL1        0.0413
      8 C           3.9396    1.0195   26.7026 C.3     1  UNL1        0.0777
      9 C           3.8259    0.9594   25.2081 C.3     1  UNL1        0.0539
     10 C           2.5524    1.3785   24.5354 C.3     1  UNL1        0.0979
     11 H          -0.9660    2.7956   26.4870 H       1  UNL1        0.1510
     12 N           5.2131    0.6004   27.3753 N.am    1  UNL1       -0.2901
     13 C           5.4475   -0.8442   27.7040 C.2     1  UNL1        0.3058
     14 O           4.4083   -1.8698   27.3600 O.2     1  UNL1       -0.2524
     15 N           6.7210   -1.2633   28.3767 N.am    1  UNL1       -0.2485
     16 H           5.8952    1.2735   27.6010 H       1  UNL1        0.1509
     17 H           7.4030   -0.5902   28.6025 H       1  UNL1        0.1583
     18 C           6.9553   -2.7080   28.7054 C.ar    1  UNL1        0.1664
     19 N           7.0433   -3.8338   27.7182 N.ar    1  UNL1       -0.2282
     20 C           7.2851   -5.1021   28.4817 C.ar    1  UNL1        0.0701
     21 C           7.4385   -6.4719   27.8900 C.3     1  UNL1        0.0528
     22 C           7.3466   -4.7601   29.9410 C.ar    1  UNL1        0.0803
     23 S           7.1427   -3.2805   30.0792 S.2     1  UNL1       -0.0488
     24 C           7.5723   -5.7278   31.0646 C.2     1  UNL1        0.1807
     25 C           8.9398   -6.2969   31.3009 C.3     1  UNL1        0.0779
     26 O           6.4304   -6.1264   31.9519 O.2     1  UNL1       -0.2908
     27 C           4.9857    0.4801   24.3863 C.3     1  UNL1        0.0754
     28 N           4.9107   -0.8426   23.6830 N.3     1  UNL1       -0.2726
     29 C           5.5267   -2.0598   24.3068 C.3     1  UNL1        0.0721
     30 C           5.4517   -3.3825   23.6034 C.3     1  UNL1        0.0174
     31 C           4.7608   -3.4881   22.2762 C.3     1  UNL1        0.0031
     32 C           4.1449   -2.2710   21.6524 C.3     1  UNL1        0.0204
     33 C           4.2198   -0.9483   22.3557 C.3     1  UNL1        0.0724
     34 C           3.4540   -2.3766   20.3252 C.3     1  UNL1        0.0277
     35 C           2.7396   -1.1873   19.7548 C.ar    1  UNL1       -0.0220
     36 C           3.4170   -0.3255   18.7309 C.ar    1  UNL1       -0.0020
     37 C           2.7027    0.8637   18.1605 C.ar    1  UNL1        0.0293
     38 C           1.3110    1.1912   18.6140 C.ar    1  UNL1        0.1401
     39 F           0.5966    2.3805   18.0435 F       1  UNL1       -0.2042
     40 C           0.6335    0.3294   19.6379 C.ar    1  UNL1        0.0293
     41 C           1.3478   -0.8599   20.2083 C.ar    1  UNL1       -0.0020
@<TRIPOS>BOND
     1     1     2    1
     2     2     3   am
     3     3     4    2
     4     3     5   am
     5     5     6    1
     6     6     7    1
     7     7     8    1
     8     8    12    1
     9    12    13   am
    10    13    14    2
    11    13    15   am
    12    15    18    1
    13    18    19   ar
    14    19    20   ar
    15    20    21    1
    16    20    22   ar
    17    22    24    1
    18    24    25    1
    19    24    26    2
    20    22    23   ar
    21     8     9    1
    22     9    27    1
    23    27    28    1
    24    28    29    1
    25    29    30    1
    26    30    31    1
    27    31    32    1
    28    32    34    1
    29    34    35    1
    30    35    36   ar
    31    36    37   ar
    32    37    38   ar
    33    38    39    1
    34    38    40   ar
    35    40    41   ar
    36    32    33    1
    37     9    10    1
    38    10     5    1
    39    23    18   ar
    40    33    28    1
    41    41    35   ar
    42     2    11    1
    43    12    16    1
    44    15    17    1
@<TRIPOS>MOLECULE
*****
 41 44 0 0 0
SMALL
GASTEIGER

@<TRIPOS>ATOM
      1 C          -4.0609    4.2773   25.9278 C.3     1  UNL1        0.1122
      2 N          -3.1675    3.2966   26.6279 N.am    1  UNL1       -0.2870
      3 C          -1.7142    3.2149   26.2659 C.2     1  UNL1        0.3040
      4 O          -1.1542    4.1138   25.2037 O.2     1  UNL1       -0.2526
      5 N          -0.8209    2.2342   26.9660 N.am    1  UNL1       -0.2641
      6 C          -1.3809    1.3352   28.0282 C.3     1  UNL1        0.0966
      7 C          -0.4876    0.3545   28.7283 C.3     1  UNL1        0.0413
      8 C           0.9658    0.2728   28.3663 C.3     1  UNL1        0.0777
      9 C           1.5258    1.1717   27.3042 C.3     1  UNL1        0.0539
     10 C           0.6324    2.1524   26.6040 C.3     1  UNL1        0.0979
     11 H          -3.5351    2.7066   27.3251 H       1  UNL1        0.1510
     12 N           1.8591   -0.7080   29.0664 N.am    1  UNL1       -0.2901
     13 C           2.6091   -0.2931   30.2974 C.2     1  UNL1        0.3058
     14 O           2.4658    1.1025   30.8283 O.2     1  UNL1       -0.2524
     15 N           3.5024   -1.2738   30.9975 N.am    1  UNL1       -0.2485
     16 H           1.9531   -1.6239   28.7180 H       1  UNL1        0.1509
     17 H           3.5965   -2.1898   30.6491 H       1  UNL1        0.1583
     18 C           4.2525   -0.8589   32.2286 C.ar    1  UNL1        0.1664
     19 N           3.7829   -1.0214   33.6438 N.ar    1  UNL1       -0.2282
     20 C           4.8440   -0.4715   34.5503 C.ar    1  UNL1        0.0701
     21 C           4.7892   -0.4311   36.0488 C.3     1  UNL1        0.0528
     22 C           5.9694    0.0308   33.6953 C.ar    1  UNL1        0.0803
     23 S           5.6038   -0.2086   32.2604 S.2     1  UNL1       -0.0488
     24 C           7.2377    0.6617   34.1886 C.2     1  UNL1        0.1807
     25 C           7.3598    2.1557   34.2443 C.3     1  UNL1        0.0779
     26 O           8.3839   -0.2013   34.6261 O.2     1  UNL1       -0.2908
     27 C           2.9792    1.0900   26.9421 C.3     1  UNL1        0.0754
     28 N           3.4514    0.0552   25.9642 N.3     1  UNL1       -0.2726
     29 C           4.4178   -1.0050   26.4024 C.3     1  UNL1        0.0721
     30 C           4.8901   -2.0398   25.4245 C.3     1  UNL1        0.0174
     31 C           4.3960   -2.0143   24.0085 C.3     1  UNL1        0.0031
     32 C           3.4296   -0.9540   23.5703 C.3     1  UNL1        0.0204
     33 C           2.9574    0.0807   24.5481 C.3     1  UNL1        0.0724
     34 C           2.9356   -0.9285   22.1543 C.3     1  UNL1        0.0277
     35 C           3.8436   -1.3454   21.0354 C.ar    1  UNL1       -0.0220
     36 C           5.1078   -0.5823   20.7716 C.ar    1  UNL1       -0.0020
     37 C           6.0158   -0.9991   19.6528 C.ar    1  UNL1        0.0293
     38 C           5.6597   -2.1790   18.7979 C.ar    1  UNL1        0.1401
     39 F           6.5678   -2.5958   17.6790 F       1  UNL1       -0.2042
     40 C           4.3955   -2.9421   19.0617 C.ar    1  UNL1        0.0293
     41 C           3.4875   -2.5253   20.1805 C.ar    1  UNL1       -0.0020
@<TRIPOS>BOND
     1     1     2    1
     2     2     3   am
     3     3     4    2
     4     3     5   am
     5     5     6    1
     6     6     7    1
     7     7     8    1
     8     8    12    1
     9    12    13   am
    10    13    14    2
    11    13    15   am
    12    15    18    1
    13    18    19   ar
    14    19    20   ar
    15    20    21    1
    16    20    22   ar
    17    22    24    1
    18    24    25    1
    19    24    26    2
    20    22    23   ar
    21     8     9    1
    22     9    27    1
    23    27    28    1
    24    28    29    1
    25    29    30    1
    26    30    31    1
    27    31    32    1
    28    32    34    1
    29    34    35    1
    30    35    36   ar
    31    36    37   ar
    32    37    38   ar
    33    38    39    1
    34    38    40   ar
    35    40    41   ar
    36    32    33    1
    37     9    10    1
    38    10     5    1
    39    23    18   ar
    40    33    28    1
    41    41    35   ar
    42     2    11    1
    43    12    16    1
    44    15    17    1
@<TRIPOS>MOLECULE
*****
 41 44 0 0 0
SMALL
GASTEIGER

@<TRIPOS>ATOM
      1 C           0.5354    2.0921   30.9879 C.3     1  UNL1        0.1122
      2 N           1.3002    1.1831   30.0721 N.am    1  UNL1       -0.2870
      3 C           2.5760    1.6554   29.4404 C.2     1  UNL1        0.3040
      4 O           3.0870    3.0368   29.7244 O.2     1  UNL1       -0.2526
      5 N           3.3408    0.7464   28.5245 N.am    1  UNL1       -0.2641
      6 C           2.8299   -0.6350   28.2405 C.3     1  UNL1        0.0966
      7 C           3.5947   -1.5440   27.3247 C.3     1  UNL1        0.0413
      8 C           4.8705   -1.0717   26.6929 C.3     1  UNL1        0.0777
      9 C           5.3815    0.3097   26.9770 C.3     1  UNL1        0.0539
     10 C           4.6166    1.2187   27.8928 C.3     1  UNL1        0.0979
     11 H           0.9648    0.2765   29.8857 H       1  UNL1        0.1510
     12 N           5.6353   -1.9807   25.7771 N.am    1  UNL1       -0.2901
     13 C           5.2203   -2.1224   24.3427 C.2     1  UNL1        0.3058
     14 O           4.0403   -1.3551   23.8240 O.2     1  UNL1       -0.2524
     15 N           5.9851   -3.0314   23.4269 N.am    1  UNL1       -0.2485
     16 H           6.4098   -2.4843   26.1175 H       1  UNL1        0.1509
     17 H           6.7595   -3.5351   23.7673 H       1  UNL1        0.1583
     18 C           5.5700   -3.1731   21.9924 C.ar    1  UNL1        0.1664
     19 N           4.6779   -4.2420   21.4342 N.ar    1  UNL1       -0.2282
     20 C           4.5306   -4.0003   19.9612 C.ar    1  UNL1        0.0701
     21 C           3.7239   -4.8310   19.0076 C.3     1  UNL1        0.0528
     22 C           5.3317   -2.7819   19.6090 C.ar    1  UNL1        0.0803
     23 S           5.9741   -2.2708   20.8644 S.2     1  UNL1       -0.0488
     24 C           5.4668   -2.1805   18.2415 C.2     1  UNL1        0.1807
     25 C           4.3212   -1.4222   17.6393 C.3     1  UNL1        0.0779
     26 O           6.7474   -2.3372   17.4763 O.2     1  UNL1       -0.2908
     27 C           6.6573    0.7821   26.3452 C.3     1  UNL1        0.0754
     28 N           6.7267    0.9923   24.8616 N.3     1  UNL1       -0.2726
     29 C           7.8345    0.3674   24.0665 C.3     1  UNL1        0.0721
     30 C           7.9038    0.5777   22.5829 C.3     1  UNL1        0.0174
     31 C           6.8653    1.4128   21.8945 C.3     1  UNL1        0.0031
     32 C           5.7574    2.0377   22.6896 C.3     1  UNL1        0.0204
     33 C           5.6881    1.8275   24.1731 C.3     1  UNL1        0.0724
     34 C           4.7189    2.8728   22.0011 C.3     1  UNL1        0.0277
     35 C           3.7888    2.2435   21.0066 C.ar    1  UNL1       -0.0220
     36 C           3.1641    0.9122   21.3021 C.ar    1  UNL1       -0.0020
     37 C           2.2340    0.2829   20.3077 C.ar    1  UNL1        0.0293
     38 C           1.9288    0.9848   19.0177 C.ar    1  UNL1        0.1401
     39 F           0.9987    0.3555   18.0232 F       1  UNL1       -0.2042
     40 C           2.5535    2.3161   18.7222 C.ar    1  UNL1        0.0293
     41 C           3.4836    2.9455   19.7167 C.ar    1  UNL1       -0.0020
@<TRIPOS>BOND
     1     1     2    1
     2     2     3   am
     3     3     4    2
     4     3     5   am
     5     5     6    1
     6     6     7    1
     7     7     8    1
     8     8    12    1
     9    12    13   am
    10    13    14    2
    11    13    15   am
    12    15    18    1
    13    18    19   ar
    14    19    20   ar
    15    20    21    1
    16    20    22   ar
    17    22    24    1
    18    24    25    1
    19    24    26    2
    20    22    23   ar
    21     8     9    1
    22     9    27    1
    23    27    28    1
    24    28    29    1
    25    29    30    1
    26    30    31    1
    27    31    32    1
    28    32    34    1
    29    34    35    1
    30    35    36   ar
    31    36    37   ar
    32    37    38   ar
    33    38    39    1
    34    38    40   ar
    35    40    41   ar
    36    32    33    1
    37     9    10    1
    38    10     5    1
    39    23    18   ar
    40    33    28    1
    41    41    35   ar
    42     2    11    1
    43    12    16    1
    44    15    17    1
@<TRIPOS>MOLECULE
*****
 41 44 0 0 0
SMALL
GASTEIGER

@<TRIPOS>ATOM
      1 C          -5.6452    5.9718   18.3605 C.3     1  UNL1        0.1122
      2 N          -4.2838    5.3610   18.2070 N.am    1  UNL1       -0.2870
      3 C          -3.3782    5.2388   19.3964 C.2     1  UNL1        0.3040
      4 O          -3.8339    5.7275   20.7393 O.2     1  UNL1       -0.2526
      5 N          -2.0168    4.6280   19.2429 N.am    1  UNL1       -0.2641
      6 C          -1.5611    4.1394   17.9000 C.3     1  UNL1        0.0966
      7 C          -0.1997    3.5285   17.7466 C.3     1  UNL1        0.0413
      8 C           0.7060    3.4064   18.9360 C.3     1  UNL1        0.0777
      9 C           0.2502    3.8951   20.2789 C.3     1  UNL1        0.0539
     10 C          -1.1111    4.5059   20.4324 C.3     1  UNL1        0.0979
     11 H          -3.9848    5.0402   17.3256 H       1  UNL1        0.1510
     12 N           2.0673    2.7956   18.7825 N.am    1  UNL1       -0.2901
     13 C           2.2985    1.3686   19.1825 C.2     1  UNL1        0.3058
     14 O           1.1683    0.5522   19.7360 O.2     1  UNL1       -0.2524
     15 N           3.6599    0.7578   19.0290 N.am    1  UNL1       -0.2485
     16 H           2.8091    3.3314   18.4192 H       1  UNL1        0.1509
     17 H           4.4017    1.2935   18.6657 H       1  UNL1        0.1583
     18 C           3.8911   -0.6694   19.4291 C.ar    1  UNL1        0.1664
     19 N           3.3557   -1.8804   18.7243 N.ar    1  UNL1       -0.2282
     20 C           3.8320   -3.0954   19.4637 C.ar    1  UNL1        0.0701
     21 C           3.5313   -4.5204   19.1045 C.3     1  UNL1        0.0528
     22 C           4.6617   -2.6353   20.6256 C.ar    1  UNL1        0.0803
     23 S           4.6982   -1.1360   20.6042 S.2     1  UNL1       -0.0488
     24 C           5.3364   -3.5194   21.6322 C.2     1  UNL1        0.1807
     25 C           4.8937   -3.4982   23.0652 C.3     1  UNL1        0.0779
     26 O           6.4538   -4.4247   21.2057 O.2     1  UNL1       -0.2908
     27 C           1.1559    3.7730   21.4684 C.3     1  UNL1        0.0754
     28 N           0.6886    3.0481   22.6956 N.3     1  UNL1       -0.2726
     29 C           1.3066    1.7340   23.0715 C.3     1  UNL1        0.0721
     30 C           0.8392    1.0091   24.2988 C.3     1  UNL1        0.0174
     31 C          -0.2462    1.5983   25.1501 C.3     1  UNL1        0.0031
     32 C          -0.8643    2.9123   24.7742 C.3     1  UNL1        0.0204
     33 C          -0.3969    3.6372   23.5470 C.3     1  UNL1        0.0724
     34 C          -1.9497    3.5015   25.6255 C.3     1  UNL1        0.0277
     35 C          -3.3299    3.6779   25.0651 C.ar    1  UNL1       -0.0220
     36 C          -3.6258    3.2608   23.6550 C.ar    1  UNL1       -0.0020
     37 C          -5.0059    3.4372   23.0946 C.ar    1  UNL1        0.0293
     38 C          -6.0902    4.0307   23.9444 C.ar    1  UNL1        0.1401
     39 F          -7.4704    4.2071   23.3840 F       1  UNL1       -0.2042
     40 C          -5.7943    4.4478   25.3545 C.ar    1  UNL1        0.0293
     41 C          -4.4141    4.2714   25.9149 C.ar    1  UNL1       -0.0020
@<TRIPOS>BOND
     1     1     2    1
     2     2     3   am
     3     3     4    2
     4     3     5   am
     5     5     6    1
     6     6     7    1
     7     7     8    1
     8     8    12    1
     9    12    13   am
    10    13    14    2
    11    13    15   am
    12    15    18    1
    13    18    19   ar
    14    19    20   ar
    15    20    21    1
    16    20    22   ar
    17    22    24    1
    18    24    25    1
    19    24    26    2
    20    22    23   ar
    21     8     9    1
    22     9    27    1
    23    27    28    1
    24    28    29    1
    25    29    30    1
    26    30    31    1
    27    31    32    1
    28    32    34    1
    29    34    35    1
    30    35    36   ar
    31    36    37   ar
    32    37    38   ar
    33    38    39    1
    34    38    40   ar
    35    40    41   ar
    36    32    33    1
    37     9    10    1
    38    10     5    1
    39    23    18   ar
    40    33    28    1
    41    41    35   ar
    42     2    11    1
    43    12    16    1
    44    15    17    1
@<TRIPOS>MOLECULE
*****
 41 44 0 0 0
SMALL
GASTEIGER

@<TRIPOS>ATOM
      1 C           3.0280    2.5088   18.5755 C.3     1  UNL1        0.1122
      2 N           2.5436    2.0246   19.9100 N.am    1  UNL1       -0.2870
      3 C           1.8166    2.9611   20.8289 C.2     1  UNL1        0.3040
      4 O           1.5739    4.3818   20.4133 O.2     1  UNL1       -0.2526
      5 N           1.3322    2.4769   22.1634 N.am    1  UNL1       -0.2641
      6 C           1.5748    1.0563   22.5791 C.3     1  UNL1        0.0966
      7 C           1.0904    0.5721   23.9136 C.3     1  UNL1        0.0413
      8 C           0.3634    1.5086   24.8325 C.3     1  UNL1        0.0777
      9 C           0.1208    2.9292   24.4168 C.3     1  UNL1        0.0539
     10 C           0.6052    3.4134   23.0823 C.3     1  UNL1        0.0979
     11 H           2.7028    1.0922   20.1828 H       1  UNL1        0.1510
     12 N          -0.1209    1.0244   26.1670 N.am    1  UNL1       -0.2901
     13 C           0.8177    0.9847   27.3363 C.2     1  UNL1        0.3058
     14 O           2.2408    1.4292   27.1711 O.2     1  UNL1       -0.2524
     15 N           0.3333    0.5005   28.6708 N.am    1  UNL1       -0.2485
     16 H          -1.0550    0.7327   26.2754 H       1  UNL1        0.1509
     17 H          -0.6007    0.2088   28.7792 H       1  UNL1        0.1583
     18 C           1.2721    0.4608   29.8401 C.ar    1  UNL1        0.1664
     19 N           1.3003    1.4336   30.9816 N.ar    1  UNL1       -0.2282
     20 C           2.3930    1.0154   31.9201 C.ar    1  UNL1        0.0701
     21 C           2.7721    1.7070   33.1961 C.3     1  UNL1        0.0528
     22 C           3.0403   -0.2159   31.3588 C.ar    1  UNL1        0.0803
     23 S           2.3474   -0.5586   30.0733 S.2     1  UNL1       -0.0488
     24 C           4.1801   -0.9718   31.9748 C.2     1  UNL1        0.1807
     25 C           5.5943   -0.5696   31.6777 C.3     1  UNL1        0.0779
     26 O           3.9057   -2.1298   32.8878 O.2     1  UNL1       -0.2908
     27 C          -0.6063    3.8658   25.3357 C.3     1  UNL1        0.0754
     28 N          -2.1059    3.8753   25.3639 N.3     1  UNL1       -0.2726
     29 C          -2.8301    4.2782   26.6141 C.3     1  UNL1        0.0721
     30 C          -4.3299    4.2876   26.6422 C.3     1  UNL1        0.0174
     31 C          -5.1054    3.8942   25.4200 C.3     1  UNL1        0.0031
     32 C          -4.3812    3.4912   24.1698 C.3     1  UNL1        0.0204
     33 C          -2.8815    3.4818   24.1416 C.3     1  UNL1        0.0724
     34 C          -5.1567    3.0978   22.9476 C.3     1  UNL1        0.0277
     35 C          -4.9063    3.7955   21.6435 C.ar    1  UNL1       -0.0220
     36 C          -5.5851    5.1002   21.3486 C.ar    1  UNL1       -0.0020
     37 C          -5.3348    5.7980   20.0446 C.ar    1  UNL1        0.0293
     38 C          -4.4055    5.1911   19.0356 C.ar    1  UNL1        0.1401
     39 F          -4.1551    5.8889   17.7315 F       1  UNL1       -0.2042
     40 C          -3.7267    3.8864   19.3305 C.ar    1  UNL1        0.0293
     41 C          -3.9770    3.1887   20.6345 C.ar    1  UNL1       -0.0020
@<TRIPOS>BOND
     1     1     2    1
     2     2     3   am
     3     3     4    2
     4     3     5   am
     5     5     6    1
     6     6     7    1
     7     7     8    1
     8     8    12    1
     9    12    13   am
    10    13    14    2
    11    13    15   am
    12    15    18    1
    13    18    19   ar
    14    19    20   ar
    15    20    21    1
    16    20    22   ar
    17    22    24    1
    18    24    25    1
    19    24    26    2
    20    22    23   ar
    21     8     9    1
    22     9    27    1
    23    27    28    1
    24    28    29    1
    25    29    30    1
    26    30    31    1
    27    31    32    1
    28    32    34    1
    29    34    35    1
    30    35    36   ar
    31    36    37   ar
    32    37    38   ar
    33    38    39    1
    34    38    40   ar
    35    40    41   ar
    36    32    33    1
    37     9    10    1
    38    10     5    1
    39    23    18   ar
    40    33    28    1
    41    41    35   ar
    42     2    11    1
    43    12    16    1
    44    15    17    1
@<TRIPOS>MOLECULE
*****
 41 44 0 0 0
SMALL
GASTEIGER

@<TRIPOS>ATOM
      1 C           6.7879   -2.3154   17.9758 C.3     1  UNL1        0.1122
      2 N           6.4547   -2.5043   19.4261 N.am    1  UNL1       -0.2870
      3 C           7.5122   -2.9658   20.3846 C.2     1  UNL1        0.3040
      4 O           8.9028   -3.2384   19.8929 O.2     1  UNL1       -0.2526
      5 N           7.1790   -3.1546   21.8349 N.am    1  UNL1       -0.2641
      6 C           5.7883   -2.8820   22.3266 C.3     1  UNL1        0.0966
      7 C           5.4551   -3.0709   23.7769 C.3     1  UNL1        0.0413
      8 C           6.5126   -3.5324   24.7355 C.3     1  UNL1        0.0777
      9 C           7.9032   -3.8050   24.2437 C.3     1  UNL1        0.0539
     10 C           8.2364   -3.6161   22.7935 C.3     1  UNL1        0.0979
     11 H           5.5420   -2.3254   19.7488 H       1  UNL1        0.1510
     12 N           6.1794   -3.7212   26.1857 N.am    1  UNL1       -0.2901
     13 C           6.1834   -2.5443   27.1156 C.2     1  UNL1        0.3058
     14 O           6.5207   -1.1784   26.5953 O.2     1  UNL1       -0.2524
     15 N           5.8502   -2.7332   28.5659 N.am    1  UNL1       -0.2485
     16 H           5.9580   -4.6177   26.5273 H       1  UNL1        0.1509
     17 H           5.6289   -3.6296   28.9075 H       1  UNL1        0.1583
     18 C           5.8543   -1.5562   29.4958 C.ar    1  UNL1        0.1664
     19 N           7.0131   -0.6388   29.7519 N.ar    1  UNL1       -0.2282
     20 C           6.5752    0.3944   30.7473 C.ar    1  UNL1        0.0701
     21 C           7.4187    1.5105   31.2885 C.3     1  UNL1        0.0528
     22 C           5.1457    0.1156   31.1064 C.ar    1  UNL1        0.0803
     23 S           4.7002   -1.0899   30.3330 S.2     1  UNL1       -0.0488
     24 C           4.3088    0.9039   32.0698 C.2     1  UNL1        0.1807
     25 C           4.0553    0.3748   33.4503 C.3     1  UNL1        0.0779
     26 O           3.7254    2.2214   31.6527 O.2     1  UNL1       -0.2908
     27 C           8.9607   -4.2665   25.2023 C.3     1  UNL1        0.0754
     28 N           8.7509   -5.5154   26.0061 N.3     1  UNL1       -0.2726
     29 C           8.3293   -6.7837   25.3251 C.3     1  UNL1        0.0721
     30 C           8.1195   -8.0326   26.1290 C.3     1  UNL1        0.0174
     31 C           8.3313   -8.0132   27.6138 C.3     1  UNL1        0.0031
     32 C           8.7529   -6.7450   28.2948 C.3     1  UNL1        0.0204
     33 C           8.9627   -5.4961   27.4910 C.3     1  UNL1        0.0724
     34 C           8.9647   -6.7256   29.7796 C.3     1  UNL1        0.0277
     35 C           8.5184   -5.5417   30.5855 C.ar    1  UNL1       -0.0220
     36 C           9.4947   -4.4548   30.9253 C.ar    1  UNL1       -0.0020
     37 C           9.0485   -3.2710   31.7312 C.ar    1  UNL1        0.0293
     38 C           7.6261   -3.1741   32.1973 C.ar    1  UNL1        0.1401
     39 F           7.1798   -1.9902   33.0032 F       1  UNL1       -0.2042
     40 C           6.6498   -4.2611   31.8575 C.ar    1  UNL1        0.0293
     41 C           7.0960   -5.4449   31.0516 C.ar    1  UNL1       -0.0020
@<TRIPOS>BOND
     1     1     2    1
     2     2     3   am
     3     3     4    2
     4     3     5   am
     5     5     6    1
     6     6     7    1
     7     7     8    1
     8     8    12    1
     9    12    13   am
    10    13    14    2
    11    13    15   am
    12    15    18    1
    13    18    19   ar
    14    19    20   ar
    15    20    21    1
    16    20    22   ar
    17    22    24    1
    18    24    25    1
    19    24    26    2
    20    22    23   ar
    21     8     9    1
    22     9    27    1
    23    27    28    1
    24    28    29    1
    25    29    30    1
    26    30    31    1
    27    31    32    1
    28    32    34    1
    29    34    35    1
    30    35    36   ar
    31    36    37   ar
    32    37    38   ar
    33    38    39    1
    34    38    40   ar
    35    40    41   ar
    36    32    33    1
    37     9    10    1
    38    10     5    1
    39    23    18   ar
    40    33    28    1
    41    41    35   ar
    42     2    11    1
    43    12    16    1
    44    15    17    1
