@<TRIPOS>MOLECULE
*****
 25 26 0 0 0
SMALL
GASTEIGER

@<TRIPOS>ATOM
      1 O          -9.5835  -16.9414   22.8449 O.3     1  UNL1       -0.4740
      2 C          -9.1527  -17.8562   21.7369 C.ar    1  UNL1        0.1483
      3 C          -7.7619  -18.4181   21.7263 C.ar    1  UNL1        0.0415
      4 C          -7.3312  -19.3329   20.6183 C.ar    1  UNL1        0.0745
      5 C          -8.2911  -19.6858   19.5211 C.ar    1  UNL1        0.0047
      6 C          -9.6818  -19.1239   19.5318 C.ar    1  UNL1        0.0133
      7 C         -10.1126  -18.2091   20.6397 C.ar    1  UNL1        0.1023
      8 C          -5.9404  -19.8948   20.6076 C.3     1  UNL1        0.4187
      9 F          -4.5497  -20.4568   20.5969 F       1  UNL1       -0.1659
     10 F          -6.3489  -20.9250   21.6184 F       1  UNL1       -0.1659
     11 F          -5.5319  -18.8646   19.5968 F       1  UNL1       -0.1659
     12 C         -11.5034  -17.6472   20.6504 C.1     1  UNL1        0.1035
     13 N         -12.8941  -17.0853   20.6611 N.1     1  UNL1       -0.1907
     14 C          -9.3439  -17.3295   24.2739 C.3     1  UNL1        0.1895
     15 C          -8.3180  -16.5978   25.0879 C.ar    1  UNL1        0.0172
     16 C          -8.4597  -16.5207   26.5792 C.ar    1  UNL1       -0.0008
     17 C          -7.4339  -15.7891   27.3931 C.ar    1  UNL1       -0.0002
     18 C          -6.2665  -15.1347   26.7158 C.ar    1  UNL1       -0.0000
     19 C          -6.1249  -15.2119   25.2245 C.ar    1  UNL1       -0.0002
     20 C          -7.1506  -15.9434   24.4105 C.ar    1  UNL1       -0.0008
     21 C         -10.1301  -18.4491   24.8889 C.3     1  UNL1        0.0653
     22 C         -11.4089  -18.9058   24.2518 C.3     1  UNL1        0.0727
     23 C         -13.8606  -18.0605   24.0941 C.3     1  UNL1        0.0859
     24 N         -12.4064  -17.8968   23.7648 N.3     1  UNL1       -0.2962
     25 H         -12.1191  -16.9934   24.1413 H       1  UNL1        0.1233
@<TRIPOS>BOND
     1    23    24    1
     2    24    22    1
     3    22    21    1
     4    14    21    1
     5    14     1    1
     6     1     2    1
     7     2     3   ar
     8     3     4   ar
     9     4     8    1
    10     8     9    1
    11     8    10    1
    12     8    11    1
    13     4     5   ar
    14     5     6   ar
    15     6     7   ar
    16     7    12    1
    17    12    13    3
    18    14    15    1
    19    15    16   ar
    20    16    17   ar
    21    17    18   ar
    22    18    19   ar
    23    19    20   ar
    24     7     2   ar
    25    20    15   ar
    26    24    25    1
@<TRIPOS>MOLECULE
*****
 25 26 0 0 0
SMALL
GASTEIGER

@<TRIPOS>ATOM
      1 O          -7.9545  -16.9794   21.6255 O.3     1  UNL1       -0.4740
      2 C          -7.2231  -18.2295   21.2351 C.ar    1  UNL1        0.1483
      3 C          -5.7832  -18.4061   21.6163 C.ar    1  UNL1        0.0415
      4 C          -5.0519  -19.6562   21.2260 C.ar    1  UNL1        0.0745
      5 C          -5.7605  -20.7297   20.4543 C.ar    1  UNL1        0.0047
      6 C          -7.2004  -20.5531   20.0731 C.ar    1  UNL1        0.0133
      7 C          -7.9317  -19.3031   20.4635 C.ar    1  UNL1        0.1023
      8 C          -3.6119  -19.8328   21.6072 C.3     1  UNL1        0.4187
      9 F          -2.1720  -20.0095   21.9884 F       1  UNL1       -0.1659
     10 F          -3.3156  -20.3709   20.2388 F       1  UNL1       -0.1659
     11 F          -3.9081  -19.2948   22.9757 F       1  UNL1       -0.1659
     12 C          -9.3717  -19.1264   20.0822 C.1     1  UNL1        0.1035
     13 N         -10.8116  -18.9498   19.7009 N.1     1  UNL1       -0.1907
     14 C          -8.5824  -16.8709   22.9834 C.3     1  UNL1        0.1895
     15 C         -10.0213  -17.2480   23.1766 C.ar    1  UNL1        0.0172
     16 C         -10.3886  -18.3342   24.1437 C.ar    1  UNL1       -0.0008
     17 C         -11.8275  -18.7114   24.3369 C.ar    1  UNL1       -0.0002
     18 C         -12.8991  -18.0022   23.5631 C.ar    1  UNL1       -0.0000
     19 C         -12.5318  -16.9160   22.5961 C.ar    1  UNL1       -0.0002
     20 C         -11.0929  -16.5388   22.4029 C.ar    1  UNL1       -0.0008
     21 C          -7.7714  -16.3853   24.1480 C.3     1  UNL1        0.0653
     22 C          -7.3040  -14.9607   24.1945 C.3     1  UNL1        0.0727
     23 C          -5.7777  -15.5257   26.2198 C.3     1  UNL1        0.0859
     24 N          -6.2798  -14.5401   25.2066 N.3     1  UNL1       -0.2962
     25 H          -5.4663  -14.2144   24.6845 H       1  UNL1        0.1233
@<TRIPOS>BOND
     1    23    24    1
     2    24    22    1
     3    22    21    1
     4    14    21    1
     5    14     1    1
     6     1     2    1
     7     2     3   ar
     8     3     4   ar
     9     4     8    1
    10     8     9    1
    11     8    10    1
    12     8    11    1
    13     4     5   ar
    14     5     6   ar
    15     6     7   ar
    16     7    12    1
    17    12    13    3
    18    14    15    1
    19    15    16   ar
    20    16    17   ar
    21    17    18   ar
    22    18    19   ar
    23    19    20   ar
    24     7     2   ar
    25    20    15   ar
    26    24    25    1
@<TRIPOS>MOLECULE
*****
 25 26 0 0 0
SMALL
GASTEIGER

@<TRIPOS>ATOM
      1 O          -7.9757  -18.1956   22.9121 O.3     1  UNL1       -0.4740
      2 C          -6.8681  -18.6768   22.0222 C.ar    1  UNL1        0.1483
      3 C          -5.4416  -18.5618   22.4713 C.ar    1  UNL1        0.0415
      4 C          -4.3341  -19.0430   21.5814 C.ar    1  UNL1        0.0745
      5 C          -4.6532  -19.6390   20.2424 C.ar    1  UNL1        0.0047
      6 C          -6.0797  -19.7539   19.7933 C.ar    1  UNL1        0.0133
      7 C          -7.1872  -19.2728   20.6832 C.ar    1  UNL1        0.1023
      8 C          -2.9075  -18.9280   22.0305 C.3     1  UNL1        0.4187
      9 F          -1.4809  -18.8131   22.4796 F       1  UNL1       -0.1659
     10 F          -3.2844  -17.7946   22.9378 F       1  UNL1       -0.1659
     11 F          -2.5305  -20.0614   21.1232 F       1  UNL1       -0.1659
     12 C          -8.6138  -19.3877   20.2341 C.1     1  UNL1        0.1035
     13 N         -10.0404  -19.5027   19.7851 N.1     1  UNL1       -0.1907
     14 C          -8.1051  -16.7344   23.2252 C.3     1  UNL1        0.1895
     15 C          -7.6116  -16.2020   24.5379 C.ar    1  UNL1        0.0172
     16 C          -8.5295  -16.1616   25.7236 C.ar    1  UNL1       -0.0008
     17 C          -8.0361  -15.6292   27.0362 C.ar    1  UNL1       -0.0002
     18 C          -6.6248  -15.1372   27.1631 C.ar    1  UNL1       -0.0000
     19 C          -5.7069  -15.1776   25.9774 C.ar    1  UNL1       -0.0002
     20 C          -6.2004  -15.7100   24.6648 C.ar    1  UNL1       -0.0008
     21 C          -8.7281  -15.8056   22.2256 C.3     1  UNL1        0.0653
     22 C         -10.0308  -16.1672   21.5759 C.3     1  UNL1        0.0727
     23 C         -12.2965  -17.4201   21.7924 C.3     1  UNL1        0.0859
     24 N         -10.8297  -17.3272   22.0919 N.3     1  UNL1       -0.2962
     25 H         -10.3985  -18.1719   21.7166 H       1  UNL1        0.1233
@<TRIPOS>BOND
     1    23    24    1
     2    24    22    1
     3    22    21    1
     4    14    21    1
     5    14     1    1
     6     1     2    1
     7     2     3   ar
     8     3     4   ar
     9     4     8    1
    10     8     9    1
    11     8    10    1
    12     8    11    1
    13     4     5   ar
    14     5     6   ar
    15     6     7   ar
    16     7    12    1
    17    12    13    3
    18    14    15    1
    19    15    16   ar
    20    16    17   ar
    21    17    18   ar
    22    18    19   ar
    23    19    20   ar
    24     7     2   ar
    25    20    15   ar
    26    24    25    1
@<TRIPOS>MOLECULE
*****
 25 26 0 0 0
SMALL
GASTEIGER

@<TRIPOS>ATOM
      1 O          -7.2867  -17.4080   21.2940 O.3     1  UNL1       -0.4740
      2 C          -7.9234  -16.8148   22.5159 C.ar    1  UNL1        0.1483
      3 C          -7.0708  -16.3894   23.6744 C.ar    1  UNL1        0.0415
      4 C          -7.7075  -15.7963   24.8962 C.ar    1  UNL1        0.0745
      5 C          -9.1967  -15.6285   24.9594 C.ar    1  UNL1        0.0047
      6 C         -10.0493  -16.0538   23.8009 C.ar    1  UNL1        0.0133
      7 C          -9.4126  -16.6470   22.5792 C.ar    1  UNL1        0.1023
      8 C          -6.8549  -15.3709   26.0547 C.3     1  UNL1        0.4187
      9 F          -6.0024  -14.9455   27.2133 F       1  UNL1       -0.1659
     10 F          -8.0774  -15.2734   26.9185 F       1  UNL1       -0.1659
     11 F          -5.6325  -15.4684   25.1910 F       1  UNL1       -0.1659
     12 C         -10.2652  -17.0724   21.4206 C.1     1  UNL1        0.1035
     13 N         -11.1177  -17.4978   20.2621 N.1     1  UNL1       -0.1907
     14 C          -6.7594  -18.8118   21.3296 C.3     1  UNL1        0.1895
     15 C          -5.2924  -19.0667   21.1479 C.ar    1  UNL1        0.0172
     16 C          -4.7112  -19.1515   19.7676 C.ar    1  UNL1       -0.0008
     17 C          -3.2443  -19.4064   19.5859 C.ar    1  UNL1       -0.0002
     18 C          -2.3585  -19.5765   20.7844 C.ar    1  UNL1       -0.0000
     19 C          -2.9397  -19.4917   22.1646 C.ar    1  UNL1       -0.0002
     20 C          -4.4066  -19.2368   22.3464 C.ar    1  UNL1       -0.0008
     21 C          -7.6990  -19.9606   21.5469 C.3     1  UNL1        0.0653
     22 C          -8.1737  -20.2899   22.9312 C.3     1  UNL1        0.0727
     23 C         -10.0481  -19.8095   24.6649 C.3     1  UNL1        0.0859
     24 N          -9.6301  -20.1755   23.2716 N.3     1  UNL1       -0.2962
     25 H         -10.0229  -19.4679   22.6509 H       1  UNL1        0.1233
@<TRIPOS>BOND
     1    23    24    1
     2    24    22    1
     3    22    21    1
     4    14    21    1
     5    14     1    1
     6     1     2    1
     7     2     3   ar
     8     3     4   ar
     9     4     8    1
    10     8     9    1
    11     8    10    1
    12     8    11    1
    13     4     5   ar
    14     5     6   ar
    15     6     7   ar
    16     7    12    1
    17    12    13    3
    18    14    15    1
    19    15    16   ar
    20    16    17   ar
    21    17    18   ar
    22    18    19   ar
    23    19    20   ar
    24     7     2   ar
    25    20    15   ar
    26    24    25    1
@<TRIPOS>MOLECULE
*****
 25 26 0 0 0
SMALL
GASTEIGER

@<TRIPOS>ATOM
      1 O          -7.9016  -19.1660   22.6520 O.3     1  UNL1       -0.4740
      2 C          -6.6064  -19.0817   21.9001 C.ar    1  UNL1        0.1483
      3 C          -5.3364  -18.7547   22.6281 C.ar    1  UNL1        0.0415
      4 C          -4.0412  -18.6704   21.8761 C.ar    1  UNL1        0.0745
      5 C          -4.0161  -18.9132   20.3961 C.ar    1  UNL1        0.0047
      6 C          -5.2861  -19.2402   19.6681 C.ar    1  UNL1        0.0133
      7 C          -6.5812  -19.3245   20.4200 C.ar    1  UNL1        0.1023
      8 C          -2.7711  -18.3434   22.6042 C.3     1  UNL1        0.4187
      9 F          -1.5011  -18.0164   23.3322 F       1  UNL1       -0.1659
     10 F          -3.5631  -17.9965   23.8299 F       1  UNL1       -0.1659
     11 F          -1.9792  -18.6903   21.3785 F       1  UNL1       -0.1659
     12 C          -7.8513  -19.6515   19.6920 C.1     1  UNL1        0.1035
     13 N          -9.1213  -19.9785   18.9640 N.1     1  UNL1       -0.1907
     14 C          -8.6752  -17.9173   22.9556 C.3     1  UNL1        0.1895
     15 C         -10.1041  -17.7947   22.5161 C.ar    1  UNL1        0.0172
     16 C         -10.4234  -17.3881   21.1080 C.ar    1  UNL1       -0.0008
     17 C         -11.8523  -17.2656   20.6684 C.ar    1  UNL1       -0.0002
     18 C         -12.9619  -17.5497   21.6369 C.ar    1  UNL1       -0.0000
     19 C         -12.6426  -17.9563   23.0450 C.ar    1  UNL1       -0.0002
     20 C         -11.2137  -18.0788   23.4846 C.ar    1  UNL1       -0.0008
     21 C          -8.0199  -16.7911   23.6987 C.3     1  UNL1        0.0653
     22 C          -7.7134  -15.5040   22.9918 C.3     1  UNL1        0.0727
     23 C          -5.4357  -15.3393   24.2308 C.3     1  UNL1        0.0859
     24 N          -6.3722  -14.8548   23.1639 N.3     1  UNL1       -0.2962
     25 H          -5.8815  -14.9524   22.2750 H       1  UNL1        0.1233
@<TRIPOS>BOND
     1    23    24    1
     2    24    22    1
     3    22    21    1
     4    14    21    1
     5    14     1    1
     6     1     2    1
     7     2     3   ar
     8     3     4   ar
     9     4     8    1
    10     8     9    1
    11     8    10    1
    12     8    11    1
    13     4     5   ar
    14     5     6   ar
    15     6     7   ar
    16     7    12    1
    17    12    13    3
    18    14    15    1
    19    15    16   ar
    20    16    17   ar
    21    17    18   ar
    22    18    19   ar
    23    19    20   ar
    24     7     2   ar
    25    20    15   ar
    26    24    25    1
@<TRIPOS>MOLECULE
*****
 25 26 0 0 0
SMALL
GASTEIGER

@<TRIPOS>ATOM
      1 O          -7.5119  -17.0510   21.5035 O.3     1  UNL1       -0.4740
      2 C          -7.1311  -18.4162   21.0120 C.ar    1  UNL1        0.1483
      3 C          -7.9938  -19.1188   20.0061 C.ar    1  UNL1        0.0415
      4 C          -7.6130  -20.4839   19.5147 C.ar    1  UNL1        0.0745
      5 C          -6.3694  -21.1463   20.0291 C.ar    1  UNL1        0.0047
      6 C          -5.5066  -20.4436   21.0350 C.ar    1  UNL1        0.0133
      7 C          -5.8874  -19.0785   21.5264 C.ar    1  UNL1        0.1023
      8 C          -8.4758  -21.1867   18.5088 C.3     1  UNL1        0.4187
      9 F          -9.3386  -21.8893   17.5029 F       1  UNL1       -0.1659
     10 F          -9.5007  -20.0979   18.6274 F       1  UNL1       -0.1659
     11 F          -7.4509  -22.2754   18.3902 F       1  UNL1       -0.1659
     12 C          -5.0246  -18.3758   22.5323 C.1     1  UNL1        0.1035
     13 N          -4.1619  -17.6731   23.5382 N.1     1  UNL1       -0.1907
     14 C          -8.2840  -16.9022   22.7808 C.3     1  UNL1        0.1895
     15 C          -9.7238  -17.3191   22.8398 C.ar    1  UNL1        0.0172
     16 C         -10.8029  -16.3418   22.4787 C.ar    1  UNL1       -0.0008
     17 C         -12.2426  -16.7586   22.5376 C.ar    1  UNL1       -0.0002
     18 C         -12.6032  -18.1526   22.9577 C.ar    1  UNL1       -0.0000
     19 C         -11.5241  -19.1299   23.3188 C.ar    1  UNL1       -0.0002
     20 C         -10.0844  -18.7131   23.2599 C.ar    1  UNL1       -0.0008
     21 C          -7.6165  -16.3366   23.9992 C.3     1  UNL1        0.0653
     22 C          -6.7668  -15.1057   23.8855 C.3     1  UNL1        0.0727
     23 C          -5.4346  -15.3838   26.0987 C.3     1  UNL1        0.0859
     24 N          -5.4774  -15.0115   24.6462 N.3     1  UNL1       -0.2962
     25 H          -4.8085  -15.6150   24.1678 H       1  UNL1        0.1233
@<TRIPOS>BOND
     1    23    24    1
     2    24    22    1
     3    22    21    1
     4    14    21    1
     5    14     1    1
     6     1     2    1
     7     2     3   ar
     8     3     4   ar
     9     4     8    1
    10     8     9    1
    11     8    10    1
    12     8    11    1
    13     4     5   ar
    14     5     6   ar
    15     6     7   ar
    16     7    12    1
    17    12    13    3
    18    14    15    1
    19    15    16   ar
    20    16    17   ar
    21    17    18   ar
    22    18    19   ar
    23    19    20   ar
    24     7     2   ar
    25    20    15   ar
    26    24    25    1
@<TRIPOS>MOLECULE
*****
 25 26 0 0 0
SMALL
GASTEIGER

@<TRIPOS>ATOM
      1 O          -6.9126  -17.2791   21.7990 O.3     1  UNL1       -0.4740
      2 C          -7.6888  -16.7044   22.9468 C.ar    1  UNL1        0.1483
      3 C          -6.9820  -16.3215   24.2132 C.ar    1  UNL1        0.0415
      4 C          -7.7581  -15.7468   25.3609 C.ar    1  UNL1        0.0745
      5 C          -9.2410  -15.5550   25.2423 C.ar    1  UNL1        0.0047
      6 C          -9.9479  -15.9379   23.9759 C.ar    1  UNL1        0.0133
      7 C          -9.1717  -16.5126   22.8282 C.ar    1  UNL1        0.1023
      8 C          -7.0513  -15.3638   26.6274 C.3     1  UNL1        0.4187
      9 F          -6.3444  -14.9809   27.8937 F       1  UNL1       -0.1659
     10 F          -5.7418  -15.7710   26.0196 F       1  UNL1       -0.1659
     11 F          -8.3607  -14.9567   27.2352 F       1  UNL1       -0.1659
     12 C          -9.8785  -16.8956   21.5617 C.1     1  UNL1        0.1035
     13 N         -10.5854  -17.2785   20.2954 N.1     1  UNL1       -0.1907
     14 C          -6.2467  -18.6159   21.9385 C.3     1  UNL1        0.1895
     15 C          -4.7497  -18.7107   21.9489 C.ar    1  UNL1        0.0172
     16 C          -3.9490  -17.8330   22.8647 C.ar    1  UNL1       -0.0008
     17 C          -2.4521  -17.9277   22.8751 C.ar    1  UNL1       -0.0002
     18 C          -1.7558  -18.9001   21.9698 C.ar    1  UNL1       -0.0000
     19 C          -2.5565  -19.7778   21.0541 C.ar    1  UNL1       -0.0002
     20 C          -4.0534  -19.6830   21.0436 C.ar    1  UNL1       -0.0008
     21 C          -7.0778  -19.8579   22.0676 C.3     1  UNL1        0.0653
     22 C          -8.2486  -20.0751   21.1555 C.3     1  UNL1        0.0727
     23 C          -8.9440  -20.1033   18.6524 C.3     1  UNL1        0.0859
     24 N          -8.2834  -19.4141   19.8094 N.3     1  UNL1       -0.2962
     25 H          -8.7611  -18.5213   19.9320 H       1  UNL1        0.1233
@<TRIPOS>BOND
     1    23    24    1
     2    24    22    1
     3    22    21    1
     4    14    21    1
     5    14     1    1
     6     1     2    1
     7     2     3   ar
     8     3     4   ar
     9     4     8    1
    10     8     9    1
    11     8    10    1
    12     8    11    1
    13     4     5   ar
    14     5     6   ar
    15     6     7   ar
    16     7    12    1
    17    12    13    3
    18    14    15    1
    19    15    16   ar
    20    16    17   ar
    21    17    18   ar
    22    18    19   ar
    23    19    20   ar
    24     7     2   ar
    25    20    15   ar
    26    24    25    1
@<TRIPOS>MOLECULE
*****
 25 26 0 0 0
SMALL
GASTEIGER

@<TRIPOS>ATOM
      1 O          -7.2851  -17.4119   21.3465 O.3     1  UNL1       -0.4740
      2 C          -7.9788  -17.2294   22.6639 C.ar    1  UNL1        0.1483
      3 C          -9.2555  -17.9639   22.9474 C.ar    1  UNL1        0.0415
      4 C          -9.9492  -17.7813   24.2648 C.ar    1  UNL1        0.0745
      5 C          -9.3661  -16.8642   25.2987 C.ar    1  UNL1        0.0047
      6 C          -8.0894  -16.1296   25.0152 C.ar    1  UNL1        0.0133
      7 C          -7.3958  -16.3122   23.6978 C.ar    1  UNL1        0.1023
      8 C         -11.2259  -18.5159   24.5484 C.3     1  UNL1        0.4187
      9 F         -12.5026  -19.2505   24.8319 F       1  UNL1       -0.1659
     10 F         -10.4707  -19.5057   25.3849 F       1  UNL1       -0.1659
     11 F         -11.9812  -17.5261   23.7118 F       1  UNL1       -0.1659
     12 C          -6.1190  -15.5777   23.4142 C.1     1  UNL1        0.1035
     13 N          -4.8423  -14.8432   23.1307 N.1     1  UNL1       -0.1907
     14 C          -6.7638  -18.7626   20.9543 C.3     1  UNL1        0.1895
     15 C          -5.3143  -19.0937   21.1531 C.ar    1  UNL1        0.0172
     16 C          -4.5736  -19.8756   20.1091 C.ar    1  UNL1       -0.0008
     17 C          -3.1242  -20.2067   20.3078 C.ar    1  UNL1       -0.0002
     18 C          -2.4155  -19.7559   21.5506 C.ar    1  UNL1       -0.0000
     19 C          -3.1562  -18.9740   22.5946 C.ar    1  UNL1       -0.0002
     20 C          -4.6056  -18.6429   22.3958 C.ar    1  UNL1       -0.0008
     21 C          -7.6918  -19.7821   20.3633 C.3     1  UNL1        0.0653
     22 C          -8.5916  -19.4059   19.2237 C.3     1  UNL1        0.0727
     23 C         -10.8087  -19.7191   20.5415 C.3     1  UNL1        0.0859
     24 N         -10.0414  -19.7898   19.2545 N.3     1  UNL1       -0.2962
     25 H         -10.5213  -19.1809   18.5917 H       1  UNL1        0.1233
@<TRIPOS>BOND
     1    23    24    1
     2    24    22    1
     3    22    21    1
     4    14    21    1
     5    14     1    1
     6     1     2    1
     7     2     3   ar
     8     3     4   ar
     9     4     8    1
    10     8     9    1
    11     8    10    1
    12     8    11    1
    13     4     5   ar
    14     5     6   ar
    15     6     7   ar
    16     7    12    1
    17    12    13    3
    18    14    15    1
    19    15    16   ar
    20    16    17   ar
    21    17    18   ar
    22    18    19   ar
    23    19    20   ar
    24     7     2   ar
    25    20    15   ar
    26    24    25    1
@<TRIPOS>MOLECULE
*****
 25 26 0 0 0
SMALL
GASTEIGER

@<TRIPOS>ATOM
      1 O          -7.2227  -16.1286   22.4457 O.3     1  UNL1       -0.4740
      2 C          -8.1547  -17.3034   22.4098 C.ar    1  UNL1        0.1483
      3 C          -9.5240  -17.1931   23.0121 C.ar    1  UNL1        0.0415
      4 C         -10.4559  -18.3679   22.9761 C.ar    1  UNL1        0.0745
      5 C         -10.0185  -19.6530   22.3379 C.ar    1  UNL1        0.0047
      6 C          -8.6492  -19.7632   21.7356 C.ar    1  UNL1        0.0133
      7 C          -7.7173  -18.5884   21.7716 C.ar    1  UNL1        0.1023
      8 C         -11.8253  -18.2577   23.5784 C.3     1  UNL1        0.4187
      9 F         -13.1946  -18.1475   24.1807 F       1  UNL1       -0.1659
     10 F         -11.2543  -18.5606   24.9320 F       1  UNL1       -0.1659
     11 F         -12.3963  -17.9549   22.2248 F       1  UNL1       -0.1659
     12 C          -6.3479  -18.6987   21.1693 C.1     1  UNL1        0.1035
     13 N          -4.9785  -18.8089   20.5670 N.1     1  UNL1       -0.1907
     14 C          -6.3125  -15.9290   23.6212 C.3     1  UNL1        0.1895
     15 C          -6.8896  -15.6624   24.9799 C.ar    1  UNL1        0.0172
     16 C          -5.9954  -15.6440   26.1841 C.ar    1  UNL1       -0.0008
     17 C          -6.5724  -15.3774   27.5427 C.ar    1  UNL1       -0.0002
     18 C          -8.0436  -15.1293   27.6971 C.ar    1  UNL1       -0.0000
     19 C          -8.9378  -15.1477   26.4929 C.ar    1  UNL1       -0.0002
     20 C          -8.3608  -15.4143   25.1343 C.ar    1  UNL1       -0.0008
     21 C          -4.8252  -15.9960   23.4380 C.3     1  UNL1        0.0653
     22 C          -4.1143  -17.3121   23.5498 C.3     1  UNL1        0.0727
     23 C          -2.2568  -16.4630   21.9439 C.3     1  UNL1        0.0859
     24 N          -2.8930  -17.5776   22.7203 N.3     1  UNL1       -0.2962
     25 H          -2.1800  -17.9397   23.3535 H       1  UNL1        0.1233
@<TRIPOS>BOND
     1    23    24    1
     2    24    22    1
     3    22    21    1
     4    14    21    1
     5    14     1    1
     6     1     2    1
     7     2     3   ar
     8     3     4   ar
     9     4     8    1
    10     8     9    1
    11     8    10    1
    12     8    11    1
    13     4     5   ar
    14     5     6   ar
    15     6     7   ar
    16     7    12    1
    17    12    13    3
    18    14    15    1
    19    15    16   ar
    20    16    17   ar
    21    17    18   ar
    22    18    19   ar
    23    19    20   ar
    24     7     2   ar
    25    20    15   ar
    26    24    25    1
