@<TRIPOS>MOLECULE
*****
 15 16 0 0 0
SMALL
GASTEIGER

@<TRIPOS>ATOM
      1 C         -11.1708  -17.2353   22.4012 C.ar    1  UNL1        0.0519
      2 C         -11.2957  -18.3395   23.4088 C.ar    1  UNL1        0.0087
      3 C         -10.2624  -18.1152   24.4727 C.ar    1  UNL1        0.0071
      4 C          -9.4989  -16.8724   24.1226 C.ar    1  UNL1        0.0310
      5 S         -10.0603  -16.3286   22.8424 S.2     1  UNL1       -0.0852
      6 C          -8.3717  -16.2778   24.9139 C.ar    1  UNL1        0.0252
      7 C          -8.3950  -16.3361   26.4126 C.ar    1  UNL1        0.0036
      8 C          -7.2679  -15.7415   27.2038 C.ar    1  UNL1        0.0207
      9 C          -6.1175  -15.0887   26.4963 C.ar    1  UNL1        0.0989
     10 N          -6.0942  -15.0305   24.9977 N.ar    1  UNL1       -0.2423
     11 C          -7.2213  -15.6251   24.2065 C.ar    1  UNL1        0.0993
     12 O         -12.5847  -15.7571   19.0004 O.2     1  UNL1       -0.4087
     13 N         -11.7464  -15.9251   20.2327 N.2     1  UNL1       -0.0842
     14 C         -12.0093  -17.0673   21.1688 C.2     1  UNL1        0.1463
     15 H         -12.4205  -15.0436   18.4157 H       1  UNL1        0.3278
@<TRIPOS>BOND
     1    12    13    1
     2    13    14    2
     3    14     1    1
     4     1     2   ar
     5     2     3   ar
     6     3     4   ar
     7     4     6    1
     8     6     7   ar
     9     7     8   ar
    10     8     9   ar
    11     9    10   ar
    12    10    11   ar
    13     4     5   ar
    14     5     1   ar
    15    11     6   ar
    16    12    15    1
@<TRIPOS>MOLECULE
*****
 15 16 0 0 0
SMALL
GASTEIGER

@<TRIPOS>ATOM
      1 C          -3.5777  -19.5815   21.0105 C.ar    1  UNL1        0.0519
      2 C          -4.3415  -20.4863   20.0895 C.ar    1  UNL1        0.0087
      3 C          -5.7936  -20.4019   20.4560 C.ar    1  UNL1        0.0071
      4 C          -5.9272  -19.4451   21.6035 C.ar    1  UNL1        0.0310
      5 S          -4.5577  -18.9381   21.9461 S.2     1  UNL1       -0.0852
      6 C          -7.2059  -19.0624   22.2881 C.ar    1  UNL1        0.0252
      7 C          -8.1806  -20.1239   22.7042 C.ar    1  UNL1        0.0036
      8 C          -9.4592  -19.7412   23.3887 C.ar    1  UNL1        0.0207
      9 C          -9.7631  -18.2971   23.6572 C.ar    1  UNL1        0.0989
     10 N          -8.7885  -17.2356   23.2411 N.ar    1  UNL1       -0.2423
     11 C          -7.5098  -17.6183   22.5565 C.ar    1  UNL1        0.0993
     12 O           0.0699  -18.6902   19.7257 O.2     1  UNL1       -0.4087
     13 N          -1.4135  -18.9124   19.7383 N.2     1  UNL1       -0.0842
     14 C          -2.0943  -19.3593   20.9979 C.2     1  UNL1        0.1463
     15 H           0.4951  -18.4111   18.9388 H       1  UNL1        0.3278
@<TRIPOS>BOND
     1    12    13    1
     2    13    14    2
     3    14     1    1
     4     1     2   ar
     5     2     3   ar
     6     3     4   ar
     7     4     6    1
     8     6     7   ar
     9     7     8   ar
    10     8     9   ar
    11     9    10   ar
    12    10    11   ar
    13     4     5   ar
    14     5     1   ar
    15    11     6   ar
    16    12    15    1
@<TRIPOS>MOLECULE
*****
 15 16 0 0 0
SMALL
GASTEIGER

@<TRIPOS>ATOM
      1 C          -7.5271  -19.2930   20.2393 C.ar    1  UNL1        0.0519
      2 C          -8.4800  -19.7351   19.1685 C.ar    1  UNL1        0.0087
      3 C          -9.8759  -19.5560   19.6875 C.ar    1  UNL1        0.0071
      4 C          -9.7857  -19.0032   21.0790 C.ar    1  UNL1        0.0310
      5 S          -8.3341  -18.8407   21.4201 S.2     1  UNL1       -0.0852
      6 C         -10.9439  -18.6713   21.9727 C.ar    1  UNL1        0.0252
      7 C         -12.1708  -18.0248   21.4012 C.ar    1  UNL1        0.0036
      8 C         -13.3289  -17.6929   22.2948 C.ar    1  UNL1        0.0207
      9 C         -13.2601  -18.0075   23.7599 C.ar    1  UNL1        0.0989
     10 N         -12.0331  -18.6540   24.3313 N.ar    1  UNL1       -0.2423
     11 C         -10.8750  -18.9859   23.4377 C.ar    1  UNL1        0.0993
     12 O          -3.7171  -18.4890   21.0062 O.2     1  UNL1       -0.4087
     13 N          -5.2141  -18.4804   21.0996 N.2     1  UNL1       -0.0842
     14 C          -6.0300  -19.3016   20.1458 C.2     1  UNL1        0.1463
     15 H          -3.2075  -17.9760   21.6021 H       1  UNL1        0.3278
@<TRIPOS>BOND
     1    12    13    1
     2    13    14    2
     3    14     1    1
     4     1     2   ar
     5     2     3   ar
     6     3     4   ar
     7     4     6    1
     8     6     7   ar
     9     7     8   ar
    10     8     9   ar
    11     9    10   ar
    12    10    11   ar
    13     4     5   ar
    14     5     1   ar
    15    11     6   ar
    16    12    15    1
@<TRIPOS>MOLECULE
*****
 15 16 0 0 0
SMALL
GASTEIGER

@<TRIPOS>ATOM
      1 C          -3.8359  -19.1532   20.5303 C.ar    1  UNL1        0.0519
      2 C          -4.0177  -19.3509   22.0061 C.ar    1  UNL1        0.0087
      3 C          -5.4878  -19.4658   22.2807 C.ar    1  UNL1        0.0071
      4 C          -6.2147  -19.3391   20.9747 C.ar    1  UNL1        0.0310
      5 S          -5.1937  -19.1459   19.8929 S.2     1  UNL1       -0.0852
      6 C          -7.7015  -19.3956   20.7840 C.ar    1  UNL1        0.0252
      7 C          -8.2733  -19.6746   19.4257 C.ar    1  UNL1        0.0036
      8 C          -9.7601  -19.7311   19.2350 C.ar    1  UNL1        0.0207
      9 C         -10.6749  -19.5087   20.4027 C.ar    1  UNL1        0.0989
     10 N         -10.1031  -19.2297   21.7611 N.ar    1  UNL1       -0.2423
     11 C          -8.6164  -19.1732   21.9517 C.ar    1  UNL1        0.0993
     12 O          -1.0252  -17.7010   18.1343 O.2     1  UNL1       -0.4087
     13 N          -2.3348  -17.8630   18.8474 N.2     1  UNL1       -0.0842
     14 C          -2.5262  -18.9913   19.8171 C.2     1  UNL1        0.1463
     15 H          -0.9057  -16.9962   17.5286 H       1  UNL1        0.3278
@<TRIPOS>BOND
     1    12    13    1
     2    13    14    2
     3    14     1    1
     4     1     2   ar
     5     2     3   ar
     6     3     4   ar
     7     4     6    1
     8     6     7   ar
     9     7     8   ar
    10     8     9   ar
    11     9    10   ar
    12    10    11   ar
    13     4     5   ar
    14     5     1   ar
    15    11     6   ar
    16    12    15    1
@<TRIPOS>MOLECULE
*****
 15 16 0 0 0
SMALL
GASTEIGER

@<TRIPOS>ATOM
      1 C         -15.4569   -8.3973   18.6156 C.ar    1  UNL1        0.0519
      2 C         -16.0600   -7.2024   19.2927 C.ar    1  UNL1        0.0087
      3 C         -14.9780   -6.1805   19.4796 C.ar    1  UNL1        0.0071
      4 C         -13.7063   -6.7438   18.9180 C.ar    1  UNL1        0.0310
      5 S         -14.0023   -8.1139   18.3840 S.2     1  UNL1       -0.0852
      6 C         -12.3726   -6.0575   18.8946 C.ar    1  UNL1        0.0252
      7 C         -11.1128   -6.8687   18.8254 C.ar    1  UNL1        0.0036
      8 C          -9.7793   -6.1824   18.8020 C.ar    1  UNL1        0.0207
      9 C          -9.7055   -4.6849   18.8477 C.ar    1  UNL1        0.0989
     10 N         -10.9653   -3.8737   18.9169 N.ar    1  UNL1       -0.2423
     11 C         -12.2989   -4.5600   18.9403 C.ar    1  UNL1        0.0993
     12 O         -17.3740  -11.8585   18.9233 O.2     1  UNL1       -0.4087
     13 N         -16.6496  -10.6010   19.3022 N.2     1  UNL1       -0.0842
     14 C         -16.1814   -9.6549   18.2365 C.2     1  UNL1        0.1463
     15 H         -17.6665  -12.4495   19.5891 H       1  UNL1        0.3278
@<TRIPOS>BOND
     1    12    13    1
     2    13    14    2
     3    14     1    1
     4     1     2   ar
     5     2     3   ar
     6     3     4   ar
     7     4     6    1
     8     6     7   ar
     9     7     8   ar
    10     8     9   ar
    11     9    10   ar
    12    10    11   ar
    13     4     5   ar
    14     5     1   ar
    15    11     6   ar
    16    12    15    1
@<TRIPOS>MOLECULE
*****
 15 16 0 0 0
SMALL
GASTEIGER

@<TRIPOS>ATOM
      1 C         -13.4368   -4.8079   19.3645 C.ar    1  UNL1        0.0519
      2 C         -14.8029   -4.2644   19.6622 C.ar    1  UNL1        0.0087
      3 C         -15.7793   -5.4009   19.5918 C.ar    1  UNL1        0.0071
      4 C         -15.0168   -6.6467   19.2507 C.ar    1  UNL1        0.0310
      5 S         -13.5690   -6.2803   19.1102 S.2     1  UNL1       -0.0852
      6 C         -15.5997   -8.0183   19.0800 C.ar    1  UNL1        0.0252
      7 C         -16.9499   -8.3358   19.6510 C.ar    1  UNL1        0.0036
      8 C         -17.5327   -9.7073   19.4803 C.ar    1  UNL1        0.0207
      9 C         -16.7654  -10.7613   18.7386 C.ar    1  UNL1        0.0989
     10 N         -15.4152  -10.4439   18.1676 N.ar    1  UNL1       -0.2423
     11 C         -14.8323   -9.0724   18.3383 C.ar    1  UNL1        0.0993
     12 O          -9.5680   -3.9363   19.2137 O.2     1  UNL1       -0.4087
     13 N         -10.8425   -4.7264   19.2506 N.2     1  UNL1       -0.0842
     14 C         -12.1623   -4.0178   19.3276 C.2     1  UNL1        0.1463
     15 H          -8.7436   -4.3790   19.1656 H       1  UNL1        0.3278
@<TRIPOS>BOND
     1    12    13    1
     2    13    14    2
     3    14     1    1
     4     1     2   ar
     5     2     3   ar
     6     3     4   ar
     7     4     6    1
     8     6     7   ar
     9     7     8   ar
    10     8     9   ar
    11     9    10   ar
    12    10    11   ar
    13     4     5   ar
    14     5     1   ar
    15    11     6   ar
    16    12    15    1
@<TRIPOS>MOLECULE
*****
 15 16 0 0 0
SMALL
GASTEIGER

@<TRIPOS>ATOM
      1 C          -9.5677  -18.3882   22.6723 C.ar    1  UNL1        0.0519
      2 C          -8.9336  -17.1076   23.1283 C.ar    1  UNL1        0.0087
      3 C          -7.4626  -17.1931   22.8474 C.ar    1  UNL1        0.0071
      4 C          -7.1877  -18.5265   22.2178 C.ar    1  UNL1        0.0310
      5 S          -8.4887  -19.2651   22.1096 S.2     1  UNL1       -0.0852
      6 C          -5.8470  -19.0325   21.7742 C.ar    1  UNL1        0.0252
      7 C          -5.7358  -19.8826   20.5434 C.ar    1  UNL1        0.0036
      8 C          -4.3952  -20.3885   20.0999 C.ar    1  UNL1        0.0207
      9 C          -3.1657  -20.0443   20.8873 C.ar    1  UNL1        0.0989
     10 N          -3.2769  -19.1942   22.1181 N.ar    1  UNL1       -0.2423
     11 C          -4.6175  -18.6883   22.5616 C.ar    1  UNL1        0.0993
     12 O         -13.4319  -18.1395   23.5420 O.2     1  UNL1       -0.4087
     13 N         -11.9746  -17.7962   23.4512 N.2     1  UNL1       -0.0842
     14 C         -11.0251  -18.7316   22.7631 C.2     1  UNL1        0.1463
     15 H         -14.0249  -17.5551   23.9719 H       1  UNL1        0.3278
@<TRIPOS>BOND
     1    12    13    1
     2    13    14    2
     3    14     1    1
     4     1     2   ar
     5     2     3   ar
     6     3     4   ar
     7     4     6    1
     8     6     7   ar
     9     7     8   ar
    10     8     9   ar
    11     9    10   ar
    12    10    11   ar
    13     4     5   ar
    14     5     1   ar
    15    11     6   ar
    16    12    15    1
@<TRIPOS>MOLECULE
*****
 15 16 0 0 0
SMALL
GASTEIGER

@<TRIPOS>ATOM
      1 C          -5.9890  -18.7282   21.9742 C.ar    1  UNL1        0.0519
      2 C          -5.9515  -17.6050   22.9677 C.ar    1  UNL1        0.0087
      3 C          -7.3167  -16.9856   23.0188 C.ar    1  UNL1        0.0071
      4 C          -8.1979  -17.7260   22.0568 C.ar    1  UNL1        0.0310
      5 S          -7.3774  -18.8030   21.4113 S.2     1  UNL1       -0.0852
      6 C          -9.6456  -17.4397   21.7877 C.ar    1  UNL1        0.0252
      7 C         -10.4203  -16.5535   22.7175 C.ar    1  UNL1        0.0036
      8 C         -11.8678  -16.2672   22.4483 C.ar    1  UNL1        0.0207
      9 C         -12.5408  -16.8671   21.2495 C.ar    1  UNL1        0.0989
     10 N         -11.7661  -17.7533   20.3198 N.ar    1  UNL1       -0.2423
     11 C         -10.3185  -18.0396   20.5889 C.ar    1  UNL1        0.0993
     12 O          -2.3007  -20.1643   21.6855 O.2     1  UNL1       -0.4087
     13 N          -3.4498  -19.2726   22.0517 N.2     1  UNL1       -0.0842
     14 C          -4.8399  -19.6201   21.6080 C.2     1  UNL1        0.1463
     15 H          -1.4323  -19.9472   21.9627 H       1  UNL1        0.3278
@<TRIPOS>BOND
     1    12    13    1
     2    13    14    2
     3    14     1    1
     4     1     2   ar
     5     2     3   ar
     6     3     4   ar
     7     4     6    1
     8     6     7   ar
     9     7     8   ar
    10     8     9   ar
    11     9    10   ar
    12    10    11   ar
    13     4     5   ar
    14     5     1   ar
    15    11     6   ar
    16    12    15    1
@<TRIPOS>MOLECULE
*****
 15 16 0 0 0
SMALL
GASTEIGER

@<TRIPOS>ATOM
      1 C          -6.7417  -18.8205   21.7679 C.ar    1  UNL1        0.0519
      2 C          -6.5474  -17.5985   22.6159 C.ar    1  UNL1        0.0087
      3 C          -7.8874  -17.1868   23.1495 C.ar    1  UNL1        0.0071
      4 C          -8.9099  -18.1544   22.6314 C.ar    1  UNL1        0.0310
      5 S          -8.2018  -19.1640   21.7774 S.2     1  UNL1       -0.0852
      6 C         -10.3821  -18.1185   22.9170 C.ar    1  UNL1        0.0252
      7 C         -11.3367  -17.6202   21.8728 C.ar    1  UNL1        0.0036
      8 C         -12.8088  -17.5844   22.1585 C.ar    1  UNL1        0.0207
      9 C         -13.3262  -18.0468   23.4883 C.ar    1  UNL1        0.0989
     10 N         -12.3716  -18.5451   24.5324 N.ar    1  UNL1       -0.2423
     11 C         -10.8995  -18.5810   24.2468 C.ar    1  UNL1        0.0993
     12 O          -3.6794  -19.5873   19.3629 O.2     1  UNL1       -0.4087
     13 N          -4.7561  -18.8402   20.0923 N.2     1  UNL1       -0.0842
     14 C          -5.6649  -19.5677   21.0384 C.2     1  UNL1        0.1463
     15 H          -3.1118  -19.1328   18.7719 H       1  UNL1        0.3278
@<TRIPOS>BOND
     1    12    13    1
     2    13    14    2
     3    14     1    1
     4     1     2   ar
     5     2     3   ar
     6     3     4   ar
     7     4     6    1
     8     6     7   ar
     9     7     8   ar
    10     8     9   ar
    11     9    10   ar
    12    10    11   ar
    13     4     5   ar
    14     5     1   ar
    15    11     6   ar
    16    12    15    1
