@<TRIPOS>MOLECULE
*****
 16 17 0 0 0
SMALL
GASTEIGER

@<TRIPOS>ATOM
      1 C          -7.2262  -15.7497   24.0736 C.ar    1  UNL1        0.1415
      2 C          -8.3706  -15.5150   25.0144 C.ar    1  UNL1        0.0370
      3 C          -8.1150  -15.3738   26.4857 C.ar    1  UNL1        0.0031
      4 C          -6.7151  -15.4672   27.0162 C.ar    1  UNL1        0.0003
      5 C          -5.5707  -15.7018   26.0753 C.ar    1  UNL1        0.0062
      6 C          -5.8263  -15.8431   24.6040 C.ar    1  UNL1        0.0711
      7 C          -4.6818  -16.0777   23.6631 C.ar    1  UNL1        0.1799
      8 C          -3.9366  -17.3673   23.4855 C.ar    1  UNL1        0.0643
      9 C          -2.8759  -17.1505   22.4473 C.ar    1  UNL1        0.1438
     10 N          -2.9655  -15.7269   21.9832 N.ar    1  UNL1       -0.0753
     11 O          -4.0816  -15.0639   22.7347 O.2     1  UNL1       -0.3532
     12 O          -7.4818  -15.8909   22.6023 O.3     1  UNL1       -0.4754
     13 C          -8.2654  -17.0611   22.0861 C.3     1  UNL1        0.2054
     14 C          -8.1902  -18.3835   22.7903 C.3     1  UNL1        0.0473
     15 C          -9.4891  -20.3527   23.8788 C.3     1  UNL1        0.0001
     16 C          -9.3732  -18.8916   23.5601 C.3     1  UNL1        0.0038
@<TRIPOS>BOND
     1    15    16    1
     2    16    14    1
     3    14    13    1
     4    13    12    1
     5    12     1    1
     6     1     2   ar
     7     2     3   ar
     8     3     4   ar
     9     4     5   ar
    10     5     6   ar
    11     6     7    1
    12     7     8   ar
    13     8     9   ar
    14     9    10   ar
    15    10    11   ar
    16     6     1   ar
    17    11     7   ar
@<TRIPOS>MOLECULE
*****
 16 17 0 0 0
SMALL
GASTEIGER

@<TRIPOS>ATOM
      1 C          -9.4684  -18.2508   21.5381 C.ar    1  UNL1        0.1415
      2 C         -10.3314  -18.8326   20.4580 C.ar    1  UNL1        0.0370
      3 C         -11.2829  -17.9527   19.7027 C.ar    1  UNL1        0.0031
      4 C         -11.3714  -16.4910   20.0275 C.ar    1  UNL1        0.0003
      5 C         -10.5084  -15.9092   21.1076 C.ar    1  UNL1        0.0062
      6 C          -9.5569  -16.7891   21.8629 C.ar    1  UNL1        0.0711
      7 C          -8.6939  -16.2072   22.9431 C.ar    1  UNL1        0.1799
      8 C          -9.0559  -16.0907   24.3940 C.ar    1  UNL1        0.0643
      9 C          -7.9031  -15.4512   25.1096 C.ar    1  UNL1        0.1438
     10 N          -6.8285  -15.1723   24.1008 N.ar    1  UNL1       -0.0753
     11 O          -7.3173  -15.6395   22.7618 O.2     1  UNL1       -0.3532
     12 O          -8.5169  -19.1306   22.2934 O.3     1  UNL1       -0.4754
     13 C          -9.0005  -19.9179   23.4750 C.3     1  UNL1        0.2054
     14 C         -10.4719  -20.0895   23.7105 C.3     1  UNL1        0.0473
     15 C         -12.3620  -18.3108   23.8280 C.3     1  UNL1        0.0001
     16 C         -11.2340  -19.0527   24.4815 C.3     1  UNL1        0.0038
@<TRIPOS>BOND
     1    15    16    1
     2    16    14    1
     3    14    13    1
     4    13    12    1
     5    12     1    1
     6     1     2   ar
     7     2     3   ar
     8     3     4   ar
     9     4     5   ar
    10     5     6   ar
    11     6     7    1
    12     7     8   ar
    13     8     9   ar
    14     9    10   ar
    15    10    11   ar
    16     6     1   ar
    17    11     7   ar
@<TRIPOS>MOLECULE
*****
 16 17 0 0 0
SMALL
GASTEIGER

@<TRIPOS>ATOM
      1 C          -8.6121  -17.6042   23.4944 C.ar    1  UNL1        0.1415
      2 C          -9.8201  -17.3692   24.3519 C.ar    1  UNL1        0.0370
      3 C         -10.9700  -18.3313   24.3076 C.ar    1  UNL1        0.0031
      4 C         -10.9120  -19.5284   23.4057 C.ar    1  UNL1        0.0003
      5 C          -9.7040  -19.7634   22.5481 C.ar    1  UNL1        0.0062
      6 C          -8.5541  -18.8013   22.5924 C.ar    1  UNL1        0.0711
      7 C          -7.3460  -19.0364   21.7348 C.ar    1  UNL1        0.1799
      8 C          -6.3625  -20.1588   21.8857 C.ar    1  UNL1        0.0643
      9 C          -5.3181  -20.0064   20.8199 C.ar    1  UNL1        0.1438
     10 N          -5.6562  -18.7898   20.0102 N.ar    1  UNL1       -0.0753
     11 O          -6.9095  -18.1903   20.5757 O.2     1  UNL1       -0.3532
     12 O          -7.4621  -16.6421   23.5387 O.3     1  UNL1       -0.4754
     13 C          -7.4901  -15.4832   24.4905 C.3     1  UNL1        0.2054
     14 C          -6.4364  -15.3577   25.5507 C.3     1  UNL1        0.0473
     15 C          -8.2096  -15.8784   27.3768 C.3     1  UNL1        0.0001
     16 C          -6.7895  -15.5888   26.9902 C.3     1  UNL1        0.0038
@<TRIPOS>BOND
     1    15    16    1
     2    16    14    1
     3    14    13    1
     4    13    12    1
     5    12     1    1
     6     1     2   ar
     7     2     3   ar
     8     3     4   ar
     9     4     5   ar
    10     5     6   ar
    11     6     7    1
    12     7     8   ar
    13     8     9   ar
    14     9    10   ar
    15    10    11   ar
    16     6     1   ar
    17    11     7   ar
@<TRIPOS>MOLECULE
*****
 16 17 0 0 0
SMALL
GASTEIGER

@<TRIPOS>ATOM
      1 C          -9.9982  -17.4308   23.8692 C.ar    1  UNL1        0.1415
      2 C          -9.7269  -18.3509   25.0222 C.ar    1  UNL1        0.0370
      3 C         -10.0247  -19.8159   24.8989 C.ar    1  UNL1        0.0031
      4 C         -10.5938  -20.3607   23.6225 C.ar    1  UNL1        0.0003
      5 C         -10.8651  -19.4405   22.4694 C.ar    1  UNL1        0.0062
      6 C         -10.5673  -17.9756   22.5927 C.ar    1  UNL1        0.0711
      7 C         -10.8387  -17.0554   21.4396 C.ar    1  UNL1        0.1799
      8 C         -12.1432  -16.9135   20.7129 C.ar    1  UNL1        0.0643
      9 C         -11.9639  -15.8860   19.6349 C.ar    1  UNL1        0.1438
     10 N         -10.5485  -15.3928   19.6953 N.ar    1  UNL1       -0.0753
     11 O          -9.8532  -16.1156   20.8107 O.2     1  UNL1       -0.3532
     12 O          -9.7005  -15.9658   23.9925 O.3     1  UNL1       -0.4754
     13 C          -8.8363  -15.4678   25.1128 C.3     1  UNL1        0.2054
     14 C          -7.3987  -15.1254   24.8558 C.3     1  UNL1        0.0473
     15 C          -6.7354  -15.4637   27.3449 C.3     1  UNL1        0.0001
     16 C          -6.3586  -15.4280   25.8935 C.3     1  UNL1        0.0038
@<TRIPOS>BOND
     1    15    16    1
     2    16    14    1
     3    14    13    1
     4    13    12    1
     5    12     1    1
     6     1     2   ar
     7     2     3   ar
     8     3     4   ar
     9     4     5   ar
    10     5     6   ar
    11     6     7    1
    12     7     8   ar
    13     8     9   ar
    14     9    10   ar
    15    10    11   ar
    16     6     1   ar
    17    11     7   ar
@<TRIPOS>MOLECULE
*****
 16 17 0 0 0
SMALL
GASTEIGER

@<TRIPOS>ATOM
      1 C          -9.6361  -17.4673   25.3522 C.ar    1  UNL1        0.1415
      2 C          -9.0344  -17.4814   26.7261 C.ar    1  UNL1        0.0370
      3 C          -8.0827  -16.3981   27.1393 C.ar    1  UNL1        0.0031
      4 C          -7.7329  -15.3005   26.1786 C.ar    1  UNL1        0.0003
      5 C          -8.3347  -15.2864   24.8047 C.ar    1  UNL1        0.0062
      6 C          -9.2863  -16.3698   24.3915 C.ar    1  UNL1        0.0711
      7 C          -9.8881  -16.3556   23.0176 C.ar    1  UNL1        0.1799
      8 C         -11.3523  -16.2972   22.6969 C.ar    1  UNL1        0.0643
      9 C         -11.5004  -16.3028   21.2042 C.ar    1  UNL1        0.1438
     10 N         -10.1278  -16.3647   20.6024 N.ar    1  UNL1       -0.0753
     11 O          -9.1314  -16.3973   21.7231 O.2     1  UNL1       -0.3532
     12 O         -10.5878  -18.5507   24.9391 O.3     1  UNL1       -0.4754
     13 C         -10.0977  -19.9596   24.7821 C.3     1  UNL1        0.2054
     14 C          -9.2261  -20.3251   23.6173 C.3     1  UNL1        0.0473
     15 C         -10.9488  -19.9703   21.7052 C.3     1  UNL1        0.0001
     16 C          -9.5574  -19.8191   22.2446 C.3     1  UNL1        0.0038
@<TRIPOS>BOND
     1    15    16    1
     2    16    14    1
     3    14    13    1
     4    13    12    1
     5    12     1    1
     6     1     2   ar
     7     2     3   ar
     8     3     4   ar
     9     4     5   ar
    10     5     6   ar
    11     6     7    1
    12     7     8   ar
    13     8     9   ar
    14     9    10   ar
    15    10    11   ar
    16     6     1   ar
    17    11     7   ar
@<TRIPOS>MOLECULE
*****
 16 17 0 0 0
SMALL
GASTEIGER

@<TRIPOS>ATOM
      1 C          -6.3165  -15.8945   24.6849 C.ar    1  UNL1        0.1415
      2 C          -5.6280  -15.4106   25.9266 C.ar    1  UNL1        0.0370
      3 C          -6.4229  -15.1483   27.1713 C.ar    1  UNL1        0.0031
      4 C          -7.9064  -15.3698   27.1743 C.ar    1  UNL1        0.0003
      5 C          -8.5950  -15.8537   25.9327 C.ar    1  UNL1        0.0062
      6 C          -7.8001  -16.1160   24.6880 C.ar    1  UNL1        0.0711
      7 C          -8.4887  -16.5999   23.4463 C.ar    1  UNL1        0.1799
      8 C          -9.2282  -17.8963   23.2965 C.ar    1  UNL1        0.0643
      9 C          -9.7552  -17.9699   21.8941 C.ar    1  UNL1        0.1438
     10 N          -9.3415  -16.7190   21.1771 N.ar    1  UNL1       -0.0753
     11 O          -8.5588  -15.8723   22.1365 O.2     1  UNL1       -0.3532
     12 O          -5.5216  -16.1568   23.4402 O.3     1  UNL1       -0.4754
     13 C          -4.4351  -17.1909   23.4483 C.3     1  UNL1        0.2054
     14 C          -4.5804  -18.4378   22.6273 C.3     1  UNL1        0.0473
     15 C          -6.3986  -20.1884   22.0111 C.3     1  UNL1        0.0001
     16 C          -5.9012  -18.7734   22.0003 C.3     1  UNL1        0.0038
@<TRIPOS>BOND
     1    15    16    1
     2    16    14    1
     3    14    13    1
     4    13    12    1
     5    12     1    1
     6     1     2   ar
     7     2     3   ar
     8     3     4   ar
     9     4     5   ar
    10     5     6   ar
    11     6     7    1
    12     7     8   ar
    13     8     9   ar
    14     9    10   ar
    15    10    11   ar
    16     6     1   ar
    17    11     7   ar
@<TRIPOS>MOLECULE
*****
 16 17 0 0 0
SMALL
GASTEIGER

@<TRIPOS>ATOM
      1 C          -9.3975  -18.8632   22.4468 C.ar    1  UNL1        0.1415
      2 C         -10.8171  -19.0707   22.0090 C.ar    1  UNL1        0.0370
      3 C         -11.1134  -19.4940   20.6008 C.ar    1  UNL1        0.0031
      4 C          -9.9901  -19.7099   19.6304 C.ar    1  UNL1        0.0003
      5 C          -8.5706  -19.5024   20.0683 C.ar    1  UNL1        0.0062
      6 C          -8.2743  -19.0790   21.4765 C.ar    1  UNL1        0.0711
      7 C          -6.8546  -18.8715   21.9143 C.ar    1  UNL1        0.1799
      8 C          -5.7733  -19.9111   21.9216 C.ar    1  UNL1        0.0643
      9 C          -4.5175  -19.2701   22.4335 C.ar    1  UNL1        0.1438
     10 N          -4.8227  -17.8343   22.7425 N.ar    1  UNL1       -0.0753
     11 O          -6.2671  -17.5880   22.4216 O.2     1  UNL1       -0.3532
     12 O          -9.1012  -18.4399   23.8550 O.3     1  UNL1       -0.4754
     13 C          -9.5518  -17.0956   24.3446 C.3     1  UNL1        0.2054
     14 C          -8.5514  -15.9957   24.5430 C.3     1  UNL1        0.0473
     15 C          -8.4560  -16.4680   27.0960 C.3     1  UNL1        0.0001
     16 C          -8.1716  -15.5685   25.9298 C.3     1  UNL1        0.0038
@<TRIPOS>BOND
     1    15    16    1
     2    16    14    1
     3    14    13    1
     4    13    12    1
     5    12     1    1
     6     1     2   ar
     7     2     3   ar
     8     3     4   ar
     9     4     5   ar
    10     5     6   ar
    11     6     7    1
    12     7     8   ar
    13     8     9   ar
    14     9    10   ar
    15    10    11   ar
    16     6     1   ar
    17    11     7   ar
@<TRIPOS>MOLECULE
*****
 16 17 0 0 0
SMALL
GASTEIGER

@<TRIPOS>ATOM
      1 C         -10.5520  -18.1949   24.0190 C.ar    1  UNL1        0.1415
      2 C          -9.8781  -18.5180   25.3196 C.ar    1  UNL1        0.0370
      3 C          -9.0029  -17.4974   25.9846 C.ar    1  UNL1        0.0031
      4 C          -8.8015  -16.1537   25.3491 C.ar    1  UNL1        0.0003
      5 C          -9.4753  -15.8306   24.0486 C.ar    1  UNL1        0.0062
      6 C         -10.3506  -16.8512   23.3835 C.ar    1  UNL1        0.0711
      7 C         -11.0245  -16.5281   22.0829 C.ar    1  UNL1        0.1799
      8 C         -10.3770  -15.8922   20.8886 C.ar    1  UNL1        0.0643
      9 C         -11.4165  -15.7552   19.8159 C.ar    1  UNL1        0.1438
     10 N         -12.7064  -16.3066   20.3472 N.ar    1  UNL1       -0.0753
     11 O         -12.4641  -16.7842   21.7483 O.2     1  UNL1       -0.3532
     12 O         -11.4272  -19.2155   23.3540 O.3     1  UNL1       -0.4754
     13 C         -10.8424  -20.1665   22.3522 C.3     1  UNL1        0.2054
     14 C         -11.0444  -19.9282   20.8851 C.3     1  UNL1        0.0473
     15 C          -8.5656  -19.1819   20.6649 C.3     1  UNL1        0.0001
     16 C          -9.9032  -19.4456   20.0395 C.3     1  UNL1        0.0038
@<TRIPOS>BOND
     1    15    16    1
     2    16    14    1
     3    14    13    1
     4    13    12    1
     5    12     1    1
     6     1     2   ar
     7     2     3   ar
     8     3     4   ar
     9     4     5   ar
    10     5     6   ar
    11     6     7    1
    12     7     8   ar
    13     8     9   ar
    14     9    10   ar
    15    10    11   ar
    16     6     1   ar
    17    11     7   ar
@<TRIPOS>MOLECULE
*****
 16 17 0 0 0
SMALL
GASTEIGER

@<TRIPOS>ATOM
      1 C          -8.9366  -17.4039   23.6298 C.ar    1  UNL1        0.1415
      2 C          -9.3550  -16.4309   24.6919 C.ar    1  UNL1        0.0370
      3 C          -8.3964  -15.3785   25.1646 C.ar    1  UNL1        0.0031
      4 C          -7.0194  -15.2989   24.5750 C.ar    1  UNL1        0.0003
      5 C          -6.6011  -16.2719   23.5128 C.ar    1  UNL1        0.0062
      6 C          -7.5597  -17.3244   23.0402 C.ar    1  UNL1        0.0711
      7 C          -7.1412  -18.2974   21.9780 C.ar    1  UNL1        0.1799
      8 C          -6.5874  -19.6719   22.2101 C.ar    1  UNL1        0.0643
      9 C          -6.3071  -20.2907   20.8728 C.ar    1  UNL1        0.1438
     10 N          -6.6877  -19.2986   19.8140 N.ar    1  UNL1       -0.0753
     11 O          -7.2033  -18.0667   20.4971 O.2     1  UNL1       -0.3532
     12 O          -9.8952  -18.4564   23.1572 O.3     1  UNL1       -0.4754
     13 C         -11.0533  -18.8586   24.0214 C.3     1  UNL1        0.2054
     14 C         -12.4104  -18.2670   23.7799 C.3     1  UNL1        0.0473
     15 C         -12.3820  -16.0256   22.4663 C.3     1  UNL1        0.0001
     16 C         -12.6790  -17.4948   22.5222 C.3     1  UNL1        0.0038
@<TRIPOS>BOND
     1    15    16    1
     2    16    14    1
     3    14    13    1
     4    13    12    1
     5    12     1    1
     6     1     2   ar
     7     2     3   ar
     8     3     4   ar
     9     4     5   ar
    10     5     6   ar
    11     6     7    1
    12     7     8   ar
    13     8     9   ar
    14     9    10   ar
    15    10    11   ar
    16     6     1   ar
    17    11     7   ar
