@<TRIPOS>MOLECULE
*****
 34 37 0 0 0
SMALL
GASTEIGER

@<TRIPOS>ATOM
      1 O           1.8925   -0.4934   27.9302 O.2     1  UNL1       -0.2522
      2 C           1.5779    0.8610   28.4929 C.2     1  UNL1        0.3088
      3 N           2.2090    1.3036   29.7797 N.am    1  UNL1       -0.2521
      4 N           0.6322    1.7729   27.7688 N.am    1  UNL1       -0.2633
      5 C           0.0012    1.3303   26.4820 C.3     1  UNL1        0.0993
      6 C          -0.9444    2.2421   25.7579 C.3     1  UNL1        0.0436
      7 C          -1.2590    3.5965   26.3206 C.2     1  UNL1       -0.0408
      8 C          -2.2047    4.5084   25.5965 C.2     1  UNL1       -0.0083
      9 C          -0.6279    4.0391   27.6074 C.3     1  UNL1        0.0436
     10 C           0.3177    3.1273   28.3315 C.3     1  UNL1        0.0993
     11 H           2.0025    2.1925   30.1490 H       1  UNL1        0.1579
     12 C           3.1546    0.3918   30.5038 C.ar    1  UNL1        0.1571
     13 C           4.6358    0.5825   30.3633 C.ar    1  UNL1        0.0380
     14 C           5.5814   -0.3294   31.0874 C.ar    1  UNL1        0.0254
     15 C           5.0458   -1.4319   31.9521 C.ar    1  UNL1        0.1223
     16 N           3.5647   -1.6226   32.0926 N.ar    1  UNL1       -0.1452
     17 N           2.6191   -0.7108   31.3685 N.ar    1  UNL1       -0.1327
     18 C          -2.8357    4.0658   24.3097 C.ar    1  UNL1        0.0024
     19 C          -4.2207    3.4898   24.3127 C.ar    1  UNL1        0.0002
     20 C          -4.8518    3.0472   23.0260 C.ar    1  UNL1        0.0031
     21 C          -4.0978    3.1806   21.7360 C.ar    1  UNL1        0.0376
     22 C          -2.7129    3.7566   21.7330 C.ar    1  UNL1        0.1472
     23 C          -2.0818    4.1992   23.0198 C.ar    1  UNL1        0.0375
     24 O          -1.9589    3.8901   20.4431 O.3     1  UNL1       -0.4361
     25 C          -0.9308    2.8650   20.0658 C.ar    1  UNL1        0.2297
     26 C          -0.1671    3.0059   18.7825 C.ar    1  UNL1        0.0581
     27 C           0.8610    1.9809   18.4052 C.ar    1  UNL1        0.0102
     28 C           1.1253    0.8150   19.3112 C.ar    1  UNL1        0.0907
     29 C           0.3616    0.6742   20.5945 C.ar    1  UNL1        0.1059
     30 N          -0.6664    1.6992   20.9718 N.ar    1  UNL1       -0.2099
     31 C           2.1535   -0.2100   18.9339 C.3     1  UNL1        0.4200
     32 F           3.1815   -1.2351   18.5566 F       1  UNL1       -0.1658
     33 F           1.6706   -1.1012   20.0396 F       1  UNL1       -0.1658
     34 F           2.6363    0.6811   17.8281 F       1  UNL1       -0.1658
@<TRIPOS>BOND
     1     1     2    2
     2     2     3   am
     3     3    12    1
     4    12    13   ar
     5    13    14   ar
     6    14    15   ar
     7    15    16   ar
     8    16    17   ar
     9     2     4   am
    10     4     5    1
    11     5     6    1
    12     6     7    1
    13     7     8    2
    14     8    18    1
    15    18    19   ar
    16    19    20   ar
    17    20    21   ar
    18    21    22   ar
    19    22    24    1
    20    24    25    1
    21    25    26   ar
    22    26    27   ar
    23    27    28   ar
    24    28    31    1
    25    31    32    1
    26    31    33    1
    27    31    34    1
    28    28    29   ar
    29    29    30   ar
    30    22    23   ar
    31     7     9    1
    32     9    10    1
    33    17    12   ar
    34    10     4    1
    35    23    18   ar
    36    30    25   ar
    37     3    11    1
@<TRIPOS>MOLECULE
*****
 34 37 0 0 0
SMALL
GASTEIGER

@<TRIPOS>ATOM
      1 O          -7.7193    5.0398   21.7538 O.2     1  UNL1       -0.2522
      2 C          -6.9713    4.6107   22.9812 C.2     1  UNL1        0.3088
      3 N          -7.6856    4.5045   24.2959 N.am    1  UNL1       -0.2521
      4 N          -5.5091    4.2878   22.8938 N.am    1  UNL1       -0.2633
      5 C          -4.7948    4.3940   21.5791 C.3     1  UNL1        0.0993
      6 C          -3.3326    4.0711   21.4917 C.3     1  UNL1        0.0436
      7 C          -2.5847    3.6420   22.7191 C.2     1  UNL1       -0.0408
      8 C          -1.1224    3.3190   22.6317 C.2     1  UNL1       -0.0083
      9 C          -3.2989    3.5358   24.0338 C.3     1  UNL1        0.0436
     10 C          -4.7611    3.8587   24.1212 C.3     1  UNL1        0.0993
     11 H          -7.1947    4.2229   25.1015 H       1  UNL1        0.1579
     12 C          -9.1479    4.8275   24.3833 C.ar    1  UNL1        0.1571
     13 C         -10.1435    3.7345   24.6366 C.ar    1  UNL1        0.0380
     14 C         -11.6056    4.0575   24.7240 C.ar    1  UNL1        0.0254
     15 C         -12.0722    5.4734   24.5581 C.ar    1  UNL1        0.1223
     16 N         -11.0766    6.5663   24.3048 N.ar    1  UNL1       -0.1452
     17 N          -9.6144    6.2434   24.2174 N.ar    1  UNL1       -0.1327
     18 C          -0.4082    3.4252   21.3170 C.ar    1  UNL1        0.0024
     19 C           0.1269    4.7496   20.8590 C.ar    1  UNL1        0.0002
     20 C           0.8412    4.8557   19.5442 C.ar    1  UNL1        0.0031
     21 C           1.0203    3.6376   18.6874 C.ar    1  UNL1        0.0376
     22 C           0.4852    2.3132   19.1455 C.ar    1  UNL1        0.1472
     23 C          -0.2291    2.2071   20.4603 C.ar    1  UNL1        0.0375
     24 O           0.6643    1.0951   18.2888 O.3     1  UNL1       -0.4361
     25 C           1.7621    0.1191   18.5929 C.ar    1  UNL1        0.2297
     26 C           1.6844   -0.7382   19.8213 C.ar    1  UNL1        0.0581
     27 C           2.7821   -1.7142   20.1254 C.ar    1  UNL1        0.0102
     28 C           3.9574   -1.8329   19.2011 C.ar    1  UNL1        0.0907
     29 C           4.0351   -0.9756   17.9727 C.ar    1  UNL1        0.1059
     30 N           2.9374    0.0004   17.6686 N.ar    1  UNL1       -0.2099
     31 C           5.0552   -2.8089   19.5052 C.3     1  UNL1        0.4200
     32 F           6.1529   -3.7848   19.8094 F       1  UNL1       -0.1658
     33 F           5.0354   -2.3830   20.9433 F       1  UNL1       -0.1658
     34 F           5.0750   -3.2348   18.0671 F       1  UNL1       -0.1658
@<TRIPOS>BOND
     1     1     2    2
     2     2     3   am
     3     3    12    1
     4    12    13   ar
     5    13    14   ar
     6    14    15   ar
     7    15    16   ar
     8    16    17   ar
     9     2     4   am
    10     4     5    1
    11     5     6    1
    12     6     7    1
    13     7     8    2
    14     8    18    1
    15    18    19   ar
    16    19    20   ar
    17    20    21   ar
    18    21    22   ar
    19    22    24    1
    20    24    25    1
    21    25    26   ar
    22    26    27   ar
    23    27    28   ar
    24    28    31    1
    25    31    32    1
    26    31    33    1
    27    31    34    1
    28    28    29   ar
    29    29    30   ar
    30    22    23   ar
    31     7     9    1
    32     9    10    1
    33    17    12   ar
    34    10     4    1
    35    23    18   ar
    36    30    25   ar
    37     3    11    1
@<TRIPOS>MOLECULE
*****
 34 37 0 0 0
SMALL
GASTEIGER

@<TRIPOS>ATOM
      1 O         -15.3857   -1.2698   20.1381 O.2     1  UNL1       -0.2522
      2 C         -16.8591   -1.5456   20.1934 C.2     1  UNL1        0.3088
      3 N         -17.8180   -0.4377   20.5141 N.am    1  UNL1       -0.2521
      4 N         -17.3735   -2.9295   19.9280 N.am    1  UNL1       -0.2633
      5 C         -16.4146   -4.0374   19.6074 C.3     1  UNL1        0.0993
      6 C         -16.9291   -5.4212   19.3420 C.3     1  UNL1        0.0436
      7 C         -18.4025   -5.6970   19.3973 C.2     1  UNL1       -0.0408
      8 C         -18.9169   -7.0809   19.1319 C.2     1  UNL1       -0.0083
      9 C         -19.3614   -4.5890   19.7180 C.3     1  UNL1        0.0436
     10 C         -18.8469   -3.2053   19.9833 C.3     1  UNL1        0.0993
     11 H         -18.7850   -0.6187   20.5504 H       1  UNL1        0.1579
     12 C         -17.3036    0.9462   20.7795 C.ar    1  UNL1        0.1571
     13 C         -16.6805    1.7403   19.6700 C.ar    1  UNL1        0.0380
     14 C         -16.1661    3.1241   19.9354 C.ar    1  UNL1        0.0254
     15 C         -16.2747    3.7138   21.3103 C.ar    1  UNL1        0.1223
     16 N         -16.8978    2.9196   22.4199 N.ar    1  UNL1       -0.1452
     17 N         -17.4122    1.5359   22.1544 N.ar    1  UNL1       -0.1327
     18 C         -17.9580   -8.1888   18.8112 C.ar    1  UNL1        0.0024
     19 C         -18.2174   -9.5759   19.3199 C.ar    1  UNL1        0.0002
     20 C         -17.2584  -10.6838   18.9992 C.ar    1  UNL1        0.0031
     21 C         -16.0401  -10.4047   18.1699 C.ar    1  UNL1        0.0376
     22 C         -15.7807   -9.0176   17.6612 C.ar    1  UNL1        0.1472
     23 C         -16.7397   -7.9097   17.9819 C.ar    1  UNL1        0.0375
     24 O         -14.5624   -8.7385   16.8319 O.3     1  UNL1       -0.4361
     25 C         -13.5160   -7.7875   17.3326 C.ar    1  UNL1        0.2297
     26 C         -13.6336   -7.1989   18.7073 C.ar    1  UNL1        0.0581
     27 C         -12.5873   -6.2479   19.2080 C.ar    1  UNL1        0.0102
     28 C         -11.4234   -5.8854   18.3340 C.ar    1  UNL1        0.0907
     29 C         -11.3058   -6.4740   16.9593 C.ar    1  UNL1        0.1059
     30 N         -12.3521   -7.4250   16.4586 N.ar    1  UNL1       -0.2099
     31 C         -10.3770   -4.9344   18.8347 C.3     1  UNL1        0.4200
     32 F          -9.3306   -3.9834   19.3354 F       1  UNL1       -0.1658
     33 F          -9.3033   -5.8900   18.4059 F       1  UNL1       -0.1658
     34 F         -11.4507   -3.9788   19.2635 F       1  UNL1       -0.1658
@<TRIPOS>BOND
     1     1     2    2
     2     2     3   am
     3     3    12    1
     4    12    13   ar
     5    13    14   ar
     6    14    15   ar
     7    15    16   ar
     8    16    17   ar
     9     2     4   am
    10     4     5    1
    11     5     6    1
    12     6     7    1
    13     7     8    2
    14     8    18    1
    15    18    19   ar
    16    19    20   ar
    17    20    21   ar
    18    21    22   ar
    19    22    24    1
    20    24    25    1
    21    25    26   ar
    22    26    27   ar
    23    27    28   ar
    24    28    31    1
    25    31    32    1
    26    31    33    1
    27    31    34    1
    28    28    29   ar
    29    29    30   ar
    30    22    23   ar
    31     7     9    1
    32     9    10    1
    33    17    12   ar
    34    10     4    1
    35    23    18   ar
    36    30    25   ar
    37     3    11    1
@<TRIPOS>MOLECULE
*****
 34 37 0 0 0
SMALL
GASTEIGER

@<TRIPOS>ATOM
      1 O           3.1561    3.0391   35.3273 O.2     1  UNL1       -0.2522
      2 C           3.7345    1.7086   34.9461 C.2     1  UNL1        0.3088
      3 N           4.6556    0.9932   35.8893 N.am    1  UNL1       -0.2521
      4 N           3.3916    1.0935   33.6216 N.am    1  UNL1       -0.2633
      5 C           2.4705    1.8089   32.6784 C.3     1  UNL1        0.0993
      6 C           2.1277    1.1939   31.3540 C.3     1  UNL1        0.0436
      7 C           2.7060   -0.1366   30.9728 C.2     1  UNL1       -0.0408
      8 C           2.3632   -0.7517   29.6483 C.2     1  UNL1       -0.0083
      9 C           3.6272   -0.8520   31.9159 C.3     1  UNL1        0.0436
     10 C           3.9700   -0.2370   33.2404 C.3     1  UNL1        0.0993
     11 H           5.0352    0.1199   35.6391 H       1  UNL1        0.1579
     12 C           4.9985    1.6082   37.2138 C.ar    1  UNL1        0.1571
     13 C           6.3134    2.3057   37.3989 C.ar    1  UNL1        0.0380
     14 C           6.6562    2.9207   38.7234 C.ar    1  UNL1        0.0254
     15 C           5.6840    2.8383   39.8627 C.ar    1  UNL1        0.1223
     16 N           4.3690    2.1408   39.6775 N.ar    1  UNL1       -0.1452
     17 N           4.0263    1.5258   38.3531 N.ar    1  UNL1       -0.1327
     18 C           1.4421   -0.0363   28.7051 C.ar    1  UNL1        0.0024
     19 C          -0.0236    0.0529   29.0114 C.ar    1  UNL1        0.0002
     20 C          -0.9448    0.7683   28.0682 C.ar    1  UNL1        0.0031
     21 C          -0.4002    1.3946   26.8186 C.ar    1  UNL1        0.0376
     22 C           1.0654    1.3054   26.5123 C.ar    1  UNL1        0.1472
     23 C           1.9866    0.5899   27.4556 C.ar    1  UNL1        0.0375
     24 O           1.6100    1.9316   25.2628 O.3     1  UNL1       -0.4361
     25 C           1.8824    1.0833   24.0560 C.ar    1  UNL1        0.2297
     26 C           2.8770   -0.0367   24.1356 C.ar    1  UNL1        0.0581
     27 C           3.1495   -0.8849   22.9289 C.ar    1  UNL1        0.0102
     28 C           2.4274   -0.6132   21.6426 C.ar    1  UNL1        0.0907
     29 C           1.4328    0.5068   21.5630 C.ar    1  UNL1        0.1059
     30 N           1.1603    1.3551   22.7697 N.ar    1  UNL1       -0.2099
     31 C           2.6998   -1.4615   20.4359 C.3     1  UNL1        0.4200
     32 F           2.9723   -2.3097   19.2292 F       1  UNL1       -0.1658
     33 F           4.0190   -1.8704   21.0212 F       1  UNL1       -0.1658
     34 F           1.3807   -1.0526   19.8506 F       1  UNL1       -0.1658
@<TRIPOS>BOND
     1     1     2    2
     2     2     3   am
     3     3    12    1
     4    12    13   ar
     5    13    14   ar
     6    14    15   ar
     7    15    16   ar
     8    16    17   ar
     9     2     4   am
    10     4     5    1
    11     5     6    1
    12     6     7    1
    13     7     8    2
    14     8    18    1
    15    18    19   ar
    16    19    20   ar
    17    20    21   ar
    18    21    22   ar
    19    22    24    1
    20    24    25    1
    21    25    26   ar
    22    26    27   ar
    23    27    28   ar
    24    28    31    1
    25    31    32    1
    26    31    33    1
    27    31    34    1
    28    28    29   ar
    29    29    30   ar
    30    22    23   ar
    31     7     9    1
    32     9    10    1
    33    17    12   ar
    34    10     4    1
    35    23    18   ar
    36    30    25   ar
    37     3    11    1
@<TRIPOS>MOLECULE
*****
 34 37 0 0 0
SMALL
GASTEIGER

@<TRIPOS>ATOM
      1 O           3.3339   -0.8047   27.9234 O.2     1  UNL1       -0.2522
      2 C           2.7962    0.2251   26.9745 C.2     1  UNL1        0.3088
      3 N           2.1127    1.4501   27.5056 N.am    1  UNL1       -0.2521
      4 N           2.9420    0.0297   25.4944 N.am    1  UNL1       -0.2633
      5 C           3.6255   -1.1953   24.9633 C.3     1  UNL1        0.0993
      6 C           3.7713   -1.3906   23.4833 C.3     1  UNL1        0.0436
      7 C           3.2336   -0.3609   22.5343 C.2     1  UNL1       -0.0408
      8 C           3.3794   -0.5562   21.0542 C.2     1  UNL1       -0.0083
      9 C           2.5501    0.8642   23.0654 C.3     1  UNL1        0.0436
     10 C           2.4043    1.0595   24.5454 C.3     1  UNL1        0.0993
     11 H           1.7598    2.1260   26.8827 H       1  UNL1        0.1579
     12 C           1.9669    1.6455   28.9857 C.ar    1  UNL1        0.1571
     13 C           3.1176    2.1746   29.7893 C.ar    1  UNL1        0.0380
     14 C           2.9717    2.3699   31.2693 C.ar    1  UNL1        0.0254
     15 C           1.6752    2.0361   31.9457 C.ar    1  UNL1        0.1223
     16 N           0.5245    1.5070   31.1421 N.ar    1  UNL1       -0.1452
     17 N           0.6703    1.3117   29.6621 N.ar    1  UNL1       -0.1327
     18 C           4.0629   -1.7813   20.5231 C.ar    1  UNL1        0.0024
     19 C           3.3525   -2.6736   19.5490 C.ar    1  UNL1        0.0002
     20 C           4.0359   -3.8987   19.0179 C.ar    1  UNL1        0.0031
     21 C           5.4299   -4.2314   19.4610 C.ar    1  UNL1        0.0376
     22 C           6.1403   -3.3390   20.4351 C.ar    1  UNL1        0.1472
     23 C           5.4568   -2.1139   20.9662 C.ar    1  UNL1        0.0375
     24 O           7.5342   -3.6717   20.8782 O.3     1  UNL1       -0.4361
     25 C           7.7537   -4.6620   21.9833 C.ar    1  UNL1        0.2297
     26 C           7.1803   -4.4051   23.3454 C.ar    1  UNL1        0.0581
     27 C           7.3998   -5.3953   24.4505 C.ar    1  UNL1        0.0102
     28 C           8.1926   -6.6425   24.1935 C.ar    1  UNL1        0.0907
     29 C           8.7659   -6.8994   22.8314 C.ar    1  UNL1        0.1059
     30 N           8.5465   -5.9091   21.7263 N.ar    1  UNL1       -0.2099
     31 C           8.4121   -7.6328   25.2986 C.3     1  UNL1        0.4200
     32 F           8.6315   -8.6230   26.4037 F       1  UNL1       -0.1658
     33 F           7.2882   -7.0142   26.0760 F       1  UNL1       -0.1658
     34 F           9.5359   -8.2513   24.5212 F       1  UNL1       -0.1658
@<TRIPOS>BOND
     1     1     2    2
     2     2     3   am
     3     3    12    1
     4    12    13   ar
     5    13    14   ar
     6    14    15   ar
     7    15    16   ar
     8    16    17   ar
     9     2     4   am
    10     4     5    1
    11     5     6    1
    12     6     7    1
    13     7     8    2
    14     8    18    1
    15    18    19   ar
    16    19    20   ar
    17    20    21   ar
    18    21    22   ar
    19    22    24    1
    20    24    25    1
    21    25    26   ar
    22    26    27   ar
    23    27    28   ar
    24    28    31    1
    25    31    32    1
    26    31    33    1
    27    31    34    1
    28    28    29   ar
    29    29    30   ar
    30    22    23   ar
    31     7     9    1
    32     9    10    1
    33    17    12   ar
    34    10     4    1
    35    23    18   ar
    36    30    25   ar
    37     3    11    1
@<TRIPOS>MOLECULE
*****
 34 37 0 0 0
SMALL
GASTEIGER

@<TRIPOS>ATOM
      1 O           2.7752    0.5167   26.7161 O.2     1  UNL1       -0.2522
      2 C           1.6339    1.1101   25.9446 C.2     1  UNL1        0.3088
      3 N           0.5647    1.8806   26.6608 N.am    1  UNL1       -0.2521
      4 N           1.5619    0.9329   24.4568 N.am    1  UNL1       -0.2633
      5 C           2.6311    0.1624   23.7406 C.3     1  UNL1        0.0993
      6 C           2.5590   -0.0147   22.2528 C.3     1  UNL1        0.0436
      7 C           1.4177    0.5787   21.4813 C.2     1  UNL1       -0.0408
      8 C           1.3457    0.4016   19.9935 C.2     1  UNL1       -0.0083
      9 C           0.3485    1.3493   22.1975 C.3     1  UNL1        0.0436
     10 C           0.4206    1.5264   23.6852 C.3     1  UNL1        0.0993
     11 H          -0.1844    2.2701   26.1544 H       1  UNL1        0.1579
     12 C           0.6368    2.0578   28.1486 C.ar    1  UNL1        0.1571
     13 C           1.0658    3.3734   28.7273 C.ar    1  UNL1        0.0380
     14 C           1.1378    3.5505   30.2151 C.ar    1  UNL1        0.0254
     15 C           0.7808    2.4119   31.1241 C.ar    1  UNL1        0.1223
     16 N           0.3518    1.0963   30.5453 N.ar    1  UNL1       -0.1452
     17 N           0.2798    0.9192   29.0576 N.ar    1  UNL1       -0.1327
     18 C           2.4149   -0.3689   19.2773 C.ar    1  UNL1        0.0024
     19 C           3.0159    0.1773   18.0162 C.ar    1  UNL1        0.0002
     20 C           4.0852   -0.5933   17.3000 C.ar    1  UNL1        0.0031
     21 C           4.5534   -1.9101   17.8449 C.ar    1  UNL1        0.0376
     22 C           3.9524   -2.4563   19.1060 C.ar    1  UNL1        0.1472
     23 C           2.8831   -1.6857   19.8222 C.ar    1  UNL1        0.0375
     24 O           4.4205   -3.7730   19.6509 O.3     1  UNL1       -0.4361
     25 C           5.2023   -3.8200   20.9303 C.ar    1  UNL1        0.2297
     26 C           4.5416   -3.4554   22.2267 C.ar    1  UNL1        0.0581
     27 C           5.3233   -3.5024   23.5060 C.ar    1  UNL1        0.0102
     28 C           6.7656   -3.9140   23.4890 C.ar    1  UNL1        0.0907
     29 C           7.4262   -4.2786   22.1926 C.ar    1  UNL1        0.1059
     30 N           6.6446   -4.2316   20.9132 N.ar    1  UNL1       -0.2099
     31 C           7.5473   -3.9610   24.7684 C.3     1  UNL1        0.4200
     32 F           8.3291   -4.0079   26.0477 F       1  UNL1       -0.1658
     33 F           8.5266   -2.9735   24.2062 F       1  UNL1       -0.1658
     34 F           6.5681   -4.9484   25.3305 F       1  UNL1       -0.1658
@<TRIPOS>BOND
     1     1     2    2
     2     2     3   am
     3     3    12    1
     4    12    13   ar
     5    13    14   ar
     6    14    15   ar
     7    15    16   ar
     8    16    17   ar
     9     2     4   am
    10     4     5    1
    11     5     6    1
    12     6     7    1
    13     7     8    2
    14     8    18    1
    15    18    19   ar
    16    19    20   ar
    17    20    21   ar
    18    21    22   ar
    19    22    24    1
    20    24    25    1
    21    25    26   ar
    22    26    27   ar
    23    27    28   ar
    24    28    31    1
    25    31    32    1
    26    31    33    1
    27    31    34    1
    28    28    29   ar
    29    29    30   ar
    30    22    23   ar
    31     7     9    1
    32     9    10    1
    33    17    12   ar
    34    10     4    1
    35    23    18   ar
    36    30    25   ar
    37     3    11    1
@<TRIPOS>MOLECULE
*****
 34 37 0 0 0
SMALL
GASTEIGER

@<TRIPOS>ATOM
      1 O           3.4209    0.9943   27.8281 O.2     1  UNL1       -0.2522
      2 C           1.9589    1.3096   27.9425 C.2     1  UNL1        0.3088
      3 N           1.2610    1.1627   29.2621 N.am    1  UNL1       -0.2521
      4 N           1.1948    1.7719   26.7373 N.am    1  UNL1       -0.2633
      5 C           1.8927    1.9188   25.4177 C.3     1  UNL1        0.0993
      6 C           1.1286    2.3811   24.2126 C.3     1  UNL1        0.0436
      7 C          -0.3334    2.6964   24.3270 C.2     1  UNL1       -0.0408
      8 C          -1.0975    3.1587   23.1218 C.2     1  UNL1       -0.0083
      9 C          -1.0314    2.5495   25.6466 C.3     1  UNL1        0.0436
     10 C          -0.2673    2.0872   26.8517 C.3     1  UNL1        0.0993
     11 H           0.3014    1.3697   29.3372 H       1  UNL1        0.1579
     12 C           2.0251    0.7004   30.4673 C.ar    1  UNL1        0.1571
     13 C           2.3915    1.6787   31.5437 C.ar    1  UNL1        0.0380
     14 C           3.1556    1.2164   32.7488 C.ar    1  UNL1        0.0254
     15 C           3.5532   -0.2242   32.8776 C.ar    1  UNL1        0.1223
     16 N           3.1867   -1.2025   31.8013 N.ar    1  UNL1       -0.1452
     17 N           2.4226   -0.7402   30.5962 N.ar    1  UNL1       -0.1327
     18 C          -0.3996    3.3056   21.8022 C.ar    1  UNL1        0.0024
     19 C           0.1857    4.6288   21.4065 C.ar    1  UNL1        0.0002
     20 C           0.8836    4.7757   20.0870 C.ar    1  UNL1        0.0031
     21 C           0.9962    3.5994   19.1630 C.ar    1  UNL1        0.0376
     22 C           0.4109    2.2762   19.5586 C.ar    1  UNL1        0.1472
     23 C          -0.2871    2.1293   20.8783 C.ar    1  UNL1        0.0375
     24 O           0.5235    1.0999   18.6347 O.3     1  UNL1       -0.4361
     25 C           1.6544    0.1272   18.7932 C.ar    1  UNL1        0.2297
     26 C           1.6818   -0.8062   19.9670 C.ar    1  UNL1        0.0581
     27 C           2.8127   -1.7788   20.1255 C.ar    1  UNL1        0.0102
     28 C           3.9160   -1.8180   19.1102 C.ar    1  UNL1        0.0907
     29 C           3.8886   -0.8846   17.9363 C.ar    1  UNL1        0.1059
     30 N           2.7577    0.0881   17.7778 N.ar    1  UNL1       -0.2099
     31 C           5.0470   -2.7907   19.2686 C.3     1  UNL1        0.4200
     32 F           6.1778   -3.7633   19.4271 F       1  UNL1       -0.1658
     33 F           4.7547   -2.8913   20.7364 F       1  UNL1       -0.1658
     34 F           5.3392   -2.6901   17.8008 F       1  UNL1       -0.1658
@<TRIPOS>BOND
     1     1     2    2
     2     2     3   am
     3     3    12    1
     4    12    13   ar
     5    13    14   ar
     6    14    15   ar
     7    15    16   ar
     8    16    17   ar
     9     2     4   am
    10     4     5    1
    11     5     6    1
    12     6     7    1
    13     7     8    2
    14     8    18    1
    15    18    19   ar
    16    19    20   ar
    17    20    21   ar
    18    21    22   ar
    19    22    24    1
    20    24    25    1
    21    25    26   ar
    22    26    27   ar
    23    27    28   ar
    24    28    31    1
    25    31    32    1
    26    31    33    1
    27    31    34    1
    28    28    29   ar
    29    29    30   ar
    30    22    23   ar
    31     7     9    1
    32     9    10    1
    33    17    12   ar
    34    10     4    1
    35    23    18   ar
    36    30    25   ar
    37     3    11    1
@<TRIPOS>MOLECULE
*****
 34 37 0 0 0
SMALL
GASTEIGER

@<TRIPOS>ATOM
      1 O           2.6712    3.9910   30.8267 O.2     1  UNL1       -0.2522
      2 C           1.5410    3.0136   30.6951 C.2     1  UNL1        0.3088
      3 N           0.8137    2.5390   31.9180 N.am    1  UNL1       -0.2521
      4 N           1.1382    2.5108   29.3404 N.am    1  UNL1       -0.2633
      5 C           1.8655    2.9854   28.1175 C.3     1  UNL1        0.0993
      6 C           1.4626    2.4826   26.7629 C.3     1  UNL1        0.0436
      7 C           0.3324    1.5052   26.6313 C.2     1  UNL1       -0.0408
      8 C          -0.0704    1.0024   25.2767 C.2     1  UNL1       -0.0083
      9 C          -0.3949    1.0306   27.8543 C.3     1  UNL1        0.0436
     10 C           0.0080    1.5334   29.2089 C.3     1  UNL1        0.0993
     11 H           0.0719    1.8975   31.8317 H       1  UNL1        0.1579
     12 C           1.2166    3.0418   33.2727 C.ar    1  UNL1        0.1571
     13 C           0.8774    4.4439   33.6836 C.ar    1  UNL1        0.0380
     14 C           1.2802    4.9467   35.0382 C.ar    1  UNL1        0.0254
     15 C           2.0223    4.0473   35.9818 C.ar    1  UNL1        0.1223
     16 N           2.3614    2.6451   35.5709 N.ar    1  UNL1       -0.1452
     17 N           1.9586    2.1424   34.2163 N.ar    1  UNL1       -0.1327
     18 C           0.6569    1.4770   24.0537 C.ar    1  UNL1        0.0024
     19 C           0.0420    2.5259   23.1752 C.ar    1  UNL1        0.0002
     20 C           0.7693    3.0005   21.9523 C.ar    1  UNL1        0.0031
     21 C           2.1116    2.4263   21.6077 C.ar    1  UNL1        0.0376
     22 C           2.7265    1.3774   22.4863 C.ar    1  UNL1        0.1472
     23 C           1.9991    0.9028   23.7093 C.ar    1  UNL1        0.0375
     24 O           4.0687    0.8032   22.1418 O.3     1  UNL1       -0.4361
     25 C           4.1606   -0.5134   21.4288 C.ar    1  UNL1        0.2297
     26 C           4.2445   -1.7879   22.2152 C.ar    1  UNL1        0.0581
     27 C           4.3364   -3.1044   21.5022 C.ar    1  UNL1        0.0102
     28 C           4.3445   -3.1464   20.0029 C.ar    1  UNL1        0.0907
     29 C           4.2606   -1.8718   19.2165 C.ar    1  UNL1        0.1059
     30 N           4.1687   -0.5553   19.9294 N.ar    1  UNL1       -0.2099
     31 C           4.4364   -4.4629   19.2898 C.3     1  UNL1        0.4200
     32 F           4.5283   -5.7794   18.5768 F       1  UNL1       -0.1658
     33 F           2.9898   -4.3570   18.9079 F       1  UNL1       -0.1658
     34 F           5.8831   -4.5688   19.6718 F       1  UNL1       -0.1658
@<TRIPOS>BOND
     1     1     2    2
     2     2     3   am
     3     3    12    1
     4    12    13   ar
     5    13    14   ar
     6    14    15   ar
     7    15    16   ar
     8    16    17   ar
     9     2     4   am
    10     4     5    1
    11     5     6    1
    12     6     7    1
    13     7     8    2
    14     8    18    1
    15    18    19   ar
    16    19    20   ar
    17    20    21   ar
    18    21    22   ar
    19    22    24    1
    20    24    25    1
    21    25    26   ar
    22    26    27   ar
    23    27    28   ar
    24    28    31    1
    25    31    32    1
    26    31    33    1
    27    31    34    1
    28    28    29   ar
    29    29    30   ar
    30    22    23   ar
    31     7     9    1
    32     9    10    1
    33    17    12   ar
    34    10     4    1
    35    23    18   ar
    36    30    25   ar
    37     3    11    1
@<TRIPOS>MOLECULE
*****
 34 37 0 0 0
SMALL
GASTEIGER

@<TRIPOS>ATOM
      1 O          -2.1656    3.7235   24.3920 O.2     1  UNL1       -0.2522
      2 C          -2.1035    3.1892   25.7923 C.2     1  UNL1        0.3088
      3 N          -3.2408    3.4331   26.7393 N.am    1  UNL1       -0.2521
      4 N          -0.9039    2.4109   26.2454 N.am    1  UNL1       -0.2633
      5 C           0.2335    2.1669   25.2984 C.3     1  UNL1        0.0993
      6 C           1.4330    1.3887   25.7516 C.3     1  UNL1        0.0436
      7 C           1.4951    0.8543   27.1518 C.2     1  UNL1       -0.0408
      8 C           2.6947    0.0760   27.6049 C.2     1  UNL1       -0.0083
      9 C           0.3578    1.0982   28.0988 C.3     1  UNL1        0.0436
     10 C          -0.8417    1.8765   27.6456 C.3     1  UNL1        0.0993
     11 H          -3.2000    3.0824   27.6583 H       1  UNL1        0.1579
     12 C          -4.4404    4.2114   26.2861 C.ar    1  UNL1        0.1571
     13 C          -4.7638    5.5299   26.9241 C.ar    1  UNL1        0.0380
     14 C          -5.9633    6.3081   26.4709 C.ar    1  UNL1        0.0254
     15 C          -6.8395    5.7679   25.3798 C.ar    1  UNL1        0.1223
     16 N          -6.5161    4.4494   24.7419 N.ar    1  UNL1       -0.1452
     17 N          -5.3166    3.6712   25.1950 N.ar    1  UNL1       -0.1327
     18 C           3.8321   -0.1679   26.6579 C.ar    1  UNL1        0.0024
     19 C           5.0520    0.7032   26.7107 C.ar    1  UNL1        0.0002
     20 C           6.1894    0.4593   25.7637 C.ar    1  UNL1        0.0031
     21 C           6.1068   -0.6558   24.7638 C.ar    1  UNL1        0.0376
     22 C           4.8868   -1.5270   24.7109 C.ar    1  UNL1        0.1472
     23 C           3.7494   -1.2830   25.6580 C.ar    1  UNL1        0.0375
     24 O           4.8041   -2.6420   23.7110 O.3     1  UNL1       -0.4361
     25 C           4.5640   -2.3344   22.2627 C.ar    1  UNL1        0.2297
     26 C           3.4977   -1.3548   21.8708 C.ar    1  UNL1        0.0581
     27 C           3.2575   -1.0472   20.4225 C.ar    1  UNL1        0.0102
     28 C           4.0835   -1.7191   19.3661 C.ar    1  UNL1        0.0907
     29 C           5.1498   -2.6986   19.7579 C.ar    1  UNL1        0.1059
     30 N           5.3900   -3.0063   21.2062 N.ar    1  UNL1       -0.2099
     31 C           3.8433   -1.4114   17.9177 C.3     1  UNL1        0.4200
     32 F           3.6032   -1.1039   16.4694 F       1  UNL1       -0.1658
     33 F           4.9469   -2.3525   17.5349 F       1  UNL1       -0.1658
     34 F           2.7398   -0.4704   18.3005 F       1  UNL1       -0.1658
@<TRIPOS>BOND
     1     1     2    2
     2     2     3   am
     3     3    12    1
     4    12    13   ar
     5    13    14   ar
     6    14    15   ar
     7    15    16   ar
     8    16    17   ar
     9     2     4   am
    10     4     5    1
    11     5     6    1
    12     6     7    1
    13     7     8    2
    14     8    18    1
    15    18    19   ar
    16    19    20   ar
    17    20    21   ar
    18    21    22   ar
    19    22    24    1
    20    24    25    1
    21    25    26   ar
    22    26    27   ar
    23    27    28   ar
    24    28    31    1
    25    31    32    1
    26    31    33    1
    27    31    34    1
    28    28    29   ar
    29    29    30   ar
    30    22    23   ar
    31     7     9    1
    32     9    10    1
    33    17    12   ar
    34    10     4    1
    35    23    18   ar
    36    30    25   ar
    37     3    11    1
