@<TRIPOS>MOLECULE
*****
 29 32 0 0 0
SMALL
GASTEIGER

@<TRIPOS>ATOM
      1 C          -7.6920    4.3775   23.5493 C.3     1  UNL1        0.0319
      2 C          -6.4999    4.1884   22.6588 C.ar    1  UNL1       -0.0115
      3 C          -6.6084    4.4725   21.1898 C.ar    1  UNL1       -0.0064
      4 C          -5.4163    4.2834   20.2993 C.ar    1  UNL1       -0.0070
      5 C          -4.1156    3.8102   20.8776 C.ar    1  UNL1        0.0522
      6 C          -4.0071    3.5262   22.3464 C.ar    1  UNL1        0.0257
      7 C          -5.1992    3.7153   23.2371 C.ar    1  UNL1        0.0549
      8 CL         -5.0907    3.4312   24.7059 Cl      1  UNL1       -0.0825
      9 N          -3.1187    3.7162   19.7608 N.am    1  UNL1       -0.2430
     10 C          -1.6884    3.2831   19.8898 C.2     1  UNL1        0.3115
     11 O          -1.1405    2.8948   21.2311 O.2     1  UNL1       -0.2519
     12 N          -0.8060    3.2384   18.6777 N.am    1  UNL1       -0.2666
     13 C          -3.8032    4.1312   18.4922 C.3     1  UNL1        0.1045
     14 C          -5.2232    4.4817   18.8251 C.3     1  UNL1        0.0495
     15 H          -1.1657    3.4932   17.7974 H       1  UNL1        0.1565
     16 C           0.6243    2.8053   18.8066 C.ar    1  UNL1        0.0711
     17 C           1.0293    1.4217   18.3927 C.ar    1  UNL1        0.0211
     18 C           2.4596    0.9887   18.5217 C.ar    1  UNL1        0.0594
     19 C           3.4850    1.9394   19.0647 C.ar    1  UNL1        0.2298
     20 N           3.0800    3.3231   19.4786 N.ar    1  UNL1       -0.2085
     21 C           1.6497    3.7561   19.3496 C.ar    1  UNL1        0.1167
     22 O           4.9153    1.5065   19.1937 O.3     1  UNL1       -0.4349
     23 C           5.2963    0.0830   18.9132 C.ar    1  UNL1        0.1606
     24 C           5.0082   -0.9843   19.9271 C.ar    1  UNL1        0.0404
     25 C           5.3891   -2.4077   19.6467 C.ar    1  UNL1        0.0238
     26 C           6.0582   -2.7639   18.3523 C.ar    1  UNL1        0.0987
     27 N           6.3463   -1.6967   17.3384 N.ar    1  UNL1       -0.2451
     28 C           5.9654   -0.2732   17.6188 C.ar    1  UNL1        0.0938
     29 C           6.2535    0.7940   16.6049 C.3     1  UNL1        0.0554
@<TRIPOS>BOND
     1     1     2    1
     2     2     3   ar
     3     3     4   ar
     4     4     5   ar
     5     5     6   ar
     6     6     7   ar
     7     7     8    1
     8     5     9    1
     9     9    10   am
    10    10    11    2
    11    10    12   am
    12    12    16    1
    13    16    17   ar
    14    17    18   ar
    15    18    19   ar
    16    19    22    1
    17    22    23    1
    18    23    24   ar
    19    24    25   ar
    20    25    26   ar
    21    26    27   ar
    22    27    28   ar
    23    28    29    1
    24    19    20   ar
    25    20    21   ar
    26     9    13    1
    27    13    14    1
    28     7     2   ar
    29    21    16   ar
    30    14     4    1
    31    28    23   ar
    32    12    15    1
@<TRIPOS>MOLECULE
*****
 29 32 0 0 0
SMALL
GASTEIGER

@<TRIPOS>ATOM
      1 C           8.5085   -7.2603   24.4547 C.3     1  UNL1        0.0319
      2 C           8.2280   -6.6627   25.8016 C.ar    1  UNL1       -0.0115
      3 C           8.8075   -7.2888   27.0354 C.ar    1  UNL1       -0.0064
      4 C           8.5269   -6.6913   28.3823 C.ar    1  UNL1       -0.0070
      5 C           7.6669   -5.4676   28.4955 C.ar    1  UNL1        0.0522
      6 C           7.0873   -4.8414   27.2618 C.ar    1  UNL1        0.0257
      7 C           7.3679   -5.4390   25.9148 C.ar    1  UNL1        0.0549
      8 CL          6.7884   -4.8129   24.6811 Cl      1  UNL1       -0.0825
      9 N           7.5653   -5.1051   29.9475 N.am    1  UNL1       -0.2430
     10 C           6.8006   -3.9464   30.5155 C.2     1  UNL1        0.3115
     11 O           6.0459   -3.0260   29.6027 O.2     1  UNL1       -0.2519
     12 N           6.7906   -3.7081   31.9964 N.am    1  UNL1       -0.2666
     13 C           8.3625   -6.1048   30.7317 C.3     1  UNL1        0.1045
     14 C           8.9569   -7.0851   29.7644 C.3     1  UNL1        0.0495
     15 H           7.2859   -4.3122   32.5956 H       1  UNL1        0.1565
     16 C           6.0259   -2.5494   32.5646 C.ar    1  UNL1        0.0711
     17 C           6.6185   -1.1718   32.5327 C.ar    1  UNL1        0.0211
     18 C           5.8538   -0.0131   33.1008 C.ar    1  UNL1        0.0594
     19 C           4.4966   -0.2321   33.7008 C.ar    1  UNL1        0.2298
     20 N           3.9040   -1.6097   33.7327 N.ar    1  UNL1       -0.2085
     21 C           4.6687   -2.7684   33.1646 C.ar    1  UNL1        0.1167
     22 O           3.7319    0.9265   34.2690 O.3     1  UNL1       -0.4349
     23 C           2.7251    1.6480   33.4227 C.ar    1  UNL1        0.1606
     24 C           2.4112    1.1508   32.0428 C.ar    1  UNL1        0.0404
     25 C           1.4045    1.8722   31.1966 C.ar    1  UNL1        0.0238
     26 C           0.7118    3.0909   31.7303 C.ar    1  UNL1        0.0987
     27 N           1.0257    3.5882   33.1102 N.ar    1  UNL1       -0.2451
     28 C           2.0324    2.8667   33.9565 C.ar    1  UNL1        0.0938
     29 C           2.3463    3.3640   35.3364 C.3     1  UNL1        0.0554
@<TRIPOS>BOND
     1     1     2    1
     2     2     3   ar
     3     3     4   ar
     4     4     5   ar
     5     5     6   ar
     6     6     7   ar
     7     7     8    1
     8     5     9    1
     9     9    10   am
    10    10    11    2
    11    10    12   am
    12    12    16    1
    13    16    17   ar
    14    17    18   ar
    15    18    19   ar
    16    19    22    1
    17    22    23    1
    18    23    24   ar
    19    24    25   ar
    20    25    26   ar
    21    26    27   ar
    22    27    28   ar
    23    28    29    1
    24    19    20   ar
    25    20    21   ar
    26     9    13    1
    27    13    14    1
    28     7     2   ar
    29    21    16   ar
    30    14     4    1
    31    28    23   ar
    32    12    15    1
@<TRIPOS>MOLECULE
*****
 29 32 0 0 0
SMALL
GASTEIGER

@<TRIPOS>ATOM
      1 C          -7.5879    4.5650   23.5039 C.3     1  UNL1        0.0319
      2 C          -6.3904    4.3187   22.6349 C.ar    1  UNL1       -0.0115
      3 C          -6.4066    4.7454   21.1970 C.ar    1  UNL1       -0.0064
      4 C          -5.2091    4.4991   20.3280 C.ar    1  UNL1       -0.0070
      5 C          -3.9953    3.8260   20.8968 C.ar    1  UNL1        0.0522
      6 C          -3.9790    3.3992   22.3347 C.ar    1  UNL1        0.0257
      7 C          -5.1766    3.6456   23.2038 C.ar    1  UNL1        0.0549
      8 CL         -5.1603    3.2189   24.6417 Cl      1  UNL1       -0.0825
      9 N          -2.9716    3.7170   19.8059 N.am    1  UNL1       -0.2430
     10 C          -1.6065    3.1091   19.9354 C.2     1  UNL1        0.3115
     11 O          -1.1608    2.5392   21.2494 O.2     1  UNL1       -0.2519
     12 N          -0.6870    3.0710   18.7509 N.am    1  UNL1       -0.2666
     13 C          -3.5527    4.3228   18.5627 C.3     1  UNL1        0.1045
     14 C          -4.9355    4.8061   18.8854 C.3     1  UNL1        0.0495
     15 H          -0.9795    3.4450   17.8884 H       1  UNL1        0.1565
     16 C           0.6782    2.4630   18.8803 C.ar    1  UNL1        0.0711
     17 C           0.9446    1.0936   18.3294 C.ar    1  UNL1        0.0211
     18 C           2.3098    0.4857   18.4588 C.ar    1  UNL1        0.0594
     19 C           3.4085    1.2473   19.1391 C.ar    1  UNL1        0.2298
     20 N           3.1421    2.6167   19.6900 N.ar    1  UNL1       -0.2085
     21 C           1.7769    3.2246   19.5606 C.ar    1  UNL1        0.1167
     22 O           4.7737    0.6394   19.2686 O.3     1  UNL1       -0.4349
     23 C           4.9234   -0.8475   19.3988 C.ar    1  UNL1        0.1606
     24 C           5.2222   -1.6802   18.1875 C.ar    1  UNL1        0.0404
     25 C           5.3719   -3.1670   18.3177 C.ar    1  UNL1        0.0238
     26 C           5.2227   -3.8211   19.6593 C.ar    1  UNL1        0.0987
     27 N           4.9239   -2.9884   20.8706 N.ar    1  UNL1       -0.2451
     28 C           4.7742   -1.5016   20.7404 C.ar    1  UNL1        0.0938
     29 C           4.4754   -0.6689   21.9518 C.3     1  UNL1        0.0554
@<TRIPOS>BOND
     1     1     2    1
     2     2     3   ar
     3     3     4   ar
     4     4     5   ar
     5     5     6   ar
     6     6     7   ar
     7     7     8    1
     8     5     9    1
     9     9    10   am
    10    10    11    2
    11    10    12   am
    12    12    16    1
    13    16    17   ar
    14    17    18   ar
    15    18    19   ar
    16    19    22    1
    17    22    23    1
    18    23    24   ar
    19    24    25   ar
    20    25    26   ar
    21    26    27   ar
    22    27    28   ar
    23    28    29    1
    24    19    20   ar
    25    20    21   ar
    26     9    13    1
    27    13    14    1
    28     7     2   ar
    29    21    16   ar
    30    14     4    1
    31    28    23   ar
    32    12    15    1
@<TRIPOS>MOLECULE
*****
 29 32 0 0 0
SMALL
GASTEIGER

@<TRIPOS>ATOM
      1 C           8.6419   -7.4309   24.3367 C.3     1  UNL1        0.0319
      2 C           8.3406   -6.8093   25.6682 C.ar    1  UNL1       -0.0115
      3 C           8.9007   -7.4133   26.9218 C.ar    1  UNL1       -0.0064
      4 C           8.5994   -6.7918   28.2533 C.ar    1  UNL1       -0.0070
      5 C           7.7382   -5.5661   28.3312 C.ar    1  UNL1        0.0522
      6 C           7.1783   -4.9620   27.0776 C.ar    1  UNL1        0.0257
      7 C           7.4795   -5.5836   25.7461 C.ar    1  UNL1        0.0549
      8 CL          6.9195   -4.9795   24.4925 Cl      1  UNL1       -0.0825
      9 N           7.6142   -5.1777   29.7747 N.am    1  UNL1       -0.2430
     10 C           6.8414   -4.0089   30.3100 C.2     1  UNL1        0.3115
     11 O           6.1014   -3.1048   29.3692 O.2     1  UNL1       -0.2519
     12 N           6.8084   -3.7442   31.7861 N.am    1  UNL1       -0.2666
     13 C           8.3988   -6.1634   30.5890 C.3     1  UNL1        0.1045
     14 C           9.0077   -7.1609   29.6487 C.3     1  UNL1        0.0495
     15 H           7.2941   -4.3376   32.4036 H       1  UNL1        0.1565
     16 C           6.0356   -2.5753   32.3215 C.ar    1  UNL1        0.0711
     17 C           6.6145   -1.1939   32.2426 C.ar    1  UNL1        0.0211
     18 C           5.8416   -0.0251   32.7780 C.ar    1  UNL1        0.0594
     19 C           4.4898   -0.2379   33.3922 C.ar    1  UNL1        0.2298
     20 N           3.9108   -1.6194   33.4711 N.ar    1  UNL1       -0.2085
     21 C           4.6837   -2.7881   32.9357 C.ar    1  UNL1        0.1167
     22 O           3.7168    0.9308   33.9276 O.3     1  UNL1       -0.4349
     23 C           3.8173    1.2948   35.3794 C.ar    1  UNL1        0.1606
     24 C           4.6835    0.4845   36.2976 C.ar    1  UNL1        0.0404
     25 C           4.7840    0.8484   37.7492 C.ar    1  UNL1        0.0238
     26 C           4.0183    2.0228   38.2827 C.ar    1  UNL1        0.0987
     27 N           3.1521    2.8331   37.3646 N.ar    1  UNL1       -0.2451
     28 C           3.0516    2.4692   35.9129 C.ar    1  UNL1        0.0938
     29 C           2.1854    3.2795   34.9947 C.3     1  UNL1        0.0554
@<TRIPOS>BOND
     1     1     2    1
     2     2     3   ar
     3     3     4   ar
     4     4     5   ar
     5     5     6   ar
     6     6     7   ar
     7     7     8    1
     8     5     9    1
     9     9    10   am
    10    10    11    2
    11    10    12   am
    12    12    16    1
    13    16    17   ar
    14    17    18   ar
    15    18    19   ar
    16    19    22    1
    17    22    23    1
    18    23    24   ar
    19    24    25   ar
    20    25    26   ar
    21    26    27   ar
    22    27    28   ar
    23    28    29    1
    24    19    20   ar
    25    20    21   ar
    26     9    13    1
    27    13    14    1
    28     7     2   ar
    29    21    16   ar
    30    14     4    1
    31    28    23   ar
    32    12    15    1
@<TRIPOS>MOLECULE
*****
 29 32 0 0 0
SMALL
GASTEIGER

@<TRIPOS>ATOM
      1 C           9.4087   -3.9766   22.1379 C.3     1  UNL1        0.0319
      2 C           8.0908   -3.4791   21.6224 C.ar    1  UNL1       -0.0115
      3 C           7.2667   -4.3424   20.7137 C.ar    1  UNL1       -0.0064
      4 C           5.9488   -3.8449   20.1983 C.ar    1  UNL1       -0.0070
      5 C           5.4550   -2.4842   20.5915 C.ar    1  UNL1        0.0522
      6 C           6.2790   -1.6210   21.5002 C.ar    1  UNL1        0.0257
      7 C           7.5970   -2.1184   22.0157 C.ar    1  UNL1        0.0549
      8 CL          8.4210   -1.2552   22.9244 Cl      1  UNL1       -0.0825
      9 N           4.1262   -2.2646   19.9310 N.am    1  UNL1       -0.2430
     10 C           3.2744   -1.0358   20.0510 C.2     1  UNL1        0.3115
     11 O           3.7350    0.1167   20.8934 O.2     1  UNL1       -0.2519
     12 N           1.9621   -0.9594   19.3285 N.am    1  UNL1       -0.2666
     13 C           3.7988   -3.4896   19.1296 C.3     1  UNL1        0.1045
     14 C           4.9253   -4.4662   19.2948 C.3     1  UNL1        0.0495
     15 H           1.6599   -1.7158   18.7756 H       1  UNL1        0.1565
     16 C           1.1103    0.2694   19.4484 C.ar    1  UNL1        0.0711
     17 C           1.1157    1.2955   18.3543 C.ar    1  UNL1        0.0211
     18 C           0.2639    2.5243   18.4742 C.ar    1  UNL1        0.0594
     19 C          -0.5934    2.7269   19.6883 C.ar    1  UNL1        0.2298
     20 N          -0.5989    1.7009   20.7824 N.ar    1  UNL1       -0.2085
     21 C           0.2530    0.4721   20.6624 C.ar    1  UNL1        0.1167
     22 O          -1.4453    3.9557   19.8082 O.3     1  UNL1       -0.4349
     23 C          -2.8813    3.9180   19.3759 C.ar    1  UNL1        0.1606
     24 C          -3.2354    4.1192   17.9323 C.ar    1  UNL1        0.0404
     25 C          -4.6712    4.0815   17.4999 C.ar    1  UNL1        0.0238
     26 C          -5.7529    3.8426   18.5112 C.ar    1  UNL1        0.0987
     27 N          -5.3988    3.6414   19.9549 N.ar    1  UNL1       -0.2451
     28 C          -3.9630    3.6791   20.3872 C.ar    1  UNL1        0.0938
     29 C          -3.6089    3.4779   21.8309 C.3     1  UNL1        0.0554
@<TRIPOS>BOND
     1     1     2    1
     2     2     3   ar
     3     3     4   ar
     4     4     5   ar
     5     5     6   ar
     6     6     7   ar
     7     7     8    1
     8     5     9    1
     9     9    10   am
    10    10    11    2
    11    10    12   am
    12    12    16    1
    13    16    17   ar
    14    17    18   ar
    15    18    19   ar
    16    19    22    1
    17    22    23    1
    18    23    24   ar
    19    24    25   ar
    20    25    26   ar
    21    26    27   ar
    22    27    28   ar
    23    28    29    1
    24    19    20   ar
    25    20    21   ar
    26     9    13    1
    27    13    14    1
    28     7     2   ar
    29    21    16   ar
    30    14     4    1
    31    28    23   ar
    32    12    15    1
@<TRIPOS>MOLECULE
*****
 29 32 0 0 0
SMALL
GASTEIGER

@<TRIPOS>ATOM
      1 C          -7.6303    5.2596   24.2342 C.3     1  UNL1        0.0319
      2 C          -6.2533    4.7518   23.9245 C.ar    1  UNL1       -0.0115
      3 C          -5.2107    4.7061   25.0020 C.ar    1  UNL1       -0.0064
      4 C          -3.8337    4.1984   24.6922 C.ar    1  UNL1       -0.0070
      5 C          -3.4991    3.7363   23.3049 C.ar    1  UNL1        0.0522
      6 C          -4.5416    3.7820   22.2274 C.ar    1  UNL1        0.0257
      7 C          -5.9187    4.2898   22.5372 C.ar    1  UNL1        0.0549
      8 CL         -6.9612    4.3355   21.4596 Cl      1  UNL1       -0.0825
      9 N          -2.0672    3.2896   23.2979 N.am    1  UNL1       -0.2430
     10 C          -1.3174    2.7515   22.1154 C.2     1  UNL1        0.3115
     11 O          -2.0035    2.6219   20.7879 O.2     1  UNL1       -0.2519
     12 N           0.1185    2.3428   22.2605 N.am    1  UNL1       -0.2666
     13 C          -1.5167    3.4756   24.6807 C.3     1  UNL1        0.1045
     14 C          -2.6085    4.0372   25.5425 C.3     1  UNL1        0.0495
     15 H           0.5689    2.4279   23.1319 H       1  UNL1        0.1565
     16 C           0.8685    1.8046   21.0781 C.ar    1  UNL1        0.0711
     17 C           0.7126    0.3662   20.6825 C.ar    1  UNL1        0.0211
     18 C           1.4625   -0.1719   19.5001 C.ar    1  UNL1        0.0594
     19 C           2.3683    0.7285   18.7134 C.ar    1  UNL1        0.2298
     20 N           2.5242    2.1669   19.1090 N.ar    1  UNL1       -0.2085
     21 C           1.7742    2.7050   20.2914 C.ar    1  UNL1        0.1167
     22 O           3.1182    0.1904   17.5310 O.3     1  UNL1       -0.4349
     23 C           4.3282   -0.6715   17.7392 C.ar    1  UNL1        0.1606
     24 C           4.1667   -2.1009   18.1644 C.ar    1  UNL1        0.0404
     25 C           5.3766   -2.9627   18.3726 C.ar    1  UNL1        0.0238
     26 C           6.7480   -2.3952   18.1555 C.ar    1  UNL1        0.0987
     27 N           6.9095   -0.9658   17.7303 N.ar    1  UNL1       -0.2451
     28 C           5.6996   -0.1040   17.5221 C.ar    1  UNL1        0.0938
     29 C           5.8611    1.3254   17.0969 C.3     1  UNL1        0.0554
@<TRIPOS>BOND
     1     1     2    1
     2     2     3   ar
     3     3     4   ar
     4     4     5   ar
     5     5     6   ar
     6     6     7   ar
     7     7     8    1
     8     5     9    1
     9     9    10   am
    10    10    11    2
    11    10    12   am
    12    12    16    1
    13    16    17   ar
    14    17    18   ar
    15    18    19   ar
    16    19    22    1
    17    22    23    1
    18    23    24   ar
    19    24    25   ar
    20    25    26   ar
    21    26    27   ar
    22    27    28   ar
    23    28    29    1
    24    19    20   ar
    25    20    21   ar
    26     9    13    1
    27    13    14    1
    28     7     2   ar
    29    21    16   ar
    30    14     4    1
    31    28    23   ar
    32    12    15    1
@<TRIPOS>MOLECULE
*****
 29 32 0 0 0
SMALL
GASTEIGER

@<TRIPOS>ATOM
      1 C           7.5345   -5.9841   29.7913 C.3     1  UNL1        0.0319
      2 C           7.5703   -5.8192   28.3008 C.ar    1  UNL1       -0.0115
      3 C           8.2927   -6.8233   27.4522 C.ar    1  UNL1       -0.0064
      4 C           8.3285   -6.6583   25.9618 C.ar    1  UNL1       -0.0070
      5 C           7.6419   -5.4894   25.3198 C.ar    1  UNL1        0.0522
      6 C           6.9196   -4.4853   26.1683 C.ar    1  UNL1        0.0257
      7 C           6.8837   -4.6502   27.6589 C.ar    1  UNL1        0.0549
      8 CL          6.1614   -3.6461   28.5074 Cl      1  UNL1       -0.0825
      9 N           7.8461   -5.5889   23.8371 N.am    1  UNL1       -0.2430
     10 C           7.3284   -4.6268   22.8093 C.2     1  UNL1        0.3115
     11 O           6.5253   -3.4339   23.2359 O.2     1  UNL1       -0.2519
     12 N           7.6138   -4.8577   21.3549 N.am    1  UNL1       -0.2666
     13 C           8.6588   -6.8194   23.5627 C.3     1  UNL1        0.1045
     14 C           8.9570   -7.4803   24.8758 C.3     1  UNL1        0.0495
     15 H           8.1409   -5.6406   21.0750 H       1  UNL1        0.1565
     16 C           7.0961   -3.8956   20.3270 C.ar    1  UNL1        0.0711
     17 C           5.7243   -4.0814   19.7496 C.ar    1  UNL1        0.0211
     18 C           5.2067   -3.1193   18.7217 C.ar    1  UNL1        0.0594
     19 C           6.0609   -1.9715   18.2713 C.ar    1  UNL1        0.2298
     20 N           7.4328   -1.7858   18.8488 N.ar    1  UNL1       -0.2085
     21 C           7.9504   -2.7479   19.8767 C.ar    1  UNL1        0.1167
     22 O           5.5434   -1.0095   17.2435 O.3     1  UNL1       -0.4349
     23 C           4.6267    0.1049   17.6535 C.ar    1  UNL1        0.1606
     24 C           3.1652   -0.1633   17.8586 C.ar    1  UNL1        0.0404
     25 C           2.2485    0.9510   18.2687 C.ar    1  UNL1        0.0238
     26 C           2.7934    2.3334   18.4736 C.ar    1  UNL1        0.0987
     27 N           4.2549    2.6015   18.2685 N.ar    1  UNL1       -0.2451
     28 C           5.1716    1.4873   17.8585 C.ar    1  UNL1        0.0938
     29 C           6.6331    1.7554   17.6534 C.3     1  UNL1        0.0554
@<TRIPOS>BOND
     1     1     2    1
     2     2     3   ar
     3     3     4   ar
     4     4     5   ar
     5     5     6   ar
     6     6     7   ar
     7     7     8    1
     8     5     9    1
     9     9    10   am
    10    10    11    2
    11    10    12   am
    12    12    16    1
    13    16    17   ar
    14    17    18   ar
    15    18    19   ar
    16    19    22    1
    17    22    23    1
    18    23    24   ar
    19    24    25   ar
    20    25    26   ar
    21    26    27   ar
    22    27    28   ar
    23    28    29    1
    24    19    20   ar
    25    20    21   ar
    26     9    13    1
    27    13    14    1
    28     7     2   ar
    29    21    16   ar
    30    14     4    1
    31    28    23   ar
    32    12    15    1
@<TRIPOS>MOLECULE
*****
 29 32 0 0 0
SMALL
GASTEIGER

@<TRIPOS>ATOM
      1 C           1.6952    1.3231   31.3254 C.3     1  UNL1        0.0319
      2 C           1.4208    1.4004   29.8528 C.ar    1  UNL1       -0.0115
      3 C           0.1401    2.0057   29.3593 C.ar    1  UNL1       -0.0064
      4 C          -0.1343    2.0831   27.8867 C.ar    1  UNL1       -0.0070
      5 C           0.8720    1.5552   26.9075 C.ar    1  UNL1        0.0522
      6 C           2.1526    0.9499   27.4009 C.ar    1  UNL1        0.0257
      7 C           2.4271    0.8726   28.8736 C.ar    1  UNL1        0.0549
      8 CL          3.7077    0.2673   29.3671 Cl      1  UNL1       -0.0825
      9 N           0.3290    1.7669   25.5253 N.am    1  UNL1       -0.2430
     10 C           1.0086    1.3867   24.2433 C.2     1  UNL1        0.3115
     11 O           2.3571    0.7306   24.2752 O.2     1  UNL1       -0.2519
     12 N           0.3396    1.6624   22.9294 N.am    1  UNL1       -0.2666
     13 C          -1.0128    2.4256   25.6502 C.3     1  UNL1        0.1045
     14 C          -1.2991    2.6210   27.1096 C.3     1  UNL1        0.0495
     15 H          -0.5455    2.0930   22.9085 H       1  UNL1        0.1565
     16 C           1.0192    1.2822   21.6473 C.ar    1  UNL1        0.0711
     17 C           0.5221    0.1102   20.8539 C.ar    1  UNL1        0.0211
     18 C           1.2017   -0.2699   19.5719 C.ar    1  UNL1        0.0594
     19 C           2.3783    0.5218   19.0832 C.ar    1  UNL1        0.2298
     20 N           2.8753    1.6938   19.8766 N.ar    1  UNL1       -0.2085
     21 C           2.1957    2.0739   21.1587 C.ar    1  UNL1        0.1167
     22 O           3.0578    0.1417   17.8012 O.3     1  UNL1       -0.4349
     23 C           4.2766   -0.7324   17.8289 C.ar    1  UNL1        0.1606
     24 C           4.1582   -2.1719   18.2337 C.ar    1  UNL1        0.0404
     25 C           5.3768   -3.0459   18.2614 C.ar    1  UNL1        0.0238
     26 C           6.7140   -2.4805   17.8843 C.ar    1  UNL1        0.0987
     27 N           6.8325   -1.0410   17.4795 N.ar    1  UNL1       -0.2451
     28 C           5.6138   -0.1669   17.4518 C.ar    1  UNL1        0.0938
     29 C           5.7323    1.2725   17.0470 C.3     1  UNL1        0.0554
@<TRIPOS>BOND
     1     1     2    1
     2     2     3   ar
     3     3     4   ar
     4     4     5   ar
     5     5     6   ar
     6     6     7   ar
     7     7     8    1
     8     5     9    1
     9     9    10   am
    10    10    11    2
    11    10    12   am
    12    12    16    1
    13    16    17   ar
    14    17    18   ar
    15    18    19   ar
    16    19    22    1
    17    22    23    1
    18    23    24   ar
    19    24    25   ar
    20    25    26   ar
    21    26    27   ar
    22    27    28   ar
    23    28    29    1
    24    19    20   ar
    25    20    21   ar
    26     9    13    1
    27    13    14    1
    28     7     2   ar
    29    21    16   ar
    30    14     4    1
    31    28    23   ar
    32    12    15    1
@<TRIPOS>MOLECULE
*****
 29 32 0 0 0
SMALL
GASTEIGER

@<TRIPOS>ATOM
      1 C          -6.9810    5.1764   21.5821 C.3     1  UNL1        0.0319
      2 C          -5.5743    4.6630   21.6688 C.ar    1  UNL1       -0.0115
      3 C          -4.6970    5.0690   22.8158 C.ar    1  UNL1       -0.0064
      4 C          -3.2903    4.5556   22.9024 C.ar    1  UNL1       -0.0070
      5 C          -2.7609    3.6361   21.8421 C.ar    1  UNL1        0.0522
      6 C          -3.6381    3.2301   20.6951 C.ar    1  UNL1        0.0257
      7 C          -5.0449    3.7436   20.6084 C.ar    1  UNL1        0.0549
      8 CL         -5.9221    3.3376   19.4615 Cl      1  UNL1       -0.0825
      9 N          -1.3431    3.2930   22.1918 N.am    1  UNL1       -0.2430
     10 C          -0.4321    2.3994   21.4035 C.2     1  UNL1        0.3115
     11 O          -0.9210    1.7577   20.1389 O.2     1  UNL1       -0.2519
     12 N           0.9678    2.1476   21.8796 N.am    1  UNL1       -0.2666
     13 C          -0.9964    4.0004   23.4683 C.3     1  UNL1        0.1045
     14 C          -2.1998    4.7807   23.9074 C.3     1  UNL1        0.0495
     15 H           1.2887    2.5688   22.7096 H       1  UNL1        0.1565
     16 C           1.8789    1.2540   21.0913 C.ar    1  UNL1        0.0711
     17 C           1.7120   -0.2351   21.1593 C.ar    1  UNL1        0.0211
     18 C           2.6231   -1.1287   20.3709 C.ar    1  UNL1        0.0594
     19 C           3.7011   -0.5331   19.5147 C.ar    1  UNL1        0.2298
     20 N           3.8681    0.9560   19.4468 N.ar    1  UNL1       -0.2085
     21 C           2.9569    1.8496   20.2351 C.ar    1  UNL1        0.1167
     22 O           4.6122   -1.4266   18.7264 O.3     1  UNL1       -0.4349
     23 C           5.5895   -2.3159   19.4366 C.ar    1  UNL1        0.1606
     24 C           6.8774   -1.7500   19.9571 C.ar    1  UNL1        0.0404
     25 C           7.8546   -2.6391   20.6673 C.ar    1  UNL1        0.0238
     26 C           7.5438   -4.0943   20.8571 C.ar    1  UNL1        0.0987
     27 N           6.2558   -4.6602   20.3366 N.ar    1  UNL1       -0.2451
     28 C           5.2786   -3.7710   19.6264 C.ar    1  UNL1        0.0938
     29 C           3.9907   -4.3369   19.1059 C.3     1  UNL1        0.0554
@<TRIPOS>BOND
     1     1     2    1
     2     2     3   ar
     3     3     4   ar
     4     4     5   ar
     5     5     6   ar
     6     6     7   ar
     7     7     8    1
     8     5     9    1
     9     9    10   am
    10    10    11    2
    11    10    12   am
    12    12    16    1
    13    16    17   ar
    14    17    18   ar
    15    18    19   ar
    16    19    22    1
    17    22    23    1
    18    23    24   ar
    19    24    25   ar
    20    25    26   ar
    21    26    27   ar
    22    27    28   ar
    23    28    29    1
    24    19    20   ar
    25    20    21   ar
    26     9    13    1
    27    13    14    1
    28     7     2   ar
    29    21    16   ar
    30    14     4    1
    31    28    23   ar
    32    12    15    1
