@<TRIPOS>MOLECULE
*****
 32 36 0 0 0
SMALL
GASTEIGER

@<TRIPOS>ATOM
      1 C           5.1653   -0.9132   32.9813 C.ar    1  UNL1        0.0046
      2 C           5.0628   -0.2703   31.6300 C.ar    1  UNL1        0.0015
      3 C           5.4606   -1.0360   30.4031 C.ar    1  UNL1        0.0181
      4 C           5.9610   -2.4446   30.5275 C.ar    1  UNL1        0.0910
      5 C           6.0635   -3.0875   31.8788 C.ar    1  UNL1        0.1522
      6 C           5.6657   -2.3218   33.1057 C.ar    1  UNL1        0.0382
      7 O           6.5639   -4.4961   32.0032 O.3     1  UNL1       -0.4723
      8 C           6.9617   -5.2618   30.7763 C.3     1  UNL1        0.2293
      9 C           6.8592   -4.6189   29.4249 C.3     1  UNL1        0.1691
     10 C           7.1760   -5.1216   28.0476 C.3     1  UNL1        0.2216
     11 O           6.8715   -4.0237   27.0720 O.3     1  UNL1       -0.4336
     12 C           6.3664   -2.8425   27.8463 C.2     1  UNL1        0.4089
     13 O           5.9433   -1.5248   27.2680 O.2     1  UNL1       -0.2258
     14 N           6.3589   -3.2103   29.3005 N.am    1  UNL1       -0.2164
     15 C           3.9718    1.3838   36.6623 C.ar    1  UNL1        0.1400
     16 C           4.9515    0.2529   36.7687 C.ar    1  UNL1        0.0348
     17 C           5.3493   -0.5127   35.5417 C.ar    1  UNL1        0.0044
     18 C           4.7674   -0.1475   34.2083 C.ar    1  UNL1        0.0194
     19 C           3.7878    0.9833   34.1018 C.ar    1  UNL1        0.1003
     20 N           3.3899    1.7490   35.3288 N.ar    1  UNL1       -0.2287
     21 O           1.2387    0.9499   38.3918 O.2     1  UNL1       -0.2258
     22 C           2.3177    1.9500   38.6842 C.2     1  UNL1        0.4099
     23 O           2.3298    2.9262   39.8230 O.3     1  UNL1       -0.4336
     24 C           3.5937    3.7291   39.7318 C.3     1  UNL1        0.2197
     25 C           4.3625    3.2490   38.5367 C.3     1  UNL1        0.1491
     26 N           3.5739    2.1495   37.8892 N.am    1  UNL1       -0.2059
     27 C           4.0146    4.8204   40.6709 C.3     1  UNL1        0.1828
     28 O           3.6578    4.7373   42.1254 O.3     1  UNL1       -0.3785
     29 H           2.6950    4.7989   42.2262 H       1  UNL1        0.2106
     30 C           7.7046   -6.4832   27.7059 C.3     1  UNL1        0.1828
     31 O           6.8816   -7.4197   26.8719 O.3     1  UNL1       -0.3785
     32 H           6.0841   -7.6735   27.3623 H       1  UNL1        0.2106
@<TRIPOS>BOND
     1    21    22    2
     2    22    23    1
     3    23    24    1
     4    24    27    1
     5    27    28    1
     6    24    25    1
     7    25    26    1
     8    26    15    1
     9    15    16   ar
    10    16    17   ar
    11    17    18   ar
    12    18     1    1
    13     1     2   ar
    14     2     3   ar
    15     3     4   ar
    16     4     5   ar
    17     5     6   ar
    18     5     7    1
    19     7     8    1
    20     9     8    1
    21     9    10    1
    22    10    30    1
    23    30    31    1
    24    10    11    1
    25    11    12    1
    26    12    13    2
    27    12    14   am
    28    18    19   ar
    29    19    20   ar
    30    26    22   am
    31    20    15   ar
    32     6     1   ar
    33    14     9    1
    34    14     4    1
    35    28    29    1
    36    31    32    1
@<TRIPOS>MOLECULE
*****
 32 36 0 0 0
SMALL
GASTEIGER

@<TRIPOS>ATOM
      1 C           4.0439   -1.0357   26.7784 C.ar    1  UNL1        0.0046
      2 C           2.9058   -0.2492   27.3580 C.ar    1  UNL1        0.0015
      3 C           2.8417   -0.0007   28.8359 C.ar    1  UNL1        0.0181
      4 C           3.9157   -0.5388   29.7342 C.ar    1  UNL1        0.0910
      5 C           5.0539   -1.3253   29.1546 C.ar    1  UNL1        0.1522
      6 C           5.1180   -1.5738   27.6767 C.ar    1  UNL1        0.0382
      7 O           6.1279   -1.8634   30.0529 O.3     1  UNL1       -0.4723
      8 C           6.0638   -1.6150   31.5307 C.3     1  UNL1        0.2293
      9 C           4.9256   -0.8284   32.1104 C.3     1  UNL1        0.1691
     10 C           4.5973   -0.4263   33.5177 C.3     1  UNL1        0.2216
     11 O           3.3205    0.3602   33.4892 O.3     1  UNL1       -0.4336
     12 C           2.8595    0.4443   32.0643 C.2     1  UNL1        0.4089
     13 O           1.6236    1.1407   31.5770 O.2     1  UNL1       -0.2258
     14 N           3.8516   -0.2903   31.2121 N.am    1  UNL1       -0.2164
     15 C           4.2363   -1.7811   22.3447 C.ar    1  UNL1        0.1400
     16 C           3.1737   -0.8855   22.9093 C.ar    1  UNL1        0.0348
     17 C           3.1096   -0.6370   24.3872 C.ar    1  UNL1        0.0044
     18 C           4.1081   -1.2842   25.3005 C.ar    1  UNL1        0.0194
     19 C           5.1707   -2.1798   24.7360 C.ar    1  UNL1        0.1003
     20 N           5.2348   -2.4283   23.2580 N.ar    1  UNL1       -0.2287
     21 O           4.2325   -4.7016   20.8887 O.2     1  UNL1       -0.2258
     22 C           4.2987   -3.3720   20.1976 C.2     1  UNL1        0.4099
     23 O           4.3747   -3.1513   18.7159 O.3     1  UNL1       -0.4336
     24 C           4.4235   -1.6725   18.4693 C.3     1  UNL1        0.2197
     25 C           4.3776   -0.9792   19.7987 C.3     1  UNL1        0.1491
     26 N           4.3004   -2.0296   20.8668 N.am    1  UNL1       -0.2059
     27 C           4.5040   -1.0043   17.1288 C.3     1  UNL1        0.1828
     28 O           3.5630   -1.4070   16.0323 O.3     1  UNL1       -0.3785
     29 H           3.7465   -2.3223   15.7687 H       1  UNL1        0.2106
     30 C           5.4043   -0.7535   34.7391 C.3     1  UNL1        0.1828
     31 O           4.8119   -0.5599   36.1035 O.3     1  UNL1       -0.3785
     32 H           4.6589    0.3854   36.2584 H       1  UNL1        0.2106
@<TRIPOS>BOND
     1    21    22    2
     2    22    23    1
     3    23    24    1
     4    24    27    1
     5    27    28    1
     6    24    25    1
     7    25    26    1
     8    26    15    1
     9    15    16   ar
    10    16    17   ar
    11    17    18   ar
    12    18     1    1
    13     1     2   ar
    14     2     3   ar
    15     3     4   ar
    16     4     5   ar
    17     5     6   ar
    18     5     7    1
    19     7     8    1
    20     9     8    1
    21     9    10    1
    22    10    30    1
    23    30    31    1
    24    10    11    1
    25    11    12    1
    26    12    13    2
    27    12    14   am
    28    18    19   ar
    29    19    20   ar
    30    26    22   am
    31    20    15   ar
    32     6     1   ar
    33    14     9    1
    34    14     4    1
    35    28    29    1
    36    31    32    1
@<TRIPOS>MOLECULE
*****
 32 36 0 0 0
SMALL
GASTEIGER

@<TRIPOS>ATOM
      1 C          -0.9491    2.4560   26.7302 C.ar    1  UNL1        0.0046
      2 C          -0.3632    2.5764   25.3547 C.ar    1  UNL1        0.0015
      3 C          -1.2076    3.0781   24.2211 C.ar    1  UNL1        0.0181
      4 C          -2.6381    3.4592   24.4630 C.ar    1  UNL1        0.0910
      5 C          -3.2241    3.3387   25.8385 C.ar    1  UNL1        0.1522
      6 C          -2.3796    2.8371   26.9721 C.ar    1  UNL1        0.0382
      7 O          -4.6545    3.7199   26.0804 O.3     1  UNL1       -0.4723
      8 C          -5.4990    4.2215   24.9467 C.3     1  UNL1        0.2293
      9 C          -4.9131    4.3420   23.5711 C.3     1  UNL1        0.1691
     10 C          -5.4970    4.8014   22.2681 C.3     1  UNL1        0.2216
     11 O          -4.4275    4.7041   21.2209 O.3     1  UNL1       -0.4336
     12 C          -3.1826    4.1847   21.8767 C.2     1  UNL1        0.4089
     13 O          -1.8682    3.9332   21.1990 O.2     1  UNL1       -0.2258
     14 N          -3.4826    3.9609   23.3292 N.am    1  UNL1       -0.2164
     15 C           1.5844    0.9511   30.1313 C.ar    1  UNL1        0.1400
     16 C           2.0087    2.1658   29.3603 C.ar    1  UNL1        0.0348
     17 C           1.1642    2.6674   28.2266 C.ar    1  UNL1        0.0044
     18 C          -0.1046    1.9543   27.8639 C.ar    1  UNL1        0.0194
     19 C          -0.5290    0.7397   28.6349 C.ar    1  UNL1        0.1003
     20 N           0.3155    0.2380   29.7687 N.ar    1  UNL1       -0.2287
     21 O           2.1830    2.5319   32.9227 O.2     1  UNL1       -0.2258
     22 C           2.7040    1.1761   32.5480 C.2     1  UNL1        0.4099
     23 O           3.5917    0.3090   33.3907 O.3     1  UNL1       -0.4336
     24 C           3.8652   -0.9537   32.6284 C.3     1  UNL1        0.2197
     25 C           3.1465   -0.8668   31.3146 C.3     1  UNL1        0.1491
     26 N           2.4289    0.4495   31.2650 N.am    1  UNL1       -0.2059
     27 C           4.7091   -2.1016   33.0975 C.3     1  UNL1        0.1828
     28 O           4.0730   -3.4262   33.3988 O.3     1  UNL1       -0.3785
     29 H           3.4832   -3.3351   34.1636 H       1  UNL1        0.2106
     30 C          -6.9036    5.2749   22.0505 C.3     1  UNL1        0.1828
     31 O          -8.0540    4.4893   22.6068 O.3     1  UNL1       -0.3785
     32 H          -8.1021    3.6281   22.1630 H       1  UNL1        0.2106
@<TRIPOS>BOND
     1    21    22    2
     2    22    23    1
     3    23    24    1
     4    24    27    1
     5    27    28    1
     6    24    25    1
     7    25    26    1
     8    26    15    1
     9    15    16   ar
    10    16    17   ar
    11    17    18   ar
    12    18     1    1
    13     1     2   ar
    14     2     3   ar
    15     3     4   ar
    16     4     5   ar
    17     5     6   ar
    18     5     7    1
    19     7     8    1
    20     9     8    1
    21     9    10    1
    22    10    30    1
    23    30    31    1
    24    10    11    1
    25    11    12    1
    26    12    13    2
    27    12    14   am
    28    18    19   ar
    29    19    20   ar
    30    26    22   am
    31    20    15   ar
    32     6     1   ar
    33    14     9    1
    34    14     4    1
    35    28    29    1
    36    31    32    1
@<TRIPOS>MOLECULE
*****
 32 36 0 0 0
SMALL
GASTEIGER

@<TRIPOS>ATOM
      1 C           5.0820   -1.1063   32.5418 C.ar    1  UNL1        0.0046
      2 C           4.1791   -0.0439   31.9886 C.ar    1  UNL1        0.0015
      3 C           3.5209    0.9369   32.9131 C.ar    1  UNL1        0.0181
      4 C           3.7656    0.8555   34.3907 C.ar    1  UNL1        0.0910
      5 C           4.6685   -0.2069   34.9439 C.ar    1  UNL1        0.1522
      6 C           5.3268   -1.1877   34.0195 C.ar    1  UNL1        0.0382
      7 O           4.9133   -0.2883   36.4216 O.3     1  UNL1       -0.4723
      8 C           4.2551    0.6925   37.3460 C.3     1  UNL1        0.2293
      9 C           3.3521    1.7549   36.7928 C.3     1  UNL1        0.1691
     10 C           2.5704    2.8517   37.4532 C.3     1  UNL1        0.2216
     11 O           1.8427    3.6109   36.3838 O.3     1  UNL1       -0.4336
     12 C           2.1745    2.9835   35.0624 C.2     1  UNL1        0.4089
     13 O           1.6632    3.4255   33.7233 O.2     1  UNL1       -0.2258
     14 N           3.1073    1.8364   35.3152 N.am    1  UNL1       -0.2164
     15 C           7.0568   -4.0490   29.7686 C.ar    1  UNL1        0.1400
     16 C           6.9407   -4.3588   31.2317 C.ar    1  UNL1        0.0348
     17 C           6.2824   -3.3779   32.1561 C.ar    1  UNL1        0.0044
     18 C           5.7403   -2.0872   31.6174 C.ar    1  UNL1        0.0194
     19 C           5.8564   -1.7774   30.1544 C.ar    1  UNL1        0.1003
     20 N           6.5147   -2.7583   29.2299 N.ar    1  UNL1       -0.2287
     21 O           8.9274   -3.3062   27.1999 O.2     1  UNL1       -0.2258
     22 C           8.5749   -4.6885   27.6635 C.2     1  UNL1        0.4099
     23 O           9.0203   -5.9720   27.0278 O.3     1  UNL1       -0.4336
     24 C           8.4357   -7.1068   27.8157 C.3     1  UNL1        0.2197
     25 C           7.6291   -6.5245   28.9383 C.3     1  UNL1        0.1491
     26 N           7.7151   -5.0299   28.8442 N.am    1  UNL1       -0.2059
     27 C           8.6247   -8.5674   27.5309 C.3     1  UNL1        0.1828
     28 O           7.4306   -9.4617   27.3747 O.3     1  UNL1       -0.3785
     29 H           6.9582   -9.5209   28.2199 H       1  UNL1        0.2106
     30 C           2.5247    3.1387   38.9248 C.3     1  UNL1        0.1828
     31 O           1.7488    2.2391   39.8406 O.3     1  UNL1       -0.3785
     32 H           0.8035    2.3041   39.6331 H       1  UNL1        0.2106
@<TRIPOS>BOND
     1    21    22    2
     2    22    23    1
     3    23    24    1
     4    24    27    1
     5    27    28    1
     6    24    25    1
     7    25    26    1
     8    26    15    1
     9    15    16   ar
    10    16    17   ar
    11    17    18   ar
    12    18     1    1
    13     1     2   ar
    14     2     3   ar
    15     3     4   ar
    16     4     5   ar
    17     5     6   ar
    18     5     7    1
    19     7     8    1
    20     9     8    1
    21     9    10    1
    22    10    30    1
    23    30    31    1
    24    10    11    1
    25    11    12    1
    26    12    13    2
    27    12    14   am
    28    18    19   ar
    29    19    20   ar
    30    26    22   am
    31    20    15   ar
    32     6     1   ar
    33    14     9    1
    34    14     4    1
    35    28    29    1
    36    31    32    1
@<TRIPOS>MOLECULE
*****
 32 36 0 0 0
SMALL
GASTEIGER

@<TRIPOS>ATOM
      1 C           0.9406    1.4454   20.5389 C.ar    1  UNL1        0.0046
      2 C           0.9620    1.0839   19.0834 C.ar    1  UNL1        0.0015
      3 C           2.1421    0.3584   18.5081 C.ar    1  UNL1        0.0181
      4 C           3.3008   -0.0056   19.3884 C.ar    1  UNL1        0.0910
      5 C           3.2794    0.3559   20.8440 C.ar    1  UNL1        0.1522
      6 C           2.0993    1.0814   21.4193 C.ar    1  UNL1        0.0382
      7 O           4.4381   -0.0081   21.7243 O.3     1  UNL1       -0.4723
      8 C           5.6182   -0.7336   21.1490 C.3     1  UNL1        0.2293
      9 C           5.6396   -1.0951   19.6934 C.3     1  UNL1        0.1691
     10 C           6.6574   -1.8045   18.8502 C.3     1  UNL1        0.2216
     11 O           6.1277   -1.8789   17.4489 O.3     1  UNL1       -0.4336
     12 C           4.7827   -1.2156   17.4259 C.2     1  UNL1        0.4089
     13 O           3.8950   -1.0633   16.2263 O.2     1  UNL1       -0.2258
     14 N           4.4809   -0.7311   18.8131 N.am    1  UNL1       -0.2164
     15 C          -2.5997    3.6219   22.2650 C.ar    1  UNL1        0.1400
     16 C          -1.3937    3.3575   23.1168 C.ar    1  UNL1        0.0348
     17 C          -0.2136    2.6320   22.5414 C.ar    1  UNL1        0.0044
     18 C          -0.2396    2.1709   21.1143 C.ar    1  UNL1        0.0194
     19 C          -1.4456    2.4353   20.2625 C.ar    1  UNL1        0.1003
     20 N          -2.6257    3.1609   20.8379 N.ar    1  UNL1       -0.2287
     21 O          -2.6652    6.7526   23.1836 O.2     1  UNL1       -0.2258
     22 C          -3.8099    5.7864   23.2626 C.2     1  UNL1        0.4099
     23 O          -5.1856    6.0897   23.7777 O.3     1  UNL1       -0.4336
     24 C          -6.0059    4.8381   23.6738 C.3     1  UNL1        0.2197
     25 C          -5.1370    3.7613   23.0945 C.3     1  UNL1        0.1491
     26 N          -3.7798    4.3474   22.8404 N.am    1  UNL1       -0.2059
     27 C          -7.4426    4.6894   24.0782 C.3     1  UNL1        0.1828
     28 O          -8.3588    3.8087   23.2813 O.3     1  UNL1       -0.3785
     29 H          -8.4777    4.1840   22.3948 H       1  UNL1        0.2106
     30 C           7.9738   -2.3446   19.3251 C.3     1  UNL1        0.1828
     31 O           8.0132   -3.3665   20.4224 O.3     1  UNL1       -0.3785
     32 H           7.6943   -2.9678   21.2472 H       1  UNL1        0.2106
@<TRIPOS>BOND
     1    21    22    2
     2    22    23    1
     3    23    24    1
     4    24    27    1
     5    27    28    1
     6    24    25    1
     7    25    26    1
     8    26    15    1
     9    15    16   ar
    10    16    17   ar
    11    17    18   ar
    12    18     1    1
    13     1     2   ar
    14     2     3   ar
    15     3     4   ar
    16     4     5   ar
    17     5     6   ar
    18     5     7    1
    19     7     8    1
    20     9     8    1
    21     9    10    1
    22    10    30    1
    23    30    31    1
    24    10    11    1
    25    11    12    1
    26    12    13    2
    27    12    14   am
    28    18    19   ar
    29    19    20   ar
    30    26    22   am
    31    20    15   ar
    32     6     1   ar
    33    14     9    1
    34    14     4    1
    35    28    29    1
    36    31    32    1
@<TRIPOS>MOLECULE
*****
 32 36 0 0 0
SMALL
GASTEIGER

@<TRIPOS>ATOM
      1 C           1.4633    1.7365   30.8026 C.ar    1  UNL1        0.0046
      2 C           2.4245    0.5856   30.7668 C.ar    1  UNL1        0.0015
      3 C           3.1994    0.2172   31.9972 C.ar    1  UNL1        0.0181
      4 C           3.0130    0.9997   33.2632 C.ar    1  UNL1        0.0910
      5 C           2.0518    2.1507   33.2990 C.ar    1  UNL1        0.1522
      6 C           1.2769    2.5191   32.0686 C.ar    1  UNL1        0.0382
      7 O           1.8655    2.9332   34.5650 O.3     1  UNL1       -0.4723
      8 C           2.6404    2.5648   35.7954 C.3     1  UNL1        0.2293
      9 C           3.6017    1.4138   35.7597 C.3     1  UNL1        0.1691
     10 C           4.4974    0.8213   36.8069 C.3     1  UNL1        0.2216
     11 O           5.2373   -0.3274   36.1880 O.3     1  UNL1       -0.4336
     12 C           4.7989   -0.4449   34.7584 C.2     1  UNL1        0.4089
     13 O           5.2858   -1.4602   33.7674 O.2     1  UNL1       -0.2258
     14 N           3.7880    0.6312   34.4936 N.am    1  UNL1       -0.2164
     15 C          -0.8615    2.8419   27.1115 C.ar    1  UNL1        0.1400
     16 C          -0.8419    1.4195   27.5876 C.ar    1  UNL1        0.0348
     17 C          -0.0670    1.0511   28.8180 C.ar    1  UNL1        0.0044
     18 C           0.6883    2.1050   29.5722 C.ar    1  UNL1        0.0194
     19 C           0.6687    3.5273   29.0961 C.ar    1  UNL1        0.1003
     20 N          -0.1062    3.8957   27.8657 N.ar    1  UNL1       -0.2287
     21 O          -3.9612    3.8592   27.0299 O.2     1  UNL1       -0.2258
     22 C          -3.0612    3.6779   25.8437 C.2     1  UNL1        0.4099
     23 O          -3.4280    3.9324   24.4117 O.3     1  UNL1       -0.4336
     24 C          -2.2299    3.6220   23.5641 C.3     1  UNL1        0.2197
     25 C          -1.1227    3.1758   24.4723 C.3     1  UNL1        0.1491
     26 N          -1.6365    3.2103   25.8812 N.am    1  UNL1       -0.2059
     27 C          -2.1527    3.7377   22.0705 C.3     1  UNL1        0.1828
     28 O          -3.0690    2.9226   21.2068 O.3     1  UNL1       -0.3785
     29 H          -2.8565    1.9816   21.3079 H       1  UNL1        0.2106
     30 C           4.6299    1.2945   38.2241 C.3     1  UNL1        0.1828
     31 O           3.4959    1.1044   39.1874 O.3     1  UNL1       -0.3785
     32 H           2.7395    1.6428   38.9066 H       1  UNL1        0.2106
@<TRIPOS>BOND
     1    21    22    2
     2    22    23    1
     3    23    24    1
     4    24    27    1
     5    27    28    1
     6    24    25    1
     7    25    26    1
     8    26    15    1
     9    15    16   ar
    10    16    17   ar
    11    17    18   ar
    12    18     1    1
    13     1     2   ar
    14     2     3   ar
    15     3     4   ar
    16     4     5   ar
    17     5     6   ar
    18     5     7    1
    19     7     8    1
    20     9     8    1
    21     9    10    1
    22    10    30    1
    23    30    31    1
    24    10    11    1
    25    11    12    1
    26    12    13    2
    27    12    14   am
    28    18    19   ar
    29    19    20   ar
    30    26    22   am
    31    20    15   ar
    32     6     1   ar
    33    14     9    1
    34    14     4    1
    35    28    29    1
    36    31    32    1
@<TRIPOS>MOLECULE
*****
 32 36 0 0 0
SMALL
GASTEIGER

@<TRIPOS>ATOM
      1 C           6.3024   -3.0723   30.6793 C.ar    1  UNL1        0.0046
      2 C           6.8577   -4.4347   30.9714 C.ar    1  UNL1        0.0015
      3 C           7.3206   -5.3128   29.8468 C.ar    1  UNL1        0.0181
      4 C           7.2283   -4.8284   28.4302 C.ar    1  UNL1        0.0910
      5 C           6.6730   -3.4659   28.1381 C.ar    1  UNL1        0.1522
      6 C           6.2101   -2.5879   29.2627 C.ar    1  UNL1        0.0382
      7 O           6.5807   -2.9815   26.7215 O.3     1  UNL1       -0.4723
      8 C           7.0436   -3.8596   25.5969 C.3     1  UNL1        0.2293
      9 C           7.5989   -5.2221   25.8890 C.3     1  UNL1        0.1691
     10 C           8.1295   -6.3027   24.9941 C.3     1  UNL1        0.2216
     11 O           8.5497   -7.4549   25.8577 O.3     1  UNL1       -0.4336
     12 C           8.2789   -7.0865   27.2862 C.2     1  UNL1        0.4089
     13 O           8.5484   -7.9469   28.4850 O.2     1  UNL1       -0.2258
     14 N           7.6913   -5.7065   27.3056 N.am    1  UNL1       -0.2164
     15 C           4.9134   -0.4380   34.0530 C.ar    1  UNL1        0.1400
     16 C           4.3921   -1.8393   33.9321 C.ar    1  UNL1        0.0348
     17 C           4.8551   -2.7174   32.8076 C.ar    1  UNL1        0.0044
     18 C           5.8394   -2.1942   31.8039 C.ar    1  UNL1        0.0194
     19 C           6.3607   -0.7929   31.9247 C.ar    1  UNL1        0.1003
     20 N           5.8977    0.0852   33.0493 N.ar    1  UNL1       -0.2287
     21 O           3.5981    2.5331   33.7501 O.2     1  UNL1       -0.2258
     22 C           3.8458    1.8057   35.0383 C.2     1  UNL1        0.4099
     23 O           3.5325    2.3163   36.4135 O.3     1  UNL1       -0.4336
     24 C           3.9435    1.2662   37.4027 C.3     1  UNL1        0.2197
     25 C           4.5108    0.1066   36.6388 C.3     1  UNL1        0.1491
     26 N           4.4504    0.4401   35.1776 N.am    1  UNL1       -0.2059
     27 C           3.8104    1.3593   38.8938 C.3     1  UNL1        0.1828
     28 O           2.9584    0.3713   39.6340 O.3     1  UNL1       -0.3785
     29 H           2.0299    0.4911   39.3804 H       1  UNL1        0.2106
     30 C           8.2234   -6.2417   23.4983 C.3     1  UNL1        0.1828
     31 O           8.7783   -7.4067   22.7335 O.3     1  UNL1       -0.3785
     32 H           9.7171   -7.5183   22.9506 H       1  UNL1        0.2106
@<TRIPOS>BOND
     1    21    22    2
     2    22    23    1
     3    23    24    1
     4    24    27    1
     5    27    28    1
     6    24    25    1
     7    25    26    1
     8    26    15    1
     9    15    16   ar
    10    16    17   ar
    11    17    18   ar
    12    18     1    1
    13     1     2   ar
    14     2     3   ar
    15     3     4   ar
    16     4     5   ar
    17     5     6   ar
    18     5     7    1
    19     7     8    1
    20     9     8    1
    21     9    10    1
    22    10    30    1
    23    30    31    1
    24    10    11    1
    25    11    12    1
    26    12    13    2
    27    12    14   am
    28    18    19   ar
    29    19    20   ar
    30    26    22   am
    31    20    15   ar
    32     6     1   ar
    33    14     9    1
    34    14     4    1
    35    28    29    1
    36    31    32    1
@<TRIPOS>MOLECULE
*****
 32 36 0 0 0
SMALL
GASTEIGER

@<TRIPOS>ATOM
      1 C           1.8937    0.8447   19.5890 C.ar    1  UNL1        0.0046
      2 C           2.7963    0.7979   18.3919 C.ar    1  UNL1        0.0015
      3 C           4.0132   -0.0789   18.4040 C.ar    1  UNL1        0.0181
      4 C           4.3276   -0.9090   19.6132 C.ar    1  UNL1        0.0910
      5 C           3.4250   -0.8622   20.8103 C.ar    1  UNL1        0.1522
      6 C           2.2081    0.0147   20.7982 C.ar    1  UNL1        0.0382
      7 O           3.7394   -1.6922   22.0196 O.3     1  UNL1       -0.4723
      8 C           4.9563   -2.5691   22.0317 C.3     1  UNL1        0.2293
      9 C           5.8589   -2.6159   20.8345 C.3     1  UNL1        0.1691
     10 C           7.1199   -3.3796   20.5574 C.3     1  UNL1        0.2216
     11 O           7.5848   -3.0215   19.1771 O.3     1  UNL1       -0.4336
     12 C           6.6113   -2.0366   18.6009 C.2     1  UNL1        0.4089
     13 O           6.6904   -1.4119   17.2395 O.2     1  UNL1       -0.2258
     14 N           5.5446   -1.7859   19.6253 N.am    1  UNL1       -0.2164
     15 C          -1.7572    3.4753   19.5528 C.ar    1  UNL1        0.1400
     16 C          -0.8089    3.4923   18.3907 C.ar    1  UNL1        0.0348
     17 C           0.4080    2.6155   18.4028 C.ar    1  UNL1        0.0044
     18 C           0.6767    1.7216   19.5770 C.ar    1  UNL1        0.0194
     19 C          -0.2715    1.7046   20.7391 C.ar    1  UNL1        0.1003
     20 N          -1.4885    2.5814   20.7270 N.ar    1  UNL1       -0.2287
     21 O          -1.7702    6.7386   19.5630 O.2     1  UNL1       -0.2258
     22 C          -2.9801    5.8521   19.5454 C.2     1  UNL1        0.4099
     23 O          -4.4084    6.3100   19.5294 O.3     1  UNL1       -0.4336
     24 C          -5.2852    5.0930   19.5149 C.3     1  UNL1        0.2197
     25 C          -4.3987    3.8830   19.5219 C.3     1  UNL1        0.1491
     26 N          -2.9741    4.3522   19.5407 N.am    1  UNL1       -0.2059
     27 C          -6.7850    5.0871   19.4965 C.3     1  UNL1        0.1828
     28 O          -7.5490    4.7414   20.7403 O.3     1  UNL1       -0.3785
     29 H          -7.3858    3.8139   20.9726 H       1  UNL1        0.2106
     30 C           7.7970   -4.3338   21.4961 C.3     1  UNL1        0.1828
     31 O           8.2378   -5.6815   21.0066 O.3     1  UNL1       -0.3785
     32 H           7.4595   -6.2103   20.7711 H       1  UNL1        0.2106
@<TRIPOS>BOND
     1    21    22    2
     2    22    23    1
     3    23    24    1
     4    24    27    1
     5    27    28    1
     6    24    25    1
     7    25    26    1
     8    26    15    1
     9    15    16   ar
    10    16    17   ar
    11    17    18   ar
    12    18     1    1
    13     1     2   ar
    14     2     3   ar
    15     3     4   ar
    16     4     5   ar
    17     5     6   ar
    18     5     7    1
    19     7     8    1
    20     9     8    1
    21     9    10    1
    22    10    30    1
    23    30    31    1
    24    10    11    1
    25    11    12    1
    26    12    13    2
    27    12    14   am
    28    18    19   ar
    29    19    20   ar
    30    26    22   am
    31    20    15   ar
    32     6     1   ar
    33    14     9    1
    34    14     4    1
    35    28    29    1
    36    31    32    1
@<TRIPOS>MOLECULE
*****
 32 36 0 0 0
SMALL
GASTEIGER

@<TRIPOS>ATOM
      1 C          -1.0909    2.4593   26.2638 C.ar    1  UNL1        0.0046
      2 C          -0.8078    2.7005   24.8107 C.ar    1  UNL1        0.0015
      3 C          -1.8291    3.3845   23.9510 C.ar    1  UNL1        0.0181
      4 C          -3.1336    3.8273   24.5446 C.ar    1  UNL1        0.0910
      5 C          -3.4167    3.5861   25.9977 C.ar    1  UNL1        0.1522
      6 C          -2.3954    2.9021   26.8573 C.ar    1  UNL1        0.0382
      7 O          -4.7212    4.0289   26.5912 O.3     1  UNL1       -0.4723
      8 C          -5.7426    4.7129   25.7316 C.3     1  UNL1        0.2293
      9 C          -5.4594    4.9541   24.2784 C.3     1  UNL1        0.1691
     10 C          -6.2679    5.5990   23.1918 C.3     1  UNL1        0.2216
     11 O          -5.4630    5.5547   21.9269 O.3     1  UNL1       -0.4336
     12 C          -4.1572    4.8825   22.2315 C.2     1  UNL1        0.4089
     13 O          -3.0483    4.6264   21.2544 O.2     1  UNL1       -0.2258
     14 N          -4.1549    4.5113   23.6849 N.am    1  UNL1       -0.2164
     15 C           1.9730    0.4071   28.8428 C.ar    1  UNL1        0.1400
     16 C           0.5546   -0.0808   28.8309 C.ar    1  UNL1        0.0348
     17 C          -0.4666    0.6032   27.9712 C.ar    1  UNL1        0.0044
     18 C          -0.0696    1.7752   27.1235 C.ar    1  UNL1        0.0194
     19 C           1.3487    2.2632   27.1354 C.ar    1  UNL1        0.1003
     20 N           2.3701    1.5792   27.9951 N.ar    1  UNL1       -0.2287
     21 O           4.9216   -0.6068   27.8800 O.2     1  UNL1       -0.2258
     22 C           4.3496   -0.7430   29.2599 C.2     1  UNL1        0.4099
     23 O           5.0325   -1.3691   30.4395 O.3     1  UNL1       -0.4336
     24 C           4.0993   -1.2900   31.6113 C.3     1  UNL1        0.2197
     25 C           2.8396   -0.6149   31.1557 C.3     1  UNL1        0.1491
     26 N           2.9943   -0.2769   29.7025 N.am    1  UNL1       -0.2059
     27 C           4.3770   -1.7969   32.9954 C.3     1  UNL1        0.1828
     28 O           3.9111   -3.1638   33.4011 O.3     1  UNL1       -0.3785
     29 H           2.9414   -3.1849   33.4120 H       1  UNL1        0.2106
     30 C          -7.6402    6.1852   23.3437 C.3     1  UNL1        0.1828
     31 O          -8.7801    5.3195   23.7921 O.3     1  UNL1       -0.3785
     32 H          -8.9637    4.6500   23.1147 H       1  UNL1        0.2106
@<TRIPOS>BOND
     1    21    22    2
     2    22    23    1
     3    23    24    1
     4    24    27    1
     5    27    28    1
     6    24    25    1
     7    25    26    1
     8    26    15    1
     9    15    16   ar
    10    16    17   ar
    11    17    18   ar
    12    18     1    1
    13     1     2   ar
    14     2     3   ar
    15     3     4   ar
    16     4     5   ar
    17     5     6   ar
    18     5     7    1
    19     7     8    1
    20     9     8    1
    21     9    10    1
    22    10    30    1
    23    30    31    1
    24    10    11    1
    25    11    12    1
    26    12    13    2
    27    12    14   am
    28    18    19   ar
    29    19    20   ar
    30    26    22   am
    31    20    15   ar
    32     6     1   ar
    33    14     9    1
    34    14     4    1
    35    28    29    1
    36    31    32    1
