@<TRIPOS>MOLECULE
*****
 32 34 0 0 0
SMALL
GASTEIGER

@<TRIPOS>ATOM
      1 N          -1.0704    2.3082   20.4169 N.am    1  UNL1       -0.2836
      2 C          -0.8532    3.7560   20.7435 C.2     1  UNL1        0.2305
      3 O           0.5262    4.3414   20.6756 O.2     1  UNL1       -0.2744
      4 H          -1.9757    1.9239   20.4614 H       1  UNL1        0.1549
      5 C           2.4161   -0.2792   19.2337 C.ar    1  UNL1        0.0002
      6 C           1.7026   -0.5287   20.5293 C.ar    1  UNL1        0.0013
      7 C           0.5404    0.3337   20.9237 C.ar    1  UNL1        0.0147
      8 C           0.0917    1.4457   20.0225 C.ar    1  UNL1        0.0503
      9 C           0.8053    1.6953   18.7269 C.ar    1  UNL1        0.0147
     10 C           1.9675    0.8328   18.3325 C.ar    1  UNL1        0.0013
     11 C           4.6183   -4.9715   18.8692 C.3     1  UNL1        0.0521
     12 C           4.6793   -3.4878   18.6571 C.ar    1  UNL1        0.0594
     13 C           3.5172   -2.6253   19.0514 C.ar    1  UNL1        0.0147
     14 C           3.5783   -1.1417   18.8393 C.ar    1  UNL1        0.0027
     15 C           4.8015   -0.5205   18.2328 C.ar    1  UNL1        0.0207
     16 C           5.9636   -1.3830   17.8385 C.ar    1  UNL1        0.0984
     17 N           5.9025   -2.8666   18.0506 N.ar    1  UNL1       -0.2481
     18 C          -2.0153    4.6184   21.1379 C.3     1  UNL1        0.1116
     19 C          -2.8380    4.2640   22.3411 C.ar    1  UNL1       -0.0132
     20 C          -2.1652    3.8095   23.6023 C.ar    1  UNL1        0.0001
     21 C          -2.9878    3.4551   24.8055 C.ar    1  UNL1        0.0711
     22 C          -4.4833    3.5554   24.7475 C.ar    1  UNL1        0.0077
     23 C          -5.1562    4.0099   23.4862 C.ar    1  UNL1        0.0711
     24 C          -4.3336    4.3643   22.2830 C.ar    1  UNL1        0.0001
     25 C          -2.3150    3.0006   26.0666 C.3     1  UNL1        0.4186
     26 F          -1.6421    2.5460   27.3279 F       1  UNL1       -0.1659
     27 F          -3.4377    3.5806   26.8747 F       1  UNL1       -0.1659
     28 F          -1.1922    2.4206   25.2586 F       1  UNL1       -0.1659
     29 C          -6.6517    4.1101   23.4283 C.3     1  UNL1        0.4186
     30 F          -8.1472    4.2104   23.3703 F       1  UNL1       -0.1659
     31 F          -6.6090    3.8900   21.9452 F       1  UNL1       -0.1659
     32 F          -6.6945    4.3303   24.9114 F       1  UNL1       -0.1659
@<TRIPOS>BOND
     1    11    12    1
     2    12    13   ar
     3    13    14   ar
     4    14     5    1
     5     5     6   ar
     6     6     7   ar
     7     7     8   ar
     8     8     1    1
     9     1     2   am
    10     2     3    2
    11     2    18    1
    12    18    19    1
    13    19    20   ar
    14    20    21   ar
    15    21    25    1
    16    25    26    1
    17    25    27    1
    18    25    28    1
    19    21    22   ar
    20    22    23   ar
    21    23    29    1
    22    29    30    1
    23    29    31    1
    24    29    32    1
    25    23    24   ar
    26     8     9   ar
    27     9    10   ar
    28    14    15   ar
    29    15    16   ar
    30    16    17   ar
    31    17    12   ar
    32    10     5   ar
    33    24    19   ar
    34     1     4    1
@<TRIPOS>MOLECULE
*****
 32 34 0 0 0
SMALL
GASTEIGER

@<TRIPOS>ATOM
      1 N          -1.0762    2.3001   20.3403 N.am    1  UNL1       -0.2836
      2 C          -0.8554    3.7250   20.7536 C.2     1  UNL1        0.2305
      3 O           0.5341    4.2890   20.7889 O.2     1  UNL1       -0.2744
      4 H          -1.9882    1.9300   20.3171 H       1  UNL1        0.1549
      5 C           2.4298   -0.2829   19.2063 C.ar    1  UNL1        0.0002
      6 C           1.7021   -0.5296   20.4945 C.ar    1  UNL1        0.0013
      7 C           0.5334    0.3313   20.8725 C.ar    1  UNL1        0.0147
      8 C           0.0924    1.4391   19.9623 C.ar    1  UNL1        0.0503
      9 C           0.8202    1.6859   18.6740 C.ar    1  UNL1        0.0147
     10 C           1.9889    0.8248   18.2961 C.ar    1  UNL1        0.0013
     11 C           4.6309   -4.9759   18.8443 C.3     1  UNL1        0.0521
     12 C           4.6990   -3.4904   18.6473 C.ar    1  UNL1        0.0594
     13 C           3.5304   -2.6294   19.0253 C.ar    1  UNL1        0.0147
     14 C           3.5985   -1.1440   18.8283 C.ar    1  UNL1        0.0027
     15 C           4.8352   -0.5195   18.2533 C.ar    1  UNL1        0.0207
     16 C           6.0038   -1.3806   17.8753 C.ar    1  UNL1        0.0984
     17 N           5.9357   -2.8660   18.0724 N.ar    1  UNL1       -0.2481
     18 C          -2.0240    4.5860   21.1316 C.3     1  UNL1        0.1116
     19 C          -2.8463    4.2463   22.3393 C.ar    1  UNL1       -0.0132
     20 C          -4.3406    4.3650   22.2868 C.ar    1  UNL1        0.0001
     21 C          -5.1628    4.0254   23.4945 C.ar    1  UNL1        0.0711
     22 C          -4.4907    3.5670   24.7547 C.ar    1  UNL1        0.0077
     23 C          -2.9963    3.4483   24.8073 C.ar    1  UNL1        0.0711
     24 C          -2.1741    3.7880   23.5996 C.ar    1  UNL1        0.0001
     25 C          -6.6572    4.1440   23.4420 C.3     1  UNL1        0.4186
     26 F          -8.1516    4.2627   23.3896 F       1  UNL1       -0.1659
     27 F          -6.6902    4.3830   24.9225 F       1  UNL1       -0.1659
     28 F          -6.6242    3.9051   21.9616 F       1  UNL1       -0.1659
     29 C          -2.3242    2.9900   26.0675 C.3     1  UNL1        0.4186
     30 F          -1.6521    2.5317   27.3277 F       1  UNL1       -0.1659
     31 F          -1.1732    2.4639   25.2623 F       1  UNL1       -0.1659
     32 F          -3.4752    3.5161   26.8727 F       1  UNL1       -0.1659
@<TRIPOS>BOND
     1    11    12    1
     2    12    13   ar
     3    13    14   ar
     4    14     5    1
     5     5     6   ar
     6     6     7   ar
     7     7     8   ar
     8     8     1    1
     9     1     2   am
    10     2     3    2
    11     2    18    1
    12    18    19    1
    13    19    20   ar
    14    20    21   ar
    15    21    25    1
    16    25    26    1
    17    25    27    1
    18    25    28    1
    19    21    22   ar
    20    22    23   ar
    21    23    29    1
    22    29    30    1
    23    29    31    1
    24    29    32    1
    25    23    24   ar
    26     8     9   ar
    27     9    10   ar
    28    14    15   ar
    29    15    16   ar
    30    16    17   ar
    31    17    12   ar
    32    10     5   ar
    33    24    19   ar
    34     1     4    1
@<TRIPOS>MOLECULE
*****
 32 34 0 0 0
SMALL
GASTEIGER

@<TRIPOS>ATOM
      1 N           0.5697    2.4140   20.7522 N.am    1  UNL1       -0.2836
      2 C           0.8223    0.9644   20.4611 C.2     1  UNL1        0.2305
      3 O          -0.2335   -0.0568   20.7654 O.2     1  UNL1       -0.2744
      4 H           1.2626    3.0842   20.5524 H       1  UNL1        0.1549
      5 C          -3.3555    3.6996   22.5384 C.ar    1  UNL1        0.0002
      6 C          -3.2515    3.4391   21.0649 C.ar    1  UNL1        0.0013
      7 C          -1.9432    3.0106   20.4694 C.ar    1  UNL1        0.0147
      8 C          -0.7387    2.8425   21.3476 C.ar    1  UNL1        0.0503
      9 C          -0.8426    3.1030   22.8211 C.ar    1  UNL1        0.0147
     10 C          -2.1511    3.5315   23.4165 C.ar    1  UNL1        0.0013
     11 C          -6.0588    5.6791   26.5100 C.3     1  UNL1        0.0521
     12 C          -6.0155    5.1179   25.1196 C.ar    1  UNL1        0.0594
     13 C          -4.7072    4.6893   24.5242 C.ar    1  UNL1        0.0147
     14 C          -4.6639    4.1281   23.1338 C.ar    1  UNL1        0.0027
     15 C          -5.9289    3.9954   22.3388 C.ar    1  UNL1        0.0207
     16 C          -7.2373    4.4240   22.9342 C.ar    1  UNL1        0.0984
     17 N          -7.2806    4.9852   24.3246 N.ar    1  UNL1       -0.2481
     18 C           2.1306    0.5359   19.8657 C.3     1  UNL1        0.1116
     19 C           2.8443   -0.6661   20.4096 C.ar    1  UNL1       -0.0132
     20 C           3.2133   -1.7967   19.4955 C.ar    1  UNL1        0.0001
     21 C           3.9270   -2.9986   20.0394 C.ar    1  UNL1        0.0711
     22 C           4.2718   -3.0700   21.4975 C.ar    1  UNL1        0.0077
     23 C           3.9029   -1.9394   22.4117 C.ar    1  UNL1        0.0711
     24 C           3.1891   -0.7374   21.8677 C.ar    1  UNL1        0.0001
     25 C           4.2959   -4.1292   19.1253 C.3     1  UNL1        0.4186
     26 F           4.6649   -5.2598   18.2112 F       1  UNL1       -0.1659
     27 F           5.7405   -3.7377   19.2241 F       1  UNL1       -0.1659
     28 F           2.8513   -4.5207   19.0265 F       1  UNL1       -0.1659
     29 C           4.2477   -2.0108   23.8697 C.3     1  UNL1        0.4186
     30 F           4.5925   -2.0822   25.3278 F       1  UNL1       -0.1659
     31 F           5.0217   -3.2721   23.6249 F       1  UNL1       -0.1659
     32 F           3.4736   -0.7495   24.1145 F       1  UNL1       -0.1659
@<TRIPOS>BOND
     1    11    12    1
     2    12    13   ar
     3    13    14   ar
     4    14     5    1
     5     5     6   ar
     6     6     7   ar
     7     7     8   ar
     8     8     1    1
     9     1     2   am
    10     2     3    2
    11     2    18    1
    12    18    19    1
    13    19    20   ar
    14    20    21   ar
    15    21    25    1
    16    25    26    1
    17    25    27    1
    18    25    28    1
    19    21    22   ar
    20    22    23   ar
    21    23    29    1
    22    29    30    1
    23    29    31    1
    24    29    32    1
    25    23    24   ar
    26     8     9   ar
    27     9    10   ar
    28    14    15   ar
    29    15    16   ar
    30    16    17   ar
    31    17    12   ar
    32    10     5   ar
    33    24    19   ar
    34     1     4    1
@<TRIPOS>MOLECULE
*****
 32 34 0 0 0
SMALL
GASTEIGER

@<TRIPOS>ATOM
      1 N           1.6136    1.4088   22.1233 N.am    1  UNL1       -0.2836
      2 C           1.1187    0.5487   20.9985 C.2     1  UNL1        0.2305
      3 O          -0.3550    0.3685   20.7845 O.2     1  UNL1       -0.2744
      4 H           2.5808    1.5270   22.2638 H       1  UNL1        0.1549
      5 C          -1.3226    3.4484   24.8562 C.ar    1  UNL1        0.0002
      6 C          -0.6325    2.1927   25.2999 C.ar    1  UNL1        0.0013
      7 C           0.3462    1.5128   24.3890 C.ar    1  UNL1        0.0147
      8 C           0.6349    2.0887   23.0343 C.ar    1  UNL1        0.0503
      9 C          -0.0552    3.3444   22.5905 C.ar    1  UNL1        0.0147
     10 C          -1.0340    4.0243   23.5015 C.ar    1  UNL1        0.0013
     11 C          -2.3321    6.9088   28.5987 C.3     1  UNL1        0.0521
     12 C          -2.8061    5.8585   27.6384 C.ar    1  UNL1        0.0594
     13 C          -1.8274    5.1786   26.7275 C.ar    1  UNL1        0.0147
     14 C          -2.3014    4.1283   25.7671 C.ar    1  UNL1        0.0027
     15 C          -3.7541    3.7579   25.7178 C.ar    1  UNL1        0.0207
     16 C          -4.7328    4.4378   26.6288 C.ar    1  UNL1        0.0984
     17 N          -4.2588    5.4881   27.5891 N.ar    1  UNL1       -0.2481
     18 C           2.0974   -0.1312   20.0876 C.3     1  UNL1        0.1116
     19 C           2.9271   -1.2727   20.5961 C.ar    1  UNL1       -0.0132
     20 C           3.3952   -1.2832   22.0211 C.ar    1  UNL1        0.0001
     21 C           4.2249   -2.4247   22.5296 C.ar    1  UNL1        0.0711
     22 C           4.5867   -3.5556   21.6130 C.ar    1  UNL1        0.0077
     23 C           4.1186   -3.5451   20.1879 C.ar    1  UNL1        0.0711
     24 C           3.2889   -2.4036   19.6794 C.ar    1  UNL1        0.0001
     25 C           4.6930   -2.4352   23.9546 C.3     1  UNL1        0.4186
     26 F           5.1610   -2.4458   25.3798 F       1  UNL1       -0.1659
     27 F           3.6390   -1.4282   24.3082 F       1  UNL1       -0.1659
     28 F           5.7469   -3.4423   23.6010 F       1  UNL1       -0.1659
     29 C           4.4804   -4.6760   19.2713 C.3     1  UNL1        0.4186
     30 F           4.8421   -5.8069   18.3548 F       1  UNL1       -0.1659
     31 F           5.8906   -4.6379   19.7809 F       1  UNL1       -0.1659
     32 F           3.0701   -4.7141   18.7617 F       1  UNL1       -0.1659
@<TRIPOS>BOND
     1    11    12    1
     2    12    13   ar
     3    13    14   ar
     4    14     5    1
     5     5     6   ar
     6     6     7   ar
     7     7     8   ar
     8     8     1    1
     9     1     2   am
    10     2     3    2
    11     2    18    1
    12    18    19    1
    13    19    20   ar
    14    20    21   ar
    15    21    25    1
    16    25    26    1
    17    25    27    1
    18    25    28    1
    19    21    22   ar
    20    22    23   ar
    21    23    29    1
    22    29    30    1
    23    29    31    1
    24    29    32    1
    25    23    24   ar
    26     8     9   ar
    27     9    10   ar
    28    14    15   ar
    29    15    16   ar
    30    16    17   ar
    31    17    12   ar
    32    10     5   ar
    33    24    19   ar
    34     1     4    1
@<TRIPOS>MOLECULE
*****
 32 34 0 0 0
SMALL
GASTEIGER

@<TRIPOS>ATOM
      1 N           0.4908    2.3401   20.5109 N.am    1  UNL1       -0.2836
      2 C           0.7749    0.8753   20.3573 C.2     1  UNL1        0.2305
      3 O          -0.2311   -0.1364   20.8201 O.2     1  UNL1       -0.2744
      4 H           1.1511    3.0041   20.2071 H       1  UNL1        0.1549
      5 C          -3.3798    3.6995   22.3603 C.ar    1  UNL1        0.0002
      6 C          -3.3193    3.3819   20.8956 C.ar    1  UNL1        0.0013
      7 C          -2.0291    2.9288   20.2791 C.ar    1  UNL1        0.0147
      8 C          -0.7994    2.7932   21.1274 C.ar    1  UNL1        0.0503
      9 C          -0.8599    3.1107   22.5921 C.ar    1  UNL1        0.0147
     10 C          -2.1502    3.5639   23.2086 C.ar    1  UNL1        0.0013
     11 C          -6.0049    5.5878   26.4277 C.3     1  UNL1        0.0521
     12 C          -5.9826    5.0967   25.0105 C.ar    1  UNL1        0.0594
     13 C          -4.6924    4.6436   24.3940 C.ar    1  UNL1        0.0147
     14 C          -4.6701    4.1526   22.9768 C.ar    1  UNL1        0.0027
     15 C          -5.9379    4.1147   22.1761 C.ar    1  UNL1        0.0207
     16 C          -7.2280    4.5678   22.7926 C.ar    1  UNL1        0.0984
     17 N          -7.2504    5.0588   24.2098 N.ar    1  UNL1       -0.2481
     18 C           2.0651    0.4222   19.7408 C.3     1  UNL1        0.1116
     19 C           2.7970   -0.7554   20.3132 C.ar    1  UNL1       -0.0132
     20 C           3.1310   -0.7925   21.7750 C.ar    1  UNL1        0.0001
     21 C           3.8630   -1.9701   22.3474 C.ar    1  UNL1        0.0711
     22 C           4.2609   -3.1105   21.4580 C.ar    1  UNL1        0.0077
     23 C           3.9269   -3.0733   19.9961 C.ar    1  UNL1        0.0711
     24 C           3.1950   -1.8958   19.4237 C.ar    1  UNL1        0.0001
     25 C           4.1970   -2.0072   23.8093 C.3     1  UNL1        0.4186
     26 F           4.5310   -2.0444   25.2712 F       1  UNL1       -0.1659
     27 F           5.1628   -3.1275   23.5601 F       1  UNL1       -0.1659
     28 F           3.2311   -0.8870   24.0584 F       1  UNL1       -0.1659
     29 C           4.3249   -4.2137   19.1067 C.3     1  UNL1        0.4186
     30 F           4.7228   -5.3541   18.2173 F       1  UNL1       -0.1659
     31 F           2.8809   -4.5783   18.9280 F       1  UNL1       -0.1659
     32 F           5.7688   -3.8492   19.2853 F       1  UNL1       -0.1659
@<TRIPOS>BOND
     1    11    12    1
     2    12    13   ar
     3    13    14   ar
     4    14     5    1
     5     5     6   ar
     6     6     7   ar
     7     7     8   ar
     8     8     1    1
     9     1     2   am
    10     2     3    2
    11     2    18    1
    12    18    19    1
    13    19    20   ar
    14    20    21   ar
    15    21    25    1
    16    25    26    1
    17    25    27    1
    18    25    28    1
    19    21    22   ar
    20    22    23   ar
    21    23    29    1
    22    29    30    1
    23    29    31    1
    24    29    32    1
    25    23    24   ar
    26     8     9   ar
    27     9    10   ar
    28    14    15   ar
    29    15    16   ar
    30    16    17   ar
    31    17    12   ar
    32    10     5   ar
    33    24    19   ar
    34     1     4    1
@<TRIPOS>MOLECULE
*****
 32 34 0 0 0
SMALL
GASTEIGER

@<TRIPOS>ATOM
      1 N          -0.5468    2.1907   21.2824 N.am    1  UNL1       -0.2836
      2 C          -0.2156    3.5649   20.7804 C.2     1  UNL1        0.2305
      3 O           1.1503    3.8542   20.2323 O.2     1  UNL1       -0.2744
      4 H          -1.4433    2.0008   21.6422 H       1  UNL1        0.1549
      5 C           2.5578   -1.0640   21.1441 C.ar    1  UNL1        0.0002
      6 C           2.5222   -0.1101   22.3012 C.ar    1  UNL1        0.0013
      7 C           1.4874    0.9748   22.3473 C.ar    1  UNL1        0.0147
      8 C           0.4881    1.1058   21.2363 C.ar    1  UNL1        0.0503
      9 C           0.5236    0.1519   20.0792 C.ar    1  UNL1        0.0147
     10 C           1.5585   -0.9330   20.0331 C.ar    1  UNL1        0.0013
     11 C           4.7609   -5.0801   18.6912 C.3     1  UNL1        0.0521
     12 C           4.6942   -4.1569   19.8715 C.ar    1  UNL1        0.0594
     13 C           3.6594   -3.0721   19.9177 C.ar    1  UNL1        0.0147
     14 C           3.5927   -2.1489   21.0980 C.ar    1  UNL1        0.0027
     15 C           4.5608   -2.3105   22.2323 C.ar    1  UNL1        0.0207
     16 C           5.5956   -3.3954   22.1861 C.ar    1  UNL1        0.0984
     17 N           5.6623   -4.3186   21.0058 N.ar    1  UNL1       -0.2481
     18 C          -1.2505    4.6497   20.8265 C.3     1  UNL1        0.1116
     19 C          -2.6532    4.3307   21.2515 C.ar    1  UNL1       -0.0132
     20 C          -3.7242    4.1382   20.2192 C.ar    1  UNL1        0.0001
     21 C          -5.1269    3.8191   20.6442 C.ar    1  UNL1        0.0711
     22 C          -5.4586    3.6925   22.1016 C.ar    1  UNL1        0.0077
     23 C          -4.3875    3.8850   23.1340 C.ar    1  UNL1        0.0711
     24 C          -2.9848    4.2041   22.7090 C.ar    1  UNL1        0.0001
     25 C          -6.1979    3.6266   19.6119 C.3     1  UNL1        0.4186
     26 F          -7.2690    3.4341   18.5794 F       1  UNL1       -0.1659
     27 F          -5.1884    3.0319   18.6754 F       1  UNL1       -0.1659
     28 F          -7.2075    4.2213   20.5484 F       1  UNL1       -0.1659
     29 C          -4.7192    3.7585   24.5914 C.3     1  UNL1        0.4186
     30 F          -5.0508    3.6319   26.0487 F       1  UNL1       -0.1659
     31 F          -6.0901    4.3067   24.3270 F       1  UNL1       -0.1659
     32 F          -3.3482    3.2102   24.8557 F       1  UNL1       -0.1659
@<TRIPOS>BOND
     1    11    12    1
     2    12    13   ar
     3    13    14   ar
     4    14     5    1
     5     5     6   ar
     6     6     7   ar
     7     7     8   ar
     8     8     1    1
     9     1     2   am
    10     2     3    2
    11     2    18    1
    12    18    19    1
    13    19    20   ar
    14    20    21   ar
    15    21    25    1
    16    25    26    1
    17    25    27    1
    18    25    28    1
    19    21    22   ar
    20    22    23   ar
    21    23    29    1
    22    29    30    1
    23    29    31    1
    24    29    32    1
    25    23    24   ar
    26     8     9   ar
    27     9    10   ar
    28    14    15   ar
    29    15    16   ar
    30    16    17   ar
    31    17    12   ar
    32    10     5   ar
    33    24    19   ar
    34     1     4    1
@<TRIPOS>MOLECULE
*****
 32 34 0 0 0
SMALL
GASTEIGER

@<TRIPOS>ATOM
      1 N          -0.5915    2.2188   21.1847 N.am    1  UNL1       -0.2836
      2 C          -0.3172    3.5492   20.5484 C.2     1  UNL1        0.2305
      3 O           1.0003    3.8023   19.8776 O.2     1  UNL1       -0.2744
      4 H          -1.4563    2.0527   21.6250 H       1  UNL1        0.1549
      5 C           2.5380   -1.0131   21.0810 C.ar    1  UNL1        0.0002
      6 C           2.4318   -0.1099   22.2739 C.ar    1  UNL1        0.0013
      7 C           1.3886    0.9674   22.3085 C.ar    1  UNL1        0.0147
      8 C           0.4516    1.1415   21.1501 C.ar    1  UNL1        0.0503
      9 C           0.5578    0.2384   19.9572 C.ar    1  UNL1        0.0147
     10 C           1.6010   -0.8390   19.9227 C.ar    1  UNL1        0.0013
     11 C           4.7006   -5.1091   18.7260 C.3     1  UNL1        0.0521
     12 C           4.6625   -4.1384   19.8690 C.ar    1  UNL1        0.0594
     13 C           3.6193   -3.0611   19.9036 C.ar    1  UNL1        0.0147
     14 C           3.5812   -2.0904   21.0465 C.ar    1  UNL1        0.0027
     15 C           4.5862   -2.1970   22.1549 C.ar    1  UNL1        0.0207
     16 C           5.6294   -3.2743   22.1203 C.ar    1  UNL1        0.0984
     17 N           5.6675   -4.2450   20.9773 N.ar    1  UNL1       -0.2481
     18 C          -1.3603    4.6265   20.5830 C.3     1  UNL1        0.1116
     19 C          -2.7435    4.3157   21.0732 C.ar    1  UNL1       -0.0132
     20 C          -2.9916    4.1111   22.5383 C.ar    1  UNL1        0.0001
     21 C          -4.3748    3.8003   23.0284 C.ar    1  UNL1        0.0711
     22 C          -5.5098    3.6942   22.0536 C.ar    1  UNL1        0.0077
     23 C          -5.2617    3.8989   20.5884 C.ar    1  UNL1        0.0711
     24 C          -3.8785    4.2096   20.0982 C.ar    1  UNL1        0.0001
     25 C          -4.6230    3.5956   24.4935 C.3     1  UNL1        0.4186
     26 F          -4.8711    3.3909   25.9587 F       1  UNL1       -0.1659
     27 F          -3.1877    3.2025   24.6817 F       1  UNL1       -0.1659
     28 F          -6.0582    3.9888   24.3053 F       1  UNL1       -0.1659
     29 C          -6.3967    3.7927   19.6135 C.3     1  UNL1        0.4186
     30 F          -7.5317    3.6866   18.6386 F       1  UNL1       -0.1659
     31 F          -5.5677    2.8923   18.7464 F       1  UNL1       -0.1659
     32 F          -7.2257    4.6932   20.4807 F       1  UNL1       -0.1659
@<TRIPOS>BOND
     1    11    12    1
     2    12    13   ar
     3    13    14   ar
     4    14     5    1
     5     5     6   ar
     6     6     7   ar
     7     7     8   ar
     8     8     1    1
     9     1     2   am
    10     2     3    2
    11     2    18    1
    12    18    19    1
    13    19    20   ar
    14    20    21   ar
    15    21    25    1
    16    25    26    1
    17    25    27    1
    18    25    28    1
    19    21    22   ar
    20    22    23   ar
    21    23    29    1
    22    29    30    1
    23    29    31    1
    24    29    32    1
    25    23    24   ar
    26     8     9   ar
    27     9    10   ar
    28    14    15   ar
    29    15    16   ar
    30    16    17   ar
    31    17    12   ar
    32    10     5   ar
    33    24    19   ar
    34     1     4    1
@<TRIPOS>MOLECULE
*****
 32 34 0 0 0
SMALL
GASTEIGER

@<TRIPOS>ATOM
      1 N          -7.4199  -20.3289   22.5019 N.am    1  UNL1       -0.2836
      2 C          -8.3432  -19.3266   23.1286 C.2     1  UNL1        0.2305
      3 O          -8.0088  -17.8652   23.0792 O.2     1  UNL1       -0.2744
      4 H          -7.6394  -21.2881   22.5343 H       1  UNL1        0.1549
      5 C          -3.6465  -18.9517   20.4735 C.ar    1  UNL1        0.0002
      6 C          -3.7727  -18.8592   21.9653 C.ar    1  UNL1        0.0013
      7 C          -5.0305  -19.3182   22.6414 C.ar    1  UNL1        0.0147
      8 C          -6.1621  -19.8698   21.8257 C.ar    1  UNL1        0.0503
      9 C          -6.0358  -19.9623   20.3339 C.ar    1  UNL1        0.0147
     10 C          -4.7780  -19.5032   19.6578 C.ar    1  UNL1        0.0013
     11 C           1.3857  -17.6792   20.7156 C.3     1  UNL1        0.0521
     12 C           0.1274  -17.8563   19.9184 C.ar    1  UNL1        0.0594
     13 C          -1.1304  -18.3154   20.5945 C.ar    1  UNL1        0.0147
     14 C          -2.3886  -18.4926   19.7973 C.ar    1  UNL1        0.0027
     15 C          -2.3890  -18.2106   18.3241 C.ar    1  UNL1        0.0207
     16 C          -1.1312  -17.7516   17.6480 C.ar    1  UNL1        0.0984
     17 N           0.1270  -17.5744   18.4452 N.ar    1  UNL1       -0.2481
     18 C          -9.6010  -19.7857   23.8048 C.3     1  UNL1        0.1116
     19 C         -10.8845  -19.0407   23.5868 C.ar    1  UNL1       -0.0132
     20 C         -12.0032  -19.1681   24.5778 C.ar    1  UNL1        0.0001
     21 C         -13.2868  -18.4231   24.3598 C.ar    1  UNL1        0.0711
     22 C         -13.4516  -17.5507   23.1508 C.ar    1  UNL1        0.0077
     23 C         -12.3328  -17.4232   22.1597 C.ar    1  UNL1        0.0711
     24 C         -11.0493  -18.1682   22.3777 C.ar    1  UNL1        0.0001
     25 C         -14.4055  -18.5505   25.3508 C.3     1  UNL1        0.4186
     26 F         -15.5243  -18.6779   26.3419 F       1  UNL1       -0.1659
     27 F         -13.4221  -18.4280   26.4768 F       1  UNL1       -0.1659
     28 F         -15.3890  -18.6729   24.2249 F       1  UNL1       -0.1659
     29 C         -12.4976  -16.5508   20.9508 C.3     1  UNL1        0.4186
     30 F         -12.6624  -15.6784   19.7418 F       1  UNL1       -0.1659
     31 F         -13.0232  -15.4465   21.8192 F       1  UNL1       -0.1659
     32 F         -11.9720  -17.6551   20.0823 F       1  UNL1       -0.1659
@<TRIPOS>BOND
     1    11    12    1
     2    12    13   ar
     3    13    14   ar
     4    14     5    1
     5     5     6   ar
     6     6     7   ar
     7     7     8   ar
     8     8     1    1
     9     1     2   am
    10     2     3    2
    11     2    18    1
    12    18    19    1
    13    19    20   ar
    14    20    21   ar
    15    21    25    1
    16    25    26    1
    17    25    27    1
    18    25    28    1
    19    21    22   ar
    20    22    23   ar
    21    23    29    1
    22    29    30    1
    23    29    31    1
    24    29    32    1
    25    23    24   ar
    26     8     9   ar
    27     9    10   ar
    28    14    15   ar
    29    15    16   ar
    30    16    17   ar
    31    17    12   ar
    32    10     5   ar
    33    24    19   ar
    34     1     4    1
@<TRIPOS>MOLECULE
*****
 32 34 0 0 0
SMALL
GASTEIGER

@<TRIPOS>ATOM
      1 N           1.0141    0.2051   24.5515 N.am    1  UNL1       -0.2836
      2 C           2.4796    0.4346   24.3286 C.2     1  UNL1        0.2305
      3 O           3.0955    1.7539   24.6893 O.2     1  UNL1       -0.2744
      4 H           0.6099   -0.6608   24.3147 H       1  UNL1        0.1549
      5 C          -1.5346    3.4743   26.3025 C.ar    1  UNL1        0.0002
      6 C          -1.0380    2.3610   27.1765 C.ar    1  UNL1        0.0013
      7 C          -0.1884    1.2713   26.5929 C.ar    1  UNL1        0.0147
      8 C           0.1646    1.2948   25.1351 C.ar    1  UNL1        0.0503
      9 C          -0.3321    2.4081   24.2611 C.ar    1  UNL1        0.0147
     10 C          -1.1817    3.4979   24.8448 C.ar    1  UNL1        0.0013
     11 C          -6.1707    5.7523   26.8658 C.3     1  UNL1        0.0521
     12 C          -4.7023    5.7030   27.1678 C.ar    1  UNL1        0.0594
     13 C          -3.8527    4.6133   26.5842 C.ar    1  UNL1        0.0147
     14 C          -2.3842    4.5641   26.8862 C.ar    1  UNL1        0.0027
     15 C          -1.7654    5.6045   27.7720 C.ar    1  UNL1        0.0207
     16 C          -2.6150    6.6941   28.3556 C.ar    1  UNL1        0.0984
     17 N          -4.0834    6.7434   28.0536 N.ar    1  UNL1       -0.2481
     18 C           3.3292   -0.6551   23.7449 C.3     1  UNL1        0.1116
     19 C           3.1862   -1.0241   22.2981 C.ar    1  UNL1       -0.0132
     20 C           2.3599   -0.1686   21.3841 C.ar    1  UNL1        0.0001
     21 C           2.2169   -0.5376   19.9372 C.ar    1  UNL1        0.0711
     22 C           2.9001   -1.7620   19.4043 C.ar    1  UNL1        0.0077
     23 C           3.7264   -2.6175   20.3184 C.ar    1  UNL1        0.0711
     24 C           3.8694   -2.2485   21.7652 C.ar    1  UNL1        0.0001
     25 C           1.3906    0.3179   19.0232 C.3     1  UNL1        0.4186
     26 F           0.5643    1.1734   18.1092 F       1  UNL1       -0.1659
     27 F           0.2230    0.1862   19.9555 F       1  UNL1       -0.1659
     28 F           2.5583    0.4496   18.0909 F       1  UNL1       -0.1659
     29 C           4.4097   -3.8419   19.7855 C.3     1  UNL1        0.4186
     30 F           5.0929   -5.0663   19.2527 F       1  UNL1       -0.1659
     31 F           3.1396   -4.2530   19.1015 F       1  UNL1       -0.1659
     32 F           5.6797   -3.4308   20.4695 F       1  UNL1       -0.1659
@<TRIPOS>BOND
     1    11    12    1
     2    12    13   ar
     3    13    14   ar
     4    14     5    1
     5     5     6   ar
     6     6     7   ar
     7     7     8   ar
     8     8     1    1
     9     1     2   am
    10     2     3    2
    11     2    18    1
    12    18    19    1
    13    19    20   ar
    14    20    21   ar
    15    21    25    1
    16    25    26    1
    17    25    27    1
    18    25    28    1
    19    21    22   ar
    20    22    23   ar
    21    23    29    1
    22    29    30    1
    23    29    31    1
    24    29    32    1
    25    23    24   ar
    26     8     9   ar
    27     9    10   ar
    28    14    15   ar
    29    15    16   ar
    30    16    17   ar
    31    17    12   ar
    32    10     5   ar
    33    24    19   ar
    34     1     4    1
