@<TRIPOS>MOLECULE
*****
 50 53 0 0 0
SMALL
GASTEIGER

@<TRIPOS>ATOM
      1 C           0.9130    0.4342   20.0943 C.3     1  UNL1        0.0777
      2 C           0.3100    2.5764   21.4349 C.2     1  UNL1        0.2403
      3 O           1.7660    2.9217   21.5380 O.2     1  UNL1       -0.2733
      4 N          -0.1165    1.3326   20.7131 N.am    1  UNL1       -0.3042
      5 H          -1.0722    1.1060   20.6454 H       1  UNL1        0.1494
      6 C          -0.7195    3.4748   22.0537 C.3     1  UNL1        0.1496
      7 N          -4.2225    3.5511   20.1898 N.am    1  UNL1       -0.2567
      8 C          -4.8141    4.0582   18.9081 C.3     1  UNL1        0.1168
      9 C          -2.7668    3.7666   20.4809 C.2     1  UNL1        0.3046
     10 O          -1.9027    4.4890   19.4902 O.2     1  UNL1       -0.2526
     11 N          -2.1751    3.2595   21.7626 N.am    1  UNL1       -0.2824
     12 H          -2.7423    2.7853   22.4128 H       1  UNL1        0.1514
     13 C          -5.0865    2.8287   21.1805 C.3     1  UNL1        0.1413
     14 C          -5.3915    4.2931   24.7621 C.ar    1  UNL1        0.0875
     15 N          -4.6323    3.5255   23.7209 N.ar    1  UNL1       -0.2453
     16 C          -5.4626    3.4924   22.4720 C.ar    1  UNL1        0.0858
     17 C          -6.7350    4.2397   22.7414 C.ar    1  UNL1        0.0530
     18 S          -6.6911    4.7346   24.1569 S.2     1  UNL1       -0.0705
     19 C          -3.7239    3.8687   26.7086 C.3     1  UNL1        0.0069
     20 C          -4.9320    4.5706   26.1627 C.3     1  UNL1        0.0465
     21 C          -5.6804    5.5499   27.0175 C.3     1  UNL1        0.0069
     22 C          -0.2935    4.5887   22.9635 C.3     1  UNL1        0.0270
     23 C          -0.2001    4.3551   24.4422 C.3     1  UNL1        0.0022
     24 C           0.0393    5.9362   22.3945 C.3     1  UNL1        0.0022
     25 C           1.6173   -0.5895   20.9345 C.3     1  UNL1        0.0415
     26 C           2.9559   -0.2753   21.5341 C.3     1  UNL1        0.0988
     27 N           3.4379   -1.0367   22.7333 N.am    1  UNL1       -0.2418
     28 C           3.0667   -0.5776   24.1122 C.2     1  UNL1        0.4055
     29 O           3.5488   -1.3389   25.3113 O.2     1  UNL1       -0.2262
     30 C           4.2911   -2.2572   22.5535 C.3     1  UNL1        0.1234
     31 C           4.6907   -2.6968   21.1761 C.ar    1  UNL1       -0.0022
     32 C           5.9861   -2.2254   20.5847 C.ar    1  UNL1       -0.0026
     33 C           6.3856   -2.6649   19.2073 C.ar    1  UNL1       -0.0003
     34 C           5.4898   -3.5759   18.4214 C.ar    1  UNL1       -0.0000
     35 C           4.1944   -4.0472   19.0128 C.ar    1  UNL1       -0.0003
     36 C           3.7949   -3.6077   20.3901 C.ar    1  UNL1       -0.0026
     37 O           2.2135    0.6430   24.2919 O.3     1  UNL1       -0.4289
     38 C           2.2651    1.4112   25.5793 C.3     1  UNL1        0.2447
     39 C           1.2767    1.1167   26.6684 C.ar    1  UNL1        0.0714
     40 C          -0.2102    1.2942   26.5813 C.ar    1  UNL1        0.1053
     41 N          -0.8043    0.8803   27.8950 N.ar    1  UNL1       -0.2350
     42 C           0.3155    0.4469   28.7941 C.ar    1  UNL1        0.1343
     43 S           1.6016    0.5931   28.0360 S.2     1  UNL1       -0.0652
     44 C           1.2382    0.5594   18.6353 C.3     1  UNL1        0.0459
     45 C           2.6660    0.6845   18.1932 C.ar    1  UNL1       -0.0205
     46 C           3.4350    1.9384   18.4868 C.ar    1  UNL1       -0.0042
     47 C           4.8629    2.0635   18.0447 C.ar    1  UNL1       -0.0003
     48 C           5.5218    0.9346   17.3089 C.ar    1  UNL1       -0.0000
     49 C           4.7528   -0.3194   17.0152 C.ar    1  UNL1       -0.0003
     50 C           3.3250   -0.4444   17.4574 C.ar    1  UNL1       -0.0042
@<TRIPOS>BOND
     1    19    20    1
     2    20    21    1
     3    20    14    1
     4    14    15   ar
     5    15    16   ar
     6    16    13    1
     7    13     7    1
     8     7     8    1
     9     7     9   am
    10     9    10    2
    11     9    11   am
    12     6    11    1
    13     6     2    1
    14     2     3    2
    15     2     4   am
    16     4     1    1
    17     1    25    1
    18    25    26    1
    19    26    27    1
    20    27    30    1
    21    30    31    1
    22    31    32   ar
    23    32    33   ar
    24    33    34   ar
    25    34    35   ar
    26    35    36   ar
    27    27    28   am
    28    28    29    2
    29    28    37    1
    30    37    38    1
    31    38    39    1
    32    39    40   ar
    33    40    41   ar
    34    41    42   ar
    35    42    43   ar
    36     1    44    1
    37    44    45    1
    38    45    46   ar
    39    46    47   ar
    40    47    48   ar
    41    48    49   ar
    42    49    50   ar
    43     6    22    1
    44    22    23    1
    45    22    24    1
    46    16    17   ar
    47    17    18   ar
    48    18    14   ar
    49    36    31   ar
    50    43    39   ar
    51    50    45   ar
    52    11    12    1
    53     4     5    1
@<TRIPOS>MOLECULE
*****
 50 53 0 0 0
SMALL
GASTEIGER

@<TRIPOS>ATOM
      1 C           3.5841   -0.6033   24.2903 C.3     1  UNL1        0.0777
      2 C           2.5166    0.6853   26.2777 C.2     1  UNL1        0.2403
      3 O           3.8595    1.2524   26.6313 O.2     1  UNL1       -0.2733
      4 N           2.3789   -0.2425   25.1072 N.am    1  UNL1       -0.3042
      5 H           1.4975   -0.6148   24.8752 H       1  UNL1        0.1494
      6 C           1.3114    1.0460   27.0947 C.3     1  UNL1        0.1496
      7 N          -0.6677    4.3915   26.2938 N.am    1  UNL1       -0.2567
      8 C          -0.5895    5.8570   26.6037 C.3     1  UNL1        0.1168
      9 C           0.3610    3.4515   26.8492 C.2     1  UNL1        0.3046
     10 O           1.4678    3.9772   27.7144 O.2     1  UNL1       -0.2526
     11 N           0.2828    1.9860   26.5393 N.am    1  UNL1       -0.2824
     12 H          -0.4436    1.6410   25.9715 H       1  UNL1        0.1514
     13 C          -1.7745    3.8658   25.4286 C.3     1  UNL1        0.1413
     14 C          -0.5639    2.9591   21.8540 C.ar    1  UNL1        0.0875
     15 N          -0.3939    2.9209   23.3438 N.ar    1  UNL1       -0.2453
     16 C          -1.5451    3.6587   23.9608 C.ar    1  UNL1        0.0858
     17 C          -2.4265    4.1529   22.8523 C.ar    1  UNL1        0.0530
     18 S          -1.8201    3.7206   21.5501 S.2     1  UNL1       -0.0705
     19 C           1.6911    2.9758   20.5638 C.3     1  UNL1        0.0069
     20 C           0.3600    2.3440   20.8451 C.3     1  UNL1        0.0465
     21 C          -0.0470    1.0971   20.1175 C.3     1  UNL1        0.0069
     22 C           1.1349    0.4668   28.4670 C.3     1  UNL1        0.0270
     23 C          -0.0212    0.8980   29.3201 C.3     1  UNL1        0.0022
     24 C           2.1143   -0.5436   28.9864 C.3     1  UNL1        0.0022
     25 C           4.3036   -1.8945   24.5448 C.3     1  UNL1        0.0415
     26 C           5.8001   -1.9489   24.4579 C.3     1  UNL1        0.0988
     27 N           6.4624   -2.9196   23.5256 N.am    1  UNL1       -0.2418
     28 C           6.8388   -4.2880   24.0111 C.2     1  UNL1        0.4055
     29 O           7.5011   -5.2587   23.0788 O.2     1  UNL1       -0.2262
     30 C           6.7484   -2.5218   22.1079 C.3     1  UNL1        0.1234
     31 C           5.9109   -3.0712   20.9912 C.ar    1  UNL1       -0.0022
     32 C           6.2603   -2.7565   19.5669 C.ar    1  UNL1       -0.0026
     33 C           5.4228   -3.3059   18.4503 C.ar    1  UNL1       -0.0003
     34 C           4.2359   -4.1699   18.7581 C.ar    1  UNL1       -0.0000
     35 C           3.8865   -4.4846   20.1825 C.ar    1  UNL1       -0.0003
     36 C           4.7240   -3.9352   21.2991 C.ar    1  UNL1       -0.0026
     37 O           6.5528   -4.6858   25.4289 O.3     1  UNL1       -0.4289
     38 C           7.6826   -4.8746   26.3973 C.3     1  UNL1        0.2447
     39 C           7.4030   -4.9607   27.8684 C.ar    1  UNL1        0.0714
     40 C           6.6899   -3.9297   28.6922 C.ar    1  UNL1        0.1053
     41 N           6.6335   -4.4247   30.1070 N.ar    1  UNL1       -0.2350
     42 C           7.3117   -5.7617   30.1577 C.ar    1  UNL1        0.1343
     43 S           7.7872   -6.0930   28.7742 S.2     1  UNL1       -0.0652
     44 C           4.0697    0.3274   23.2187 C.3     1  UNL1        0.0459
     45 C           3.7727    0.0326   21.7783 C.ar    1  UNL1       -0.0205
     46 C           4.5747    0.6936   20.6967 C.ar    1  UNL1       -0.0042
     47 C           4.2777    0.3989   19.2562 C.ar    1  UNL1       -0.0003
     48 C           3.1787   -0.5569   18.8973 C.ar    1  UNL1       -0.0000
     49 C           2.3767   -1.2179   19.9790 C.ar    1  UNL1       -0.0003
     50 C           2.6737   -0.9231   21.4194 C.ar    1  UNL1       -0.0042
@<TRIPOS>BOND
     1    19    20    1
     2    20    21    1
     3    20    14    1
     4    14    15   ar
     5    15    16   ar
     6    16    13    1
     7    13     7    1
     8     7     8    1
     9     7     9   am
    10     9    10    2
    11     9    11   am
    12     6    11    1
    13     6     2    1
    14     2     3    2
    15     2     4   am
    16     4     1    1
    17     1    25    1
    18    25    26    1
    19    26    27    1
    20    27    30    1
    21    30    31    1
    22    31    32   ar
    23    32    33   ar
    24    33    34   ar
    25    34    35   ar
    26    35    36   ar
    27    27    28   am
    28    28    29    2
    29    28    37    1
    30    37    38    1
    31    38    39    1
    32    39    40   ar
    33    40    41   ar
    34    41    42   ar
    35    42    43   ar
    36     1    44    1
    37    44    45    1
    38    45    46   ar
    39    46    47   ar
    40    47    48   ar
    41    48    49   ar
    42    49    50   ar
    43     6    22    1
    44    22    23    1
    45    22    24    1
    46    16    17   ar
    47    17    18   ar
    48    18    14   ar
    49    36    31   ar
    50    43    39   ar
    51    50    45   ar
    52    11    12    1
    53     4     5    1
@<TRIPOS>MOLECULE
*****
 50 53 0 0 0
SMALL
GASTEIGER

@<TRIPOS>ATOM
      1 C           3.9940   -0.2566   24.2635 C.3     1  UNL1        0.0777
      2 C           4.0545    0.9050   26.5866 C.2     1  UNL1        0.2403
      3 O           5.4821    0.4795   26.7621 O.2     1  UNL1       -0.2733
      4 N           3.3105    0.5370   25.3372 N.am    1  UNL1       -0.3042
      5 H           2.3735    0.8163   25.2220 H       1  UNL1        0.1494
      6 C           3.3710    1.6986   27.6603 C.3     1  UNL1        0.1496
      7 N          -0.4723    0.8432   28.1576 N.am    1  UNL1       -0.2567
      8 C          -1.3277   -0.2816   28.6606 C.3     1  UNL1        0.1168
      9 C           1.0217    0.7085   28.1605 C.2     1  UNL1        0.3046
     10 O           1.6601   -0.5510   28.6663 O.2     1  UNL1       -0.2526
     11 N           1.8771    1.8333   27.6575 N.am    1  UNL1       -0.2824
     12 H           1.4580    2.6600   27.3255 H       1  UNL1        0.1514
     13 C          -1.1108    2.1028   27.6518 C.3     1  UNL1        0.1413
     14 C          -0.2058    2.6577   23.9184 C.ar    1  UNL1        0.0875
     15 N           0.1092    2.0968   25.2734 N.ar    1  UNL1       -0.2453
     16 C          -1.0139    2.4614   26.1986 C.ar    1  UNL1        0.0858
     17 C          -2.0230    3.2476   25.4153 C.ar    1  UNL1        0.0530
     18 S          -1.5236    3.3689   24.0060 S.2     1  UNL1       -0.0705
     19 C           0.1456    1.7591   21.5062 C.3     1  UNL1        0.0069
     20 C           0.6472    2.5298   22.6912 C.3     1  UNL1        0.0465
     21 C           2.0018    3.1727   22.6491 C.3     1  UNL1        0.0069
     22 C           4.1814    2.3575   28.7369 C.3     1  UNL1        0.0270
     23 C           4.2645    1.7362   30.0996 C.3     1  UNL1        0.0022
     24 C           4.9087    3.6379   28.4508 C.3     1  UNL1        0.0022
     25 C           4.1701   -1.7377   24.4225 C.3     1  UNL1        0.0415
     26 C           5.5475   -2.3312   24.4433 C.3     1  UNL1        0.0988
     27 N           5.8575   -3.5368   23.6063 N.am    1  UNL1       -0.2418
     28 C           7.1285   -4.3005   23.8328 C.2     1  UNL1        0.4055
     29 O           7.4385   -5.5060   22.9958 O.2     1  UNL1       -0.2262
     30 C           4.8965   -3.9786   22.5427 C.3     1  UNL1        0.1234
     31 C           5.1251   -3.5830   21.1139 C.ar    1  UNL1       -0.0022
     32 C           6.2006   -2.5948   20.7723 C.ar    1  UNL1       -0.0026
     33 C           6.4292   -2.1992   19.3436 C.ar    1  UNL1       -0.0003
     34 C           5.5824   -2.7917   18.2566 C.ar    1  UNL1       -0.0000
     35 C           4.5069   -3.7799   18.5982 C.ar    1  UNL1       -0.0003
     36 C           4.2783   -4.1755   20.0269 C.ar    1  UNL1       -0.0026
     37 O           8.0895   -3.8586   24.8965 O.3     1  UNL1       -0.4289
     38 C           8.6849   -4.8661   25.8348 C.3     1  UNL1        0.2447
     39 C           8.0166   -5.1568   27.1458 C.ar    1  UNL1        0.0714
     40 C           6.7858   -4.4833   27.6764 C.ar    1  UNL1        0.1053
     41 N           6.4702   -5.0823   29.0149 N.ar    1  UNL1       -0.2350
     42 C           7.5060   -6.1260   29.3116 C.ar    1  UNL1        0.1343
     43 S           8.4617   -6.1720   28.1564 S.2     1  UNL1       -0.0652
     44 C           4.5015    0.4309   23.0306 C.3     1  UNL1        0.0459
     45 C           3.8924    0.1221   21.6951 C.ar    1  UNL1       -0.0205
     46 C           2.7419   -0.8355   21.5990 C.ar    1  UNL1       -0.0042
     47 C           2.1327   -1.1443   20.2634 C.ar    1  UNL1       -0.0003
     48 C           2.6741   -0.4955   19.0241 C.ar    1  UNL1       -0.0000
     49 C           3.8247    0.4622   19.1203 C.ar    1  UNL1       -0.0003
     50 C           4.4338    0.7710   20.4558 C.ar    1  UNL1       -0.0042
@<TRIPOS>BOND
     1    19    20    1
     2    20    21    1
     3    20    14    1
     4    14    15   ar
     5    15    16   ar
     6    16    13    1
     7    13     7    1
     8     7     8    1
     9     7     9   am
    10     9    10    2
    11     9    11   am
    12     6    11    1
    13     6     2    1
    14     2     3    2
    15     2     4   am
    16     4     1    1
    17     1    25    1
    18    25    26    1
    19    26    27    1
    20    27    30    1
    21    30    31    1
    22    31    32   ar
    23    32    33   ar
    24    33    34   ar
    25    34    35   ar
    26    35    36   ar
    27    27    28   am
    28    28    29    2
    29    28    37    1
    30    37    38    1
    31    38    39    1
    32    39    40   ar
    33    40    41   ar
    34    41    42   ar
    35    42    43   ar
    36     1    44    1
    37    44    45    1
    38    45    46   ar
    39    46    47   ar
    40    47    48   ar
    41    48    49   ar
    42    49    50   ar
    43     6    22    1
    44    22    23    1
    45    22    24    1
    46    16    17   ar
    47    17    18   ar
    48    18    14   ar
    49    36    31   ar
    50    43    39   ar
    51    50    45   ar
    52    11    12    1
    53     4     5    1
@<TRIPOS>MOLECULE
*****
 50 53 0 0 0
SMALL
GASTEIGER

@<TRIPOS>ATOM
      1 C           5.6772   -2.6556   23.9514 C.3     1  UNL1        0.0777
      2 C           6.9711   -4.0922   25.6869 C.2     1  UNL1        0.2403
      3 O           7.9132   -2.9505   25.9295 O.2     1  UNL1       -0.2733
      4 N           5.8531   -3.9447   24.6978 N.am    1  UNL1       -0.3042
      5 H           5.2347   -4.6941   24.5385 H       1  UNL1        0.1494
      6 C           7.1469   -5.3814   26.4333 C.3     1  UNL1        0.1496
      7 N           8.1757   -5.8202   30.2411 N.am    1  UNL1       -0.2567
      8 C           9.3696   -6.2256   31.0536 C.3     1  UNL1        0.1168
      9 C           8.2583   -5.8035   28.7434 C.2     1  UNL1        0.3046
     10 O           9.5349   -6.1920   28.0583 O.2     1  UNL1       -0.2526
     11 N           7.0644   -5.3981   27.9309 N.am    1  UNL1       -0.2824
     12 H           6.2265   -5.1431   28.3806 H       1  UNL1        0.1514
     13 C           6.8991   -5.4317   30.9262 C.3     1  UNL1        0.1413
     14 C           5.9321   -1.6917   30.5482 C.ar    1  UNL1        0.0875
     15 N           6.2484   -3.0301   29.9494 N.ar    1  UNL1       -0.2453
     16 C           6.5365   -3.9835   31.0711 C.ar    1  UNL1        0.0858
     17 C           6.3982   -3.2342   32.3632 C.ar    1  UNL1        0.0530
     18 S           6.0247   -1.8178   32.0401 S.2     1  UNL1       -0.0705
     19 C           5.0815    0.7629   30.5204 C.3     1  UNL1        0.0069
     20 C           5.5844   -0.4460   29.7886 C.3     1  UNL1        0.0465
     21 C           5.7394   -0.4091   28.2971 C.3     1  UNL1        0.0069
     22 C           7.4054   -6.6537   25.6822 C.3     1  UNL1        0.0270
     23 C           8.1071   -6.6130   24.3571 C.3     1  UNL1        0.0022
     24 C           6.9621   -7.9668   26.2561 C.3     1  UNL1        0.0022
     25 C           4.7724   -1.5907   24.4965 C.3     1  UNL1        0.0415
     26 C           5.2863   -0.1942   24.6852 C.3     1  UNL1        0.0988
     27 N           4.7156    0.9310   23.8738 N.am    1  UNL1       -0.2418
     28 C           3.8015    1.9312   24.5173 C.2     1  UNL1        0.4055
     29 O           3.2309    3.0564   23.7060 O.2     1  UNL1       -0.2262
     30 C           5.0590    1.0560   22.4190 C.3     1  UNL1        0.1234
     31 C           4.1592    0.4528   21.3814 C.ar    1  UNL1       -0.0022
     32 C           2.9618   -0.3473   21.8008 C.ar    1  UNL1       -0.0026
     33 C           2.0620   -0.9505   20.7632 C.ar    1  UNL1       -0.0003
     34 C           2.3598   -0.7535   19.3063 C.ar    1  UNL1       -0.0000
     35 C           3.5572    0.0466   18.8870 C.ar    1  UNL1       -0.0003
     36 C           4.4569    0.6497   19.9245 C.ar    1  UNL1       -0.0026
     37 O           3.4581    1.8061   25.9721 O.3     1  UNL1       -0.4289
     38 C           2.5423    0.7121   26.4352 C.3     1  UNL1        0.2447
     39 C           2.1002    0.6602   27.8676 C.ar    1  UNL1        0.0714
     40 C           1.9439   -0.5794   28.6976 C.ar    1  UNL1        0.1053
     41 N           1.4839   -0.1671   30.0645 N.ar    1  UNL1       -0.2350
     42 C           1.3559    1.3274   30.0793 C.ar    1  UNL1        0.1343
     43 S           1.7368    1.8387   28.7215 S.2     1  UNL1       -0.0652
     44 C           6.4063   -2.4314   22.6597 C.3     1  UNL1        0.0459
     45 C           5.7911   -2.8726   21.3648 C.ar    1  UNL1       -0.0205
     46 C           6.4021   -2.4500   20.0618 C.ar    1  UNL1       -0.0042
     47 C           5.7869   -2.8911   18.7668 C.ar    1  UNL1       -0.0003
     48 C           4.5606   -3.7549   18.7750 C.ar    1  UNL1       -0.0000
     49 C           3.9495   -4.1775   20.0781 C.ar    1  UNL1       -0.0003
     50 C           4.5648   -3.7363   21.3730 C.ar    1  UNL1       -0.0042
@<TRIPOS>BOND
     1    19    20    1
     2    20    21    1
     3    20    14    1
     4    14    15   ar
     5    15    16   ar
     6    16    13    1
     7    13     7    1
     8     7     8    1
     9     7     9   am
    10     9    10    2
    11     9    11   am
    12     6    11    1
    13     6     2    1
    14     2     3    2
    15     2     4   am
    16     4     1    1
    17     1    25    1
    18    25    26    1
    19    26    27    1
    20    27    30    1
    21    30    31    1
    22    31    32   ar
    23    32    33   ar
    24    33    34   ar
    25    34    35   ar
    26    35    36   ar
    27    27    28   am
    28    28    29    2
    29    28    37    1
    30    37    38    1
    31    38    39    1
    32    39    40   ar
    33    40    41   ar
    34    41    42   ar
    35    42    43   ar
    36     1    44    1
    37    44    45    1
    38    45    46   ar
    39    46    47   ar
    40    47    48   ar
    41    48    49   ar
    42    49    50   ar
    43     6    22    1
    44    22    23    1
    45    22    24    1
    46    16    17   ar
    47    17    18   ar
    48    18    14   ar
    49    36    31   ar
    50    43    39   ar
    51    50    45   ar
    52    11    12    1
    53     4     5    1
@<TRIPOS>MOLECULE
*****
 50 53 0 0 0
SMALL
GASTEIGER

@<TRIPOS>ATOM
      1 C           3.1933   -0.0379   24.0777 C.3     1  UNL1        0.0777
      2 C           2.5769    0.8378   26.4447 C.2     1  UNL1        0.2403
      3 O           2.7316    2.2497   25.9626 O.2     1  UNL1       -0.2733
      4 N           2.8078   -0.3060   25.5023 N.am    1  UNL1       -0.3042
      5 H           2.7063   -1.2328   25.8187 H       1  UNL1        0.1494
      6 C           2.1914    0.5697   27.8693 C.3     1  UNL1        0.1496
      7 N           5.3281    0.1788   30.2689 N.am    1  UNL1       -0.2567
      8 C           6.4751    1.0001   30.7788 C.3     1  UNL1        0.1168
      9 C           4.3332    0.7849   29.3240 C.2     1  UNL1        0.3046
     10 O           4.4853    2.2124   28.8889 O.2     1  UNL1       -0.2526
     11 N           3.1863   -0.0364   28.8142 N.am    1  UNL1       -0.2824
     12 H           3.0865   -0.9733   29.0998 H       1  UNL1        0.1514
     13 C           5.1760   -1.2486   30.7040 C.3     1  UNL1        0.1413
     14 C           6.6105   -3.7137   28.0712 C.ar    1  UNL1        0.0875
     15 N           5.8465   -2.4719   28.4238 N.ar    1  UNL1       -0.2453
     16 C           5.8309   -2.3459   29.9185 C.ar    1  UNL1        0.0858
     17 C           6.5852   -3.5099   30.4896 C.ar    1  UNL1        0.0530
     18 S           7.0670   -4.3552   29.3480 S.2     1  UNL1       -0.0705
     19 C           6.8780   -5.7003   26.4186 C.3     1  UNL1        0.0069
     20 C           6.8719   -4.2243   26.6853 C.3     1  UNL1        0.0465
     21 C           7.1273   -3.2588   25.5661 C.3     1  UNL1        0.0069
     22 C           0.8110    0.9076   28.3491 C.3     1  UNL1        0.0270
     23 C          -0.3369    0.9185   27.3835 C.3     1  UNL1        0.0022
     24 C           0.5783    1.2348   29.7944 C.3     1  UNL1        0.0022
     25 C           2.1356    0.2694   23.0595 C.3     1  UNL1        0.0415
     26 C           2.5158    0.8837   21.7450 C.3     1  UNL1        0.0988
     27 N           1.9732    0.3161   20.4669 N.am    1  UNL1       -0.2418
     28 C           1.2607    1.2073   19.4933 C.2     1  UNL1        0.4055
     29 O           0.7182    0.6398   18.2152 O.2     1  UNL1       -0.2262
     30 C           2.1432   -1.1428   20.1625 C.3     1  UNL1        0.1234
     31 C           3.4223   -1.6382   19.5553 C.ar    1  UNL1       -0.0022
     32 C           3.5775   -3.0907   19.2144 C.ar    1  UNL1       -0.0026
     33 C           4.8565   -3.5860   18.6072 C.ar    1  UNL1       -0.0003
     34 C           5.9804   -2.6289   18.3410 C.ar    1  UNL1       -0.0000
     35 C           5.8252   -1.1765   18.6820 C.ar    1  UNL1       -0.0003
     36 C           4.5462   -0.6811   19.2891 C.ar    1  UNL1       -0.0026
     37 O           1.0908    2.6663   19.7978 O.3     1  UNL1       -0.4289
     38 C          -0.1000    3.1354   20.5802 C.3     1  UNL1        0.2447
     39 C          -1.3820    3.4600   19.8724 C.ar    1  UNL1        0.0714
     40 C          -2.7652    3.2500   20.4131 C.ar    1  UNL1        0.1053
     41 N          -3.7440    3.7118   19.3745 N.ar    1  UNL1       -0.2350
     42 C          -2.9656    4.2072   18.1918 C.ar    1  UNL1        0.1343
     43 S          -1.5058    4.0516   18.4995 S.2     1  UNL1       -0.0652
     44 C           4.6367   -0.0771   23.6712 C.3     1  UNL1        0.0459
     45 C           5.2127   -1.3243   23.0689 C.ar    1  UNL1       -0.0205
     46 C           4.4226   -2.5992   23.0856 C.ar    1  UNL1       -0.0042
     47 C           4.9986   -3.8464   22.4832 C.ar    1  UNL1       -0.0003
     48 C           6.3646   -3.8187   21.8643 C.ar    1  UNL1       -0.0000
     49 C           7.1547   -2.5437   21.8477 C.ar    1  UNL1       -0.0003
     50 C           6.5788   -1.2965   22.4499 C.ar    1  UNL1       -0.0042
@<TRIPOS>BOND
     1    19    20    1
     2    20    21    1
     3    20    14    1
     4    14    15   ar
     5    15    16   ar
     6    16    13    1
     7    13     7    1
     8     7     8    1
     9     7     9   am
    10     9    10    2
    11     9    11   am
    12     6    11    1
    13     6     2    1
    14     2     3    2
    15     2     4   am
    16     4     1    1
    17     1    25    1
    18    25    26    1
    19    26    27    1
    20    27    30    1
    21    30    31    1
    22    31    32   ar
    23    32    33   ar
    24    33    34   ar
    25    34    35   ar
    26    35    36   ar
    27    27    28   am
    28    28    29    2
    29    28    37    1
    30    37    38    1
    31    38    39    1
    32    39    40   ar
    33    40    41   ar
    34    41    42   ar
    35    42    43   ar
    36     1    44    1
    37    44    45    1
    38    45    46   ar
    39    46    47   ar
    40    47    48   ar
    41    48    49   ar
    42    49    50   ar
    43     6    22    1
    44    22    23    1
    45    22    24    1
    46    16    17   ar
    47    17    18   ar
    48    18    14   ar
    49    36    31   ar
    50    43    39   ar
    51    50    45   ar
    52    11    12    1
    53     4     5    1
@<TRIPOS>MOLECULE
*****
 50 53 0 0 0
SMALL
GASTEIGER

@<TRIPOS>ATOM
      1 C           2.0410    1.4684   22.8140 C.3     1  UNL1        0.0777
      2 C           1.5598    1.7840   25.3475 C.2     1  UNL1        0.2403
      3 O           2.0596    3.1959   25.2665 O.2     1  UNL1       -0.2733
      4 N           1.5505    0.9203   24.1213 N.am    1  UNL1       -0.3042
      5 H           1.2225   -0.0065   24.1744 H       1  UNL1        0.1494
      6 C           1.0694    1.2358   26.6548 C.3     1  UNL1        0.1496
      7 N           3.6223    0.5462   29.6141 N.am    1  UNL1       -0.2567
      8 C           4.2792    1.2873   30.7407 C.3     1  UNL1        0.1168
      9 C           2.6743    1.2616   28.6977 C.2     1  UNL1        0.3046
     10 O           2.3832    2.7179   28.9081 O.2     1  UNL1       -0.2526
     11 N           2.0174    0.5205   27.5711 N.am    1  UNL1       -0.2824
     12 H           2.2084   -0.4353   27.4330 H       1  UNL1        0.1514
     13 C           3.9134   -0.9101   29.4037 C.3     1  UNL1        0.1413
     14 C           5.8335   -1.9167   26.1841 C.ar    1  UNL1        0.0875
     15 N           4.5808   -1.4671   26.8759 N.ar    1  UNL1       -0.2453
     16 C           4.8814   -1.3353   28.3397 C.ar    1  UNL1        0.0858
     17 C           6.3198   -1.7036   28.5525 C.ar    1  UNL1        0.0530
     18 S           6.9083   -2.0629   27.2203 S.2     1  UNL1       -0.0705
     19 C           7.2684   -1.8273   24.0201 C.3     1  UNL1        0.0069
     20 C           5.9849   -2.1748   24.7144 C.3     1  UNL1        0.0465
     21 C           4.8528   -2.7804   23.9387 C.3     1  UNL1        0.0069
     22 C          -0.3691    1.4029   27.0458 C.3     1  UNL1        0.0270
     23 C          -0.9524    0.5571   28.1387 C.3     1  UNL1        0.0022
     24 C          -1.2243    2.4159   26.3438 C.3     1  UNL1        0.0022
     25 C           1.0937    2.1865   21.8991 C.3     1  UNL1        0.0415
     26 C           0.2116    1.4061   20.9704 C.3     1  UNL1        0.0988
     27 N           0.2289    1.6963   19.4987 N.am    1  UNL1       -0.2418
     28 C          -0.4564    2.9203   18.9676 C.2     1  UNL1        0.4055
     29 O          -0.4391    3.2105   17.4960 O.2     1  UNL1       -0.2262
     30 C           0.9316    0.7625   18.5584 C.3     1  UNL1        0.1234
     31 C           2.4023    0.9176   18.3069 C.ar    1  UNL1       -0.0022
     32 C           3.1617   -0.1685   17.6044 C.ar    1  UNL1       -0.0026
     33 C           4.6323   -0.0134   17.3530 C.ar    1  UNL1       -0.0003
     34 C           5.3434    1.2279   17.8041 C.ar    1  UNL1       -0.0000
     35 C           4.5840    2.3140   18.5066 C.ar    1  UNL1       -0.0003
     36 C           3.1134    2.1589   18.7581 C.ar    1  UNL1       -0.0026
     37 O          -1.1591    3.8540   19.9080 O.3     1  UNL1       -0.4289
     38 C          -2.4794    3.4649   20.5041 C.3     1  UNL1        0.2447
     39 C          -3.7343    3.5867   19.6915 C.ar    1  UNL1        0.0714
     40 C          -3.8129    3.9654   18.2422 C.ar    1  UNL1        0.1053
     41 N          -5.2581    3.9640   17.8405 N.ar    1  UNL1       -0.2350
     42 C          -6.0728    3.5845   19.0416 C.ar    1  UNL1        0.1343
     43 S          -5.1310    3.3513   20.1855 S.2     1  UNL1       -0.0652
     44 C           3.4788    1.2985   22.4216 C.3     1  UNL1        0.0459
     45 C           3.9138    0.0689   21.6808 C.ar    1  UNL1       -0.0205
     46 C           2.9088   -0.9853   21.3220 C.ar    1  UNL1       -0.0042
     47 C           3.3438   -2.2150   20.5812 C.ar    1  UNL1       -0.0003
     48 C           4.7837   -2.3905   20.1993 C.ar    1  UNL1       -0.0000
     49 C           5.7886   -1.3363   20.5582 C.ar    1  UNL1       -0.0003
     50 C           5.3537   -0.1066   21.2990 C.ar    1  UNL1       -0.0042
@<TRIPOS>BOND
     1    19    20    1
     2    20    21    1
     3    20    14    1
     4    14    15   ar
     5    15    16   ar
     6    16    13    1
     7    13     7    1
     8     7     8    1
     9     7     9   am
    10     9    10    2
    11     9    11   am
    12     6    11    1
    13     6     2    1
    14     2     3    2
    15     2     4   am
    16     4     1    1
    17     1    25    1
    18    25    26    1
    19    26    27    1
    20    27    30    1
    21    30    31    1
    22    31    32   ar
    23    32    33   ar
    24    33    34   ar
    25    34    35   ar
    26    35    36   ar
    27    27    28   am
    28    28    29    2
    29    28    37    1
    30    37    38    1
    31    38    39    1
    32    39    40   ar
    33    40    41   ar
    34    41    42   ar
    35    42    43   ar
    36     1    44    1
    37    44    45    1
    38    45    46   ar
    39    46    47   ar
    40    47    48   ar
    41    48    49   ar
    42    49    50   ar
    43     6    22    1
    44    22    23    1
    45    22    24    1
    46    16    17   ar
    47    17    18   ar
    48    18    14   ar
    49    36    31   ar
    50    43    39   ar
    51    50    45   ar
    52    11    12    1
    53     4     5    1
@<TRIPOS>MOLECULE
*****
 50 53 0 0 0
SMALL
GASTEIGER

@<TRIPOS>ATOM
      1 C           4.0410   -0.5545   23.3237 C.3     1  UNL1        0.0777
      2 C           3.6822    0.0274   25.8303 C.2     1  UNL1        0.2403
      3 O           3.7871   -1.4268   26.1828 O.2     1  UNL1       -0.2733
      4 N           3.8092    0.4635   24.4007 N.am    1  UNL1       -0.3042
      5 H           3.7403    1.4179   24.1693 H       1  UNL1        0.1494
      6 C           3.4504    1.0454   26.9072 C.3     1  UNL1        0.1496
      7 N          -0.3393    1.4257   28.0222 N.am    1  UNL1       -0.2567
      8 C          -1.3944    0.6379   28.7407 C.3     1  UNL1        0.1168
      9 C           1.0280    0.8416   27.8240 C.2     1  UNL1        0.3046
     10 O           1.3403   -0.5301   28.3442 O.2     1  UNL1       -0.2526
     11 N           2.0831    1.6294   27.1055 N.am    1  UNL1       -0.2824
     12 H           1.8782    2.5298   26.7640 H       1  UNL1        0.1514
     13 C          -0.6516    2.7975   27.5020 C.3     1  UNL1        0.1413
     14 C          -0.6727    3.1293   23.6348 C.ar    1  UNL1        0.0875
     15 N           0.0392    2.8266   24.9199 N.ar    1  UNL1       -0.2453
     16 C          -0.9393    2.9990   26.0437 C.ar    1  UNL1        0.0858
     17 C          -2.2560    3.4083   25.4531 C.ar    1  UNL1        0.0530
     18 S          -2.0913    3.4889   23.9643 S.2     1  UNL1       -0.0705
     19 C          -0.9406    2.7973   21.0720 C.3     1  UNL1        0.0069
     20 C          -0.0717    3.0810   22.2614 C.3     1  UNL1        0.0465
     21 C           1.3982    3.3164   22.0773 C.3     1  UNL1        0.0069
     22 C           4.5859    1.4794   27.7860 C.3     1  UNL1        0.0270
     23 C           5.3643    2.7167   27.4493 C.3     1  UNL1        0.0022
     24 C           4.9432    0.6762   29.0014 C.3     1  UNL1        0.0022
     25 C           5.3966   -1.1745   23.1570 C.3     1  UNL1        0.0415
     26 C           5.5581   -2.6625   23.2560 C.3     1  UNL1        0.0988
     27 N           5.9389   -3.4580   22.0426 N.am    1  UNL1       -0.2418
     28 C           7.2699   -4.1472   21.9850 C.2     1  UNL1        0.4055
     29 O           7.6507   -4.9427   20.7717 O.2     1  UNL1       -0.2262
     30 C           4.9887   -3.5641   20.8868 C.3     1  UNL1        0.1234
     31 C           5.0774   -2.5885   19.7509 C.ar    1  UNL1       -0.0022
     32 C           3.9811   -2.5254   18.7290 C.ar    1  UNL1       -0.0026
     33 C           4.0699   -1.5498   17.5932 C.ar    1  UNL1       -0.0003
     34 C           5.2549   -0.6373   17.4791 C.ar    1  UNL1       -0.0000
     35 C           6.3512   -0.7004   18.5009 C.ar    1  UNL1       -0.0003
     36 C           6.2625   -1.6760   19.6368 C.ar    1  UNL1       -0.0026
     37 O           8.2201   -4.0410   23.1409 O.3     1  UNL1       -0.4289
     38 C           8.8115   -5.2816   23.7420 C.3     1  UNL1        0.2447
     39 C           8.0754   -6.0152   24.8236 C.ar    1  UNL1        0.0714
     40 C           7.1599   -5.4004   25.8403 C.ar    1  UNL1        0.1053
     41 N           6.6443   -6.4977   26.7235 N.ar    1  UNL1       -0.2350
     42 C           7.2413   -7.7908   26.2527 C.ar    1  UNL1        0.1343
     43 S           8.1257   -7.4926   25.0785 S.2     1  UNL1       -0.0652
     44 C           2.9171   -0.9526   22.4135 C.3     1  UNL1        0.0459
     45 C           2.6467   -0.1640   21.1665 C.ar    1  UNL1       -0.0205
     46 C           3.6378    0.8591   20.6965 C.ar    1  UNL1       -0.0042
     47 C           3.3675    1.6477   19.4495 C.ar    1  UNL1       -0.0003
     48 C           2.1060    1.4133   18.6725 C.ar    1  UNL1       -0.0000
     49 C           1.1148    0.3901   19.1426 C.ar    1  UNL1       -0.0003
     50 C           1.3852   -0.3985   20.3896 C.ar    1  UNL1       -0.0042
@<TRIPOS>BOND
     1    19    20    1
     2    20    21    1
     3    20    14    1
     4    14    15   ar
     5    15    16   ar
     6    16    13    1
     7    13     7    1
     8     7     8    1
     9     7     9   am
    10     9    10    2
    11     9    11   am
    12     6    11    1
    13     6     2    1
    14     2     3    2
    15     2     4   am
    16     4     1    1
    17     1    25    1
    18    25    26    1
    19    26    27    1
    20    27    30    1
    21    30    31    1
    22    31    32   ar
    23    32    33   ar
    24    33    34   ar
    25    34    35   ar
    26    35    36   ar
    27    27    28   am
    28    28    29    2
    29    28    37    1
    30    37    38    1
    31    38    39    1
    32    39    40   ar
    33    40    41   ar
    34    41    42   ar
    35    42    43   ar
    36     1    44    1
    37    44    45    1
    38    45    46   ar
    39    46    47   ar
    40    47    48   ar
    41    48    49   ar
    42    49    50   ar
    43     6    22    1
    44    22    23    1
    45    22    24    1
    46    16    17   ar
    47    17    18   ar
    48    18    14   ar
    49    36    31   ar
    50    43    39   ar
    51    50    45   ar
    52    11    12    1
    53     4     5    1
@<TRIPOS>MOLECULE
*****
 50 53 0 0 0
SMALL
GASTEIGER

@<TRIPOS>ATOM
      1 C           5.1202   -1.1525   24.7863 C.3     1  UNL1        0.0777
      2 C           6.0961   -1.5893   27.1541 C.2     1  UNL1        0.2403
      3 O           4.7156   -1.8643   27.6724 O.2     1  UNL1       -0.2733
      4 N           6.2984   -1.2334   25.7111 N.am    1  UNL1       -0.3042
      5 H           7.2045   -1.0530   25.3710 H       1  UNL1        0.1494
      6 C           7.2743   -1.6703   28.0790 C.3     1  UNL1        0.1496
      7 N           7.7088   -5.0342   30.1394 N.am    1  UNL1       -0.2567
      8 C           7.1031   -5.7233   31.3261 C.3     1  UNL1        0.1168
      9 C           7.1887   -3.6967   29.7025 C.2     1  UNL1        0.3046
     10 O           6.0629   -3.0484   30.4524 O.2     1  UNL1       -0.2526
     11 N           7.7944   -3.0076   28.5158 N.am    1  UNL1       -0.2824
     12 H           8.5333   -3.4332   28.0237 H       1  UNL1        0.1514
     13 C           8.8346   -5.6825   29.3896 C.3     1  UNL1        0.1413
     14 C           8.3263   -6.6525   25.6658 C.ar    1  UNL1        0.0875
     15 N           8.6583   -5.6412   26.7227 N.ar    1  UNL1       -0.2453
     16 C           8.5782   -6.3217   28.0571 C.ar    1  UNL1        0.0858
     17 C           8.1966   -7.7537   27.8249 C.ar    1  UNL1        0.0530
     18 S           8.0410   -7.9582   26.3470 S.2     1  UNL1       -0.0705
     19 C           7.5785   -5.1941   23.6501 C.3     1  UNL1        0.0069
     20 C           8.2866   -6.4023   24.1875 C.3     1  UNL1        0.0465
     21 C           8.9550   -7.3602   23.2464 C.3     1  UNL1        0.0069
     22 C           7.9325   -0.4138   28.5669 C.3     1  UNL1        0.0270
     23 C           7.3526    0.3331   29.7313 C.3     1  UNL1        0.0022
     24 C           9.1706    0.0958   27.8904 C.3     1  UNL1        0.0022
     25 C           4.3734    0.1394   24.6343 C.3     1  UNL1        0.0415
     26 C           2.8741    0.1383   24.5904 C.3     1  UNL1        0.0988
     27 N           2.1516    1.0221   23.6172 N.am    1  UNL1       -0.2418
     28 C           0.7117    1.3731   23.8490 C.2     1  UNL1        0.4055
     29 O          -0.0108    2.2568   22.8759 O.2     1  UNL1       -0.2262
     30 C           2.8689    1.5548   22.4124 C.3     1  UNL1        0.1234
     31 C           3.0514    0.6862   21.2032 C.ar    1  UNL1       -0.0022
     32 C           3.9661    1.1225   20.0974 C.ar    1  UNL1       -0.0026
     33 C           4.1486    0.2538   18.8883 C.ar    1  UNL1       -0.0003
     34 C           3.4163   -1.0512   18.7849 C.ar    1  UNL1       -0.0000
     35 C           2.5015   -1.4875   19.8907 C.ar    1  UNL1       -0.0003
     36 C           2.3190   -0.6188   21.0998 C.ar    1  UNL1       -0.0026
     37 O          -0.0056    0.8403   25.0539 O.3     1  UNL1       -0.4289
     38 C          -0.2894    1.7430   26.2177 C.3     1  UNL1        0.2447
     39 C           0.1006    1.3242   27.6042 C.ar    1  UNL1        0.0714
     40 C          -0.5819    0.2774   28.4339 C.ar    1  UNL1        0.1053
     41 N           0.1373    0.1850   29.7470 N.ar    1  UNL1       -0.2350
     42 C           1.2643    1.1748   29.7289 C.ar    1  UNL1        0.1343
     43 S           1.2416    1.8788   28.4046 S.2     1  UNL1       -0.0652
     44 C           4.6888   -2.3636   24.0135 C.3     1  UNL1        0.0459
     45 C           5.1915   -2.5806   22.6170 C.ar    1  UNL1       -0.0205
     46 C           4.6738   -3.7296   21.8036 C.ar    1  UNL1       -0.0042
     47 C           5.1766   -3.9466   20.4071 C.ar    1  UNL1       -0.0003
     48 C           6.1970   -3.0145   19.8240 C.ar    1  UNL1       -0.0000
     49 C           6.7147   -1.8654   20.6375 C.ar    1  UNL1       -0.0003
     50 C           6.2119   -1.6485   22.0340 C.ar    1  UNL1       -0.0042
@<TRIPOS>BOND
     1    19    20    1
     2    20    21    1
     3    20    14    1
     4    14    15   ar
     5    15    16   ar
     6    16    13    1
     7    13     7    1
     8     7     8    1
     9     7     9   am
    10     9    10    2
    11     9    11   am
    12     6    11    1
    13     6     2    1
    14     2     3    2
    15     2     4   am
    16     4     1    1
    17     1    25    1
    18    25    26    1
    19    26    27    1
    20    27    30    1
    21    30    31    1
    22    31    32   ar
    23    32    33   ar
    24    33    34   ar
    25    34    35   ar
    26    35    36   ar
    27    27    28   am
    28    28    29    2
    29    28    37    1
    30    37    38    1
    31    38    39    1
    32    39    40   ar
    33    40    41   ar
    34    41    42   ar
    35    42    43   ar
    36     1    44    1
    37    44    45    1
    38    45    46   ar
    39    46    47   ar
    40    47    48   ar
    41    48    49   ar
    42    49    50   ar
    43     6    22    1
    44    22    23    1
    45    22    24    1
    46    16    17   ar
    47    17    18   ar
    48    18    14   ar
    49    36    31   ar
    50    43    39   ar
    51    50    45   ar
    52    11    12    1
    53     4     5    1
@<TRIPOS>MOLECULE
*****
 50 53 0 0 0
SMALL
GASTEIGER

@<TRIPOS>ATOM
      1 C           6.0779   -2.9816   23.5726 C.3     1  UNL1        0.0777
      2 C           7.0622   -3.7668   25.8452 C.2     1  UNL1        0.2403
      3 O           8.4467   -3.4790   25.3450 O.2     1  UNL1       -0.2733
      4 N           5.8778   -3.5181   24.9590 N.am    1  UNL1       -0.3042
      5 H           4.9691   -3.7070   25.2874 H       1  UNL1        0.1494
      6 C           6.8621   -4.3033   27.2316 C.3     1  UNL1        0.1496
      7 N           6.7718   -1.5213   30.0604 N.am    1  UNL1       -0.2567
      8 C           7.6981   -0.5403   30.7160 C.3     1  UNL1        0.1168
      9 C           7.2801   -2.4218   28.9738 C.2     1  UNL1        0.3046
     10 O           8.7146   -2.3414   28.5428 O.2     1  UNL1       -0.2526
     11 N           6.3539   -3.4028   28.3182 N.am    1  UNL1       -0.2824
     12 H           5.4124   -3.4555   28.6011 H       1  UNL1        0.1514
     13 C           5.3374   -1.6017   30.4914 C.3     1  UNL1        0.1413
     14 C           4.0692    0.1982   33.6880 C.ar    1  UNL1        0.0875
     15 N           4.2869    0.1612   32.2043 N.ar    1  UNL1       -0.2453
     16 C           4.9400   -1.1457   31.8640 C.ar    1  UNL1        0.0858
     17 C           5.1259   -1.9163   33.1374 C.ar    1  UNL1        0.0530
     18 S           4.5878   -1.0858   34.2647 S.2     1  UNL1       -0.0705
     19 C           3.8459    1.5703   35.8828 C.3     1  UNL1        0.0069
     20 C           3.4430    1.3218   34.4594 C.3     1  UNL1        0.0465
     21 C           2.4138    2.1969   33.8076 C.3     1  UNL1        0.0069
     22 C           7.1702   -5.7403   27.5314 C.3     1  UNL1        0.0270
     23 C           7.6397   -6.1371   28.8997 C.3     1  UNL1        0.0022
     24 C           7.0088   -6.7807   26.4629 C.3     1  UNL1        0.0022
     25 C           6.0389   -1.5022   23.3280 C.3     1  UNL1        0.0415
     26 C           5.1174   -0.6333   24.1317 C.3     1  UNL1        0.0988
     27 N           3.6798   -0.4898   23.7282 N.am    1  UNL1       -0.2418
     28 C           2.7753    0.4324   24.4907 C.2     1  UNL1        0.4055
     29 O           1.3378    0.5759   24.0872 O.2     1  UNL1       -0.2262
     30 C           3.1468   -1.2684   22.5622 C.3     1  UNL1        0.1234
     31 C           3.0565   -0.6260   21.2096 C.ar    1  UNL1       -0.0022
     32 C           1.7697   -0.6750   20.4405 C.ar    1  UNL1       -0.0026
     33 C           1.6795   -0.0326   19.0880 C.ar    1  UNL1       -0.0003
     34 C           2.8760    0.6587   18.5047 C.ar    1  UNL1       -0.0000
     35 C           4.1628    0.7078   19.2739 C.ar    1  UNL1       -0.0003
     36 C           4.2531    0.0654   20.6263 C.ar    1  UNL1       -0.0026
     37 O           3.3084    1.2110   25.6568 O.3     1  UNL1       -0.4289
     38 C           3.3937    0.5703   27.0104 C.3     1  UNL1        0.2447
     39 C           2.1720    0.4805   27.8760 C.ar    1  UNL1        0.0714
     40 C           2.0172   -0.3781   29.0962 C.ar    1  UNL1        0.1053
     41 N           0.6401   -0.1558   29.6478 N.ar    1  UNL1       -0.2350
     42 C          -0.0562    0.8403   28.7684 C.ar    1  UNL1        0.1343
     43 S           0.8906    1.2335   27.6735 S.2     1  UNL1       -0.0652
     44 C           6.3172   -3.9245   22.4308 C.3     1  UNL1        0.0459
     45 C           5.8022   -3.5908   21.0621 C.ar    1  UNL1       -0.0205
     46 C           6.6597   -2.8148   20.1069 C.ar    1  UNL1       -0.0042
     47 C           6.1448   -2.4810   18.7380 C.ar    1  UNL1       -0.0003
     48 C           4.7724   -2.9234   18.3245 C.ar    1  UNL1       -0.0000
     49 C           3.9150   -3.6995   19.2799 C.ar    1  UNL1       -0.0003
     50 C           4.4299   -4.0332   20.6486 C.ar    1  UNL1       -0.0042
@<TRIPOS>BOND
     1    19    20    1
     2    20    21    1
     3    20    14    1
     4    14    15   ar
     5    15    16   ar
     6    16    13    1
     7    13     7    1
     8     7     8    1
     9     7     9   am
    10     9    10    2
    11     9    11   am
    12     6    11    1
    13     6     2    1
    14     2     3    2
    15     2     4   am
    16     4     1    1
    17     1    25    1
    18    25    26    1
    19    26    27    1
    20    27    30    1
    21    30    31    1
    22    31    32   ar
    23    32    33   ar
    24    33    34   ar
    25    34    35   ar
    26    35    36   ar
    27    27    28   am
    28    28    29    2
    29    28    37    1
    30    37    38    1
    31    38    39    1
    32    39    40   ar
    33    40    41   ar
    34    41    42   ar
    35    42    43   ar
    36     1    44    1
    37    44    45    1
    38    45    46   ar
    39    46    47   ar
    40    47    48   ar
    41    48    49   ar
    42    49    50   ar
    43     6    22    1
    44    22    23    1
    45    22    24    1
    46    16    17   ar
    47    17    18   ar
    48    18    14   ar
    49    36    31   ar
    50    43    39   ar
    51    50    45   ar
    52    11    12    1
    53     4     5    1
