@<TRIPOS>MOLECULE
*****
 37 40 0 0 0
SMALL
GASTEIGER

@<TRIPOS>ATOM
      1 C          -7.2468  -17.0924   23.3920 C.ar    1  UNL1        0.0768
      2 N          -5.9236  -16.3921   23.4846 N.ar    1  UNL1       -0.2480
      3 C          -4.6913  -17.0401   22.9262 C.ar    1  UNL1        0.0812
      4 C          -3.3681  -16.3399   23.0189 C.ar    1  UNL1        0.0214
      5 C          -2.1359  -16.9878   22.4605 C.ar    1  UNL1        0.0312
      6 C          -2.2270  -18.3361   21.8094 C.ar    1  UNL1        0.1402
      7 F          -0.9948  -18.9841   21.2510 F       1  UNL1       -0.2042
      8 C          -3.5503  -19.0364   21.7167 C.ar    1  UNL1        0.0313
      9 C          -4.7824  -18.3884   22.2751 C.ar    1  UNL1        0.0243
     10 C          -6.1057  -19.0886   22.1825 C.ar    1  UNL1        0.0563
     11 C          -7.3379  -18.4406   22.7409 C.ar    1  UNL1        0.0196
     12 C          -8.6612  -19.1409   22.6482 C.ar    1  UNL1        0.0013
     13 C          -9.4072  -19.1656   21.3471 C.ar    1  UNL1        0.0000
     14 C         -10.7304  -19.8658   21.2544 C.ar    1  UNL1        0.0000
     15 C         -11.3077  -20.5413   22.4628 C.ar    1  UNL1        0.0000
     16 C         -10.5618  -20.5166   23.7640 C.ar    1  UNL1        0.0000
     17 C          -9.2385  -19.8164   23.8567 C.ar    1  UNL1        0.0000
     18 C          -6.1968  -20.4369   21.5314 C.2     1  UNL1        0.2492
     19 O          -6.0887  -21.6803   22.3633 O.2     1  UNL1       -0.2699
     20 N          -6.3960  -20.5417   20.0483 N.am    1  UNL1       -0.2726
     21 C          -6.4871  -21.8899   19.3973 C.3     1  UNL1        0.1152
     22 C          -6.5041  -19.2982   19.2164 C.3     1  UNL1        0.1152
     23 C          -8.8862  -16.7060   25.3702 C.3     1  UNL1        0.0278
     24 C          -8.4790  -16.4444   23.9504 C.3     1  UNL1        0.1109
     25 N          -9.3041  -15.5348   23.0891 N.pl3   1  UNL1       -0.3142
     26 H          -9.0256  -14.6006   22.9517 H       1  UNL1        0.1485
     27 C         -10.5533  -16.0487   22.4370 C.ar    1  UNL1        0.1429
     28 N         -11.4585  -16.9838   23.1829 N.ar    1  UNL1       -0.2084
     29 C         -12.7078  -17.4977   22.5308 C.ar    1  UNL1        0.2012
     30 N         -13.0520  -17.0765   21.1330 N.ar    1  UNL1       -0.2087
     31 C         -12.1469  -16.1413   20.3871 C.ar    1  UNL1        0.1396
     32 N         -12.4911  -15.7201   18.9892 N.pl3   1  UNL1       -0.3420
     33 C         -10.8975  -15.6274   21.0391 C.ar    1  UNL1        0.1308
     34 H         -13.3111  -16.0574   18.5613 H       1  UNL1        0.1437
     35 H         -11.8970  -15.1063   18.4997 H       1  UNL1        0.1437
     36 C          -9.9925  -14.6923   20.2933 C.1     1  UNL1        0.1061
     37 N          -9.0874  -13.7572   19.5474 N.1     1  UNL1       -0.1906
@<TRIPOS>BOND
     1    24    23    1
     2    24    25    1
     3    25    27    1
     4    27    28   ar
     5    28    29   ar
     6    29    30   ar
     7    30    31   ar
     8    31    32    1
     9    31    33   ar
    10    33    36    1
    11    36    37    3
    12    24     1    1
    13     1     2   ar
    14     2     3   ar
    15     3     4   ar
    16     4     5   ar
    17     5     6   ar
    18     6     7    1
    19     6     8   ar
    20     8     9   ar
    21     9    10   ar
    22    10    18    1
    23    18    19    2
    24    18    20   am
    25    20    21    1
    26    20    22    1
    27    10    11   ar
    28    11    12    1
    29    12    13   ar
    30    13    14   ar
    31    14    15   ar
    32    15    16   ar
    33    16    17   ar
    34    33    27   ar
    35    11     1   ar
    36    17    12   ar
    37     9     3   ar
    38    25    26    1
    39    32    34    1
    40    32    35    1
@<TRIPOS>MOLECULE
*****
 37 40 0 0 0
SMALL
GASTEIGER

@<TRIPOS>ATOM
      1 C           3.3598   -0.5509   24.7474 C.ar    1  UNL1        0.0768
      2 N           4.1443   -1.7308   24.2553 N.ar    1  UNL1       -0.2480
      3 C           4.0676   -2.1335   22.8123 C.ar    1  UNL1        0.0812
      4 C           4.8521   -3.3134   22.3202 C.ar    1  UNL1        0.0214
      5 C           4.7754   -3.7160   20.8773 C.ar    1  UNL1        0.0312
      6 C           3.9142   -2.9387   19.9265 C.ar    1  UNL1        0.1402
      7 F           3.8375   -3.3414   18.4836 F       1  UNL1       -0.2042
      8 C           3.1297   -1.7587   20.4186 C.ar    1  UNL1        0.0313
      9 C           3.2064   -1.3561   21.8615 C.ar    1  UNL1        0.0243
     10 C           2.4218   -0.1761   22.3537 C.ar    1  UNL1        0.0563
     11 C           2.4986    0.2265   23.7966 C.ar    1  UNL1        0.0196
     12 C           1.7140    1.4065   24.2887 C.ar    1  UNL1        0.0013
     13 C           0.3391    1.2095   24.8552 C.ar    1  UNL1        0.0000
     14 C          -0.4454    2.3894   25.3473 C.ar    1  UNL1        0.0000
     15 C           0.1449    3.7663   25.2730 C.ar    1  UNL1        0.0000
     16 C           1.5198    3.9633   24.7065 C.ar    1  UNL1        0.0000
     17 C           2.3044    2.7834   24.2144 C.ar    1  UNL1        0.0000
     18 C           1.5606    0.6012   21.4029 C.2     1  UNL1        0.2492
     19 O           0.1154    0.2379   21.2317 O.2     1  UNL1       -0.2699
     20 N           2.1447    1.7419   20.6232 N.am    1  UNL1       -0.2726
     21 C           1.2834    2.5193   19.6724 C.3     1  UNL1        0.1152
     22 C           3.5899    2.1052   20.7944 C.3     1  UNL1        0.1152
     23 C           4.2484    1.0470   26.5933 C.3     1  UNL1        0.0278
     24 C           3.4365   -0.1482   26.1903 C.3     1  UNL1        0.1109
     25 N           2.7013   -0.9407   27.2302 N.pl3   1  UNL1       -0.3142
     26 H           2.6082   -1.9158   27.1313 H       1  UNL1        0.1485
     27 C           2.1079   -0.2475   28.4207 C.ar    1  UNL1        0.1429
     28 N           0.7615    0.4052   28.3146 N.ar    1  UNL1       -0.2084
     29 C           0.1681    1.0984   29.5051 C.ar    1  UNL1        0.2012
     30 N           0.9211    1.1389   30.8018 N.ar    1  UNL1       -0.2087
     31 C           2.2675    0.4863   30.9079 C.ar    1  UNL1        0.1396
     32 N           3.0205    0.5269   32.2046 N.pl3   1  UNL1       -0.3420
     33 C           2.8609   -0.2069   29.7174 C.ar    1  UNL1        0.1308
     34 H           2.6311    0.9818   32.9860 H       1  UNL1        0.1437
     35 H           3.9042    0.0985   32.2742 H       1  UNL1        0.1437
     36 C           4.2073   -0.8596   29.8235 C.1     1  UNL1        0.1061
     37 N           5.5537   -1.5122   29.9297 N.1     1  UNL1       -0.1906
@<TRIPOS>BOND
     1    24    23    1
     2    24    25    1
     3    25    27    1
     4    27    28   ar
     5    28    29   ar
     6    29    30   ar
     7    30    31   ar
     8    31    32    1
     9    31    33   ar
    10    33    36    1
    11    36    37    3
    12    24     1    1
    13     1     2   ar
    14     2     3   ar
    15     3     4   ar
    16     4     5   ar
    17     5     6   ar
    18     6     7    1
    19     6     8   ar
    20     8     9   ar
    21     9    10   ar
    22    10    18    1
    23    18    19    2
    24    18    20   am
    25    20    21    1
    26    20    22    1
    27    10    11   ar
    28    11    12    1
    29    12    13   ar
    30    13    14   ar
    31    14    15   ar
    32    15    16   ar
    33    16    17   ar
    34    33    27   ar
    35    11     1   ar
    36    17    12   ar
    37     9     3   ar
    38    25    26    1
    39    32    34    1
    40    32    35    1
@<TRIPOS>MOLECULE
*****
 37 40 0 0 0
SMALL
GASTEIGER

@<TRIPOS>ATOM
      1 C           4.8354   -3.0965   21.0265 C.ar    1  UNL1        0.0768
      2 N           5.6402   -3.9983   21.9148 N.ar    1  UNL1       -0.2480
      3 C           5.8512   -3.6383   23.3556 C.ar    1  UNL1        0.0812
      4 C           6.6560   -4.5400   24.2439 C.ar    1  UNL1        0.0214
      5 C           6.8669   -4.1800   25.6847 C.ar    1  UNL1        0.0312
      6 C           6.2730   -2.9182   26.2371 C.ar    1  UNL1        0.1402
      7 F           6.4840   -2.5582   27.6780 F       1  UNL1       -0.2042
      8 C           5.4683   -2.0165   25.3488 C.ar    1  UNL1        0.0313
      9 C           5.2573   -2.3765   23.9081 C.ar    1  UNL1        0.0243
     10 C           4.4525   -1.4747   23.0197 C.ar    1  UNL1        0.0563
     11 C           4.2416   -1.8348   21.5790 C.ar    1  UNL1        0.0196
     12 C           3.4367   -0.9330   20.6906 C.ar    1  UNL1        0.0013
     13 C           4.1128    0.1700   19.9314 C.ar    1  UNL1        0.0000
     14 C           3.3080    1.0717   19.0430 C.ar    1  UNL1        0.0000
     15 C           1.8272    0.8705   18.9139 C.ar    1  UNL1        0.0000
     16 C           1.1512   -0.2324   19.6731 C.ar    1  UNL1        0.0000
     17 C           1.9559   -1.1342   20.5615 C.ar    1  UNL1        0.0000
     18 C           3.8586   -0.2129   23.5722 C.2     1  UNL1        0.2492
     19 O           2.4639   -0.2194   24.1241 O.2     1  UNL1       -0.2699
     20 N           4.6596    1.0554   23.5728 N.am    1  UNL1       -0.2726
     21 C           4.0658    2.3172   24.1252 C.3     1  UNL1        0.1152
     22 C           6.0543    1.0618   23.0209 C.3     1  UNL1        0.1152
     23 C           3.2812   -3.9365   19.1214 C.3     1  UNL1        0.0278
     24 C           4.6244   -3.4566   19.5856 C.3     1  UNL1        0.1109
     25 N           5.7566   -3.3367   18.6091 N.pl3   1  UNL1       -0.3142
     26 H           6.1387   -4.1449   18.1967 H       1  UNL1        0.1485
     27 C           6.3067   -1.9854   18.2608 C.ar    1  UNL1        0.1429
     28 N           5.6291   -1.1455   17.2189 N.ar    1  UNL1       -0.2084
     29 C           6.1792    0.2058   16.8706 C.ar    1  UNL1        0.2012
     30 N           7.4069    0.7173   17.5643 N.ar    1  UNL1       -0.2087
     31 C           8.0844   -0.1224   18.6062 C.ar    1  UNL1        0.1396
     32 N           9.3121    0.3891   19.2998 N.pl3   1  UNL1       -0.3420
     33 C           7.5344   -1.4738   18.9545 C.ar    1  UNL1        0.1308
     34 H           9.6731    1.2761   19.0712 H       1  UNL1        0.1437
     35 H           9.7568   -0.1620   19.9837 H       1  UNL1        0.1437
     36 C           8.2119   -2.3136   19.9964 C.1     1  UNL1        0.1061
     37 N           8.8895   -3.1533   21.0383 N.1     1  UNL1       -0.1906
@<TRIPOS>BOND
     1    24    23    1
     2    24    25    1
     3    25    27    1
     4    27    28   ar
     5    28    29   ar
     6    29    30   ar
     7    30    31   ar
     8    31    32    1
     9    31    33   ar
    10    33    36    1
    11    36    37    3
    12    24     1    1
    13     1     2   ar
    14     2     3   ar
    15     3     4   ar
    16     4     5   ar
    17     5     6   ar
    18     6     7    1
    19     6     8   ar
    20     8     9   ar
    21     9    10   ar
    22    10    18    1
    23    18    19    2
    24    18    20   am
    25    20    21    1
    26    20    22    1
    27    10    11   ar
    28    11    12    1
    29    12    13   ar
    30    13    14   ar
    31    14    15   ar
    32    15    16   ar
    33    16    17   ar
    34    33    27   ar
    35    11     1   ar
    36    17    12   ar
    37     9     3   ar
    38    25    26    1
    39    32    34    1
    40    32    35    1
@<TRIPOS>MOLECULE
*****
 37 40 0 0 0
SMALL
GASTEIGER

@<TRIPOS>ATOM
      1 C           2.6586    0.2802   24.3925 C.ar    1  UNL1        0.0768
      2 N           3.4693   -0.9574   24.1455 N.ar    1  UNL1       -0.2480
      3 C           3.5385   -1.5461   22.7675 C.ar    1  UNL1        0.0812
      4 C           4.3492   -2.7837   22.5204 C.ar    1  UNL1        0.0214
      5 C           4.4184   -3.3722   21.1425 C.ar    1  UNL1        0.0312
      6 C           3.6768   -2.7232   20.0116 C.ar    1  UNL1        0.1402
      7 F           3.7460   -3.3119   18.6336 F       1  UNL1       -0.2042
      8 C           2.8661   -1.4856   20.2587 C.ar    1  UNL1        0.0313
      9 C           2.7970   -0.8971   21.6366 C.ar    1  UNL1        0.0243
     10 C           1.9862    0.3406   21.8837 C.ar    1  UNL1        0.0563
     11 C           1.9170    0.9292   23.2616 C.ar    1  UNL1        0.0196
     12 C           1.1063    2.1668   23.5087 C.ar    1  UNL1        0.0013
     13 C           1.7292    3.5196   23.3297 C.ar    1  UNL1        0.0000
     14 C           0.9186    4.7572   23.5768 C.ar    1  UNL1        0.0000
     15 C          -0.5150    4.6421   24.0029 C.ar    1  UNL1        0.0000
     16 C          -1.1379    3.2893   24.1819 C.ar    1  UNL1        0.0000
     17 C          -0.3273    2.0517   23.9348 C.ar    1  UNL1        0.0000
     18 C           1.2447    0.9896   20.7528 C.2     1  UNL1        0.2492
     19 O          -0.1861    0.6259   20.4874 O.2     1  UNL1       -0.2699
     20 N           1.9340    2.0025   19.8873 N.am    1  UNL1       -0.2726
     21 C           1.1925    2.6515   18.7564 C.3     1  UNL1        0.1152
     22 C           3.3648    2.3662   20.1527 C.3     1  UNL1        0.1152
     23 C           3.6795    1.7794   26.2527 C.3     1  UNL1        0.0278
     24 C           2.5893    0.8688   25.7705 C.3     1  UNL1        0.1109
     25 N           1.4301    0.5468   26.6662 N.pl3   1  UNL1       -0.3142
     26 H           0.5486    0.3449   26.2771 H       1  UNL1        0.1485
     27 C           1.6139    0.5326   28.1548 C.ar    1  UNL1        0.1429
     28 N           2.3397   -0.6049   28.8101 N.ar    1  UNL1       -0.2084
     29 C           2.5235   -0.6191   30.2987 C.ar    1  UNL1        0.2012
     30 N           1.9815    0.5041   31.1321 N.ar    1  UNL1       -0.2087
     31 C           1.2556    1.6415   30.4769 C.ar    1  UNL1        0.1396
     32 N           0.7136    2.7647   31.3103 N.pl3   1  UNL1       -0.3420
     33 C           1.0718    1.6558   28.9883 C.ar    1  UNL1        0.1308
     34 H           0.8342    2.7554   32.2874 H       1  UNL1        0.1437
     35 H           0.2371    3.5113   30.8803 H       1  UNL1        0.1437
     36 C           0.3459    2.7933   28.3331 C.1     1  UNL1        0.1061
     37 N          -0.3799    3.9307   27.6779 N.1     1  UNL1       -0.1906
@<TRIPOS>BOND
     1    24    23    1
     2    24    25    1
     3    25    27    1
     4    27    28   ar
     5    28    29   ar
     6    29    30   ar
     7    30    31   ar
     8    31    32    1
     9    31    33   ar
    10    33    36    1
    11    36    37    3
    12    24     1    1
    13     1     2   ar
    14     2     3   ar
    15     3     4   ar
    16     4     5   ar
    17     5     6   ar
    18     6     7    1
    19     6     8   ar
    20     8     9   ar
    21     9    10   ar
    22    10    18    1
    23    18    19    2
    24    18    20   am
    25    20    21    1
    26    20    22    1
    27    10    11   ar
    28    11    12    1
    29    12    13   ar
    30    13    14   ar
    31    14    15   ar
    32    15    16   ar
    33    16    17   ar
    34    33    27   ar
    35    11     1   ar
    36    17    12   ar
    37     9     3   ar
    38    25    26    1
    39    32    34    1
    40    32    35    1
@<TRIPOS>MOLECULE
*****
 37 40 0 0 0
SMALL
GASTEIGER

@<TRIPOS>ATOM
      1 C          -7.3003  -16.8430   23.4289 C.ar    1  UNL1        0.0768
      2 N          -5.9891  -16.1146   23.4397 N.ar    1  UNL1       -0.2480
      3 C          -4.7609  -16.7725   22.8840 C.ar    1  UNL1        0.0812
      4 C          -3.4498  -16.0442   22.8948 C.ar    1  UNL1        0.0214
      5 C          -2.2217  -16.7021   22.3391 C.ar    1  UNL1        0.0312
      6 C          -2.3048  -18.0885   21.7725 C.ar    1  UNL1        0.1402
      7 F          -1.0767  -18.7465   21.2168 F       1  UNL1       -0.2042
      8 C          -3.6160  -18.8169   21.7617 C.ar    1  UNL1        0.0313
      9 C          -4.8441  -18.1589   22.3174 C.ar    1  UNL1        0.0243
     10 C          -6.1554  -18.8873   22.3066 C.ar    1  UNL1        0.0563
     11 C          -7.3834  -18.2294   22.8623 C.ar    1  UNL1        0.0196
     12 C          -8.6947  -18.9578   22.8515 C.ar    1  UNL1        0.0013
     13 C          -9.3037  -19.4251   24.1402 C.ar    1  UNL1        0.0000
     14 C         -10.6149  -20.1534   24.1294 C.ar    1  UNL1        0.0000
     15 C         -11.3171  -20.4145   22.8299 C.ar    1  UNL1        0.0000
     16 C         -10.7081  -19.9472   21.5412 C.ar    1  UNL1        0.0000
     17 C          -9.3969  -19.2188   21.5520 C.ar    1  UNL1        0.0000
     18 C          -6.2385  -20.2737   21.7400 C.2     1  UNL1        0.2492
     19 O          -6.1849  -21.4619   22.6539 O.2     1  UNL1       -0.2699
     20 N          -6.3753  -20.4719   20.2594 N.am    1  UNL1       -0.2726
     21 C          -6.4584  -21.8583   19.6928 C.3     1  UNL1        0.1152
     22 C          -6.4289  -19.2838   19.3455 C.3     1  UNL1        0.1152
     23 C          -8.4553  -15.4335   25.2807 C.3     1  UNL1        0.0278
     24 C          -8.5284  -16.1850   23.9846 C.3     1  UNL1        0.1109
     25 N          -9.8296  -16.2785   23.2442 N.pl3   1  UNL1       -0.3142
     26 H         -10.5993  -16.7327   23.6570 H       1  UNL1        0.1485
     27 C          -9.9580  -15.6798   21.8749 C.ar    1  UNL1        0.1429
     28 N          -8.8713  -14.7963   21.3377 N.ar    1  UNL1       -0.2084
     29 C          -8.9996  -14.1976   19.9684 C.ar    1  UNL1        0.2012
     30 N         -10.2147  -14.4825   19.1362 N.ar    1  UNL1       -0.2087
     31 C         -11.3013  -15.3660   19.6733 C.ar    1  UNL1        0.1396
     32 N         -12.5164  -15.6508   18.8411 N.pl3   1  UNL1       -0.3420
     33 C         -11.1730  -15.9647   21.0427 C.ar    1  UNL1        0.1308
     34 H         -12.6006  -15.2579   17.9424 H       1  UNL1        0.1437
     35 H         -13.2296  -16.2307   19.1937 H       1  UNL1        0.1437
     36 C         -12.2597  -16.8481   21.5798 C.1     1  UNL1        0.1061
     37 N         -13.3463  -17.7316   22.1170 N.1     1  UNL1       -0.1906
@<TRIPOS>BOND
     1    24    23    1
     2    24    25    1
     3    25    27    1
     4    27    28   ar
     5    28    29   ar
     6    29    30   ar
     7    30    31   ar
     8    31    32    1
     9    31    33   ar
    10    33    36    1
    11    36    37    3
    12    24     1    1
    13     1     2   ar
    14     2     3   ar
    15     3     4   ar
    16     4     5   ar
    17     5     6   ar
    18     6     7    1
    19     6     8   ar
    20     8     9   ar
    21     9    10   ar
    22    10    18    1
    23    18    19    2
    24    18    20   am
    25    20    21    1
    26    20    22    1
    27    10    11   ar
    28    11    12    1
    29    12    13   ar
    30    13    14   ar
    31    14    15   ar
    32    15    16   ar
    33    16    17   ar
    34    33    27   ar
    35    11     1   ar
    36    17    12   ar
    37     9     3   ar
    38    25    26    1
    39    32    34    1
    40    32    35    1
@<TRIPOS>MOLECULE
*****
 37 40 0 0 0
SMALL
GASTEIGER

@<TRIPOS>ATOM
      1 C           4.4411   -1.3116   23.4276 C.ar    1  UNL1        0.0768
      2 N           3.8740   -0.6679   24.6580 N.ar    1  UNL1       -0.2480
      3 C           2.6530    0.1975   24.5569 C.ar    1  UNL1        0.0812
      4 C           2.0859    0.8413   25.7873 C.ar    1  UNL1        0.0214
      5 C           0.8649    1.7066   25.6861 C.ar    1  UNL1        0.0312
      6 C           0.2110    1.9282   24.3544 C.ar    1  UNL1        0.1402
      7 F          -1.0101    2.7936   24.2533 F       1  UNL1       -0.2042
      8 C           0.7780    1.2845   23.1240 C.ar    1  UNL1        0.0313
      9 C           1.9990    0.4191   23.2252 C.ar    1  UNL1        0.0243
     10 C           2.5661   -0.2247   21.9948 C.ar    1  UNL1        0.0563
     11 C           3.7871   -1.0900   22.0960 C.ar    1  UNL1        0.0196
     12 C           4.3542   -1.7338   20.8655 C.ar    1  UNL1        0.0013
     13 C           3.9132   -3.1115   20.4688 C.ar    1  UNL1        0.0000
     14 C           4.4802   -3.7553   19.2384 C.ar    1  UNL1        0.0000
     15 C           5.4884   -3.0215   18.4047 C.ar    1  UNL1        0.0000
     16 C           5.9294   -1.6438   18.8015 C.ar    1  UNL1        0.0000
     17 C           5.3624   -0.9999   20.0319 C.ar    1  UNL1        0.0000
     18 C           1.9122   -0.0031   20.6631 C.2     1  UNL1        0.2492
     19 O           0.8709   -0.9634   20.1698 O.2     1  UNL1       -0.2699
     20 N           2.2996    1.1790   19.8247 N.am    1  UNL1       -0.2726
     21 C           1.6457    1.4006   18.4931 C.3     1  UNL1        0.1152
     22 C           3.3409    2.1393   20.3180 C.3     1  UNL1        0.1152
     23 C           7.0178   -1.5962   23.2554 C.3     1  UNL1        0.0278
     24 C           5.6621   -2.1770   23.5288 C.3     1  UNL1        0.1109
     25 N           5.5275   -3.6232   23.9033 N.pl3   1  UNL1       -0.3142
     26 H           4.6344   -4.0289   23.9875 H       1  UNL1        0.1485
     27 C           6.7536   -4.4514   24.1497 C.ar    1  UNL1        0.1429
     28 N           7.4021   -5.1874   23.0149 N.ar    1  UNL1       -0.2084
     29 C           8.6282   -6.0156   23.2612 C.ar    1  UNL1        0.2012
     30 N           9.2058   -6.1078   24.6425 N.ar    1  UNL1       -0.2087
     31 C           8.5574   -5.3719   25.7773 C.ar    1  UNL1        0.1396
     32 N           9.1351   -5.4641   27.1585 N.pl3   1  UNL1       -0.3420
     33 C           7.3313   -4.5437   25.5309 C.ar    1  UNL1        0.1308
     34 H           9.9399   -6.0077   27.3202 H       1  UNL1        0.1437
     35 H           8.7095   -4.9811   27.9034 H       1  UNL1        0.1437
     36 C           6.6828   -3.8077   26.6658 C.1     1  UNL1        0.1061
     37 N           6.0344   -3.0718   27.8006 N.1     1  UNL1       -0.1906
@<TRIPOS>BOND
     1    24    23    1
     2    24    25    1
     3    25    27    1
     4    27    28   ar
     5    28    29   ar
     6    29    30   ar
     7    30    31   ar
     8    31    32    1
     9    31    33   ar
    10    33    36    1
    11    36    37    3
    12    24     1    1
    13     1     2   ar
    14     2     3   ar
    15     3     4   ar
    16     4     5   ar
    17     5     6   ar
    18     6     7    1
    19     6     8   ar
    20     8     9   ar
    21     9    10   ar
    22    10    18    1
    23    18    19    2
    24    18    20   am
    25    20    21    1
    26    20    22    1
    27    10    11   ar
    28    11    12    1
    29    12    13   ar
    30    13    14   ar
    31    14    15   ar
    32    15    16   ar
    33    16    17   ar
    34    33    27   ar
    35    11     1   ar
    36    17    12   ar
    37     9     3   ar
    38    25    26    1
    39    32    34    1
    40    32    35    1
@<TRIPOS>MOLECULE
*****
 37 40 0 0 0
SMALL
GASTEIGER

@<TRIPOS>ATOM
      1 C           3.4754   -0.3466   23.9713 C.ar    1  UNL1        0.0768
      2 N           2.8900    0.0579   25.2917 N.ar    1  UNL1       -0.2480
      3 C           1.6196    0.8542   25.3366 C.ar    1  UNL1        0.0812
      4 C           1.0342    1.2587   26.6571 C.ar    1  UNL1        0.0214
      5 C          -0.2362    2.0550   26.7019 C.ar    1  UNL1        0.0312
      6 C          -0.9211    2.4468   25.4262 C.ar    1  UNL1        0.1402
      7 F          -2.1916    3.2432   25.4711 F       1  UNL1       -0.2042
      8 C          -0.3358    2.0424   24.1058 C.ar    1  UNL1        0.0313
      9 C           0.9346    1.2461   24.0609 C.ar    1  UNL1        0.0243
     10 C           1.5201    0.8416   22.7404 C.ar    1  UNL1        0.0563
     11 C           2.7904    0.0452   22.6956 C.ar    1  UNL1        0.0196
     12 C           3.3759   -0.3593   21.3751 C.ar    1  UNL1        0.0013
     13 C           4.4532    0.4734   20.7457 C.ar    1  UNL1        0.0000
     14 C           5.0387    0.0689   19.4253 C.ar    1  UNL1        0.0000
     15 C           4.5468   -1.1681   18.7342 C.ar    1  UNL1        0.0000
     16 C           3.4695   -2.0008   19.3635 C.ar    1  UNL1        0.0000
     17 C           2.8840   -1.5963   20.6840 C.ar    1  UNL1        0.0000
     18 C           0.8351    1.2334   21.4648 C.2     1  UNL1        0.2492
     19 O          -0.1654    0.3093   20.8362 O.2     1  UNL1       -0.2699
     20 N           1.1506    2.5494   20.8177 N.am    1  UNL1       -0.2726
     21 C           0.4657    2.9412   19.5420 C.3     1  UNL1        0.1152
     22 C           2.1511    3.4735   21.4462 C.3     1  UNL1        0.1152
     23 C           6.0717   -0.4422   23.9581 C.3     1  UNL1        0.0278
     24 C           4.7458   -1.1429   23.9264 C.3     1  UNL1        0.1109
     25 N           4.6903   -2.6399   23.8498 N.pl3   1  UNL1       -0.3142
     26 H           3.9567   -3.1284   24.2886 H       1  UNL1        0.1485
     27 C           5.7525   -3.3927   23.1048 C.ar    1  UNL1        0.1429
     28 N           5.8038   -3.3322   21.6068 N.ar    1  UNL1       -0.2084
     29 C           6.8660   -4.0849   20.8618 C.ar    1  UNL1        0.2012
     30 N           7.8768   -4.8982   21.6146 N.ar    1  UNL1       -0.2087
     31 C           7.8256   -4.9587   23.1125 C.ar    1  UNL1        0.1396
     32 N           8.8365   -5.7719   23.8653 N.pl3   1  UNL1       -0.3420
     33 C           6.7633   -4.2059   23.8576 C.ar    1  UNL1        0.1308
     34 H           9.5336   -6.2659   23.3763 H       1  UNL1        0.1437
     35 H           8.8028   -5.8116   24.8484 H       1  UNL1        0.1437
     36 C           6.7121   -4.2664   25.3555 C.1     1  UNL1        0.1061
     37 N           6.6608   -4.3269   26.8534 N.1     1  UNL1       -0.1906
@<TRIPOS>BOND
     1    24    23    1
     2    24    25    1
     3    25    27    1
     4    27    28   ar
     5    28    29   ar
     6    29    30   ar
     7    30    31   ar
     8    31    32    1
     9    31    33   ar
    10    33    36    1
    11    36    37    3
    12    24     1    1
    13     1     2   ar
    14     2     3   ar
    15     3     4   ar
    16     4     5   ar
    17     5     6   ar
    18     6     7    1
    19     6     8   ar
    20     8     9   ar
    21     9    10   ar
    22    10    18    1
    23    18    19    2
    24    18    20   am
    25    20    21    1
    26    20    22    1
    27    10    11   ar
    28    11    12    1
    29    12    13   ar
    30    13    14   ar
    31    14    15   ar
    32    15    16   ar
    33    16    17   ar
    34    33    27   ar
    35    11     1   ar
    36    17    12   ar
    37     9     3   ar
    38    25    26    1
    39    32    34    1
    40    32    35    1
@<TRIPOS>MOLECULE
*****
 37 40 0 0 0
SMALL
GASTEIGER

@<TRIPOS>ATOM
      1 C           3.9057   -2.3189   20.4980 C.ar    1  UNL1        0.0768
      2 N           2.7005   -1.6861   19.8679 N.ar    1  UNL1       -0.2480
      3 C           1.9383   -0.6254   20.6056 C.ar    1  UNL1        0.0812
      4 C           0.7331    0.0074   19.9755 C.ar    1  UNL1        0.0214
      5 C          -0.0290    1.0680   20.7131 C.ar    1  UNL1        0.0312
      6 C           0.4141    1.4959   22.0808 C.ar    1  UNL1        0.1402
      7 F          -0.3481    2.5567   22.8184 F       1  UNL1       -0.2042
      8 C           1.6193    0.8632   22.7108 C.ar    1  UNL1        0.0313
      9 C           2.3814   -0.1975   21.9732 C.ar    1  UNL1        0.0243
     10 C           3.5866   -0.8303   22.6033 C.ar    1  UNL1        0.0563
     11 C           4.3488   -1.8910   21.8657 C.ar    1  UNL1        0.0196
     12 C           5.5540   -2.5238   22.4958 C.ar    1  UNL1        0.0013
     13 C           6.9049   -1.8930   22.3308 C.ar    1  UNL1        0.0000
     14 C           8.1101   -2.5258   22.9609 C.ar    1  UNL1        0.0000
     15 C           7.9645   -3.7893   23.7559 C.ar    1  UNL1        0.0000
     16 C           6.6136   -4.4201   23.9209 C.ar    1  UNL1        0.0000
     17 C           5.4084   -3.7874   23.2909 C.ar    1  UNL1        0.0000
     18 C           4.0297   -0.4024   23.9710 C.2     1  UNL1        0.2492
     19 O           3.5448   -1.1425   25.1822 O.2     1  UNL1       -0.2699
     20 N           4.9577    0.7657   24.1275 N.am    1  UNL1       -0.2726
     21 C           5.4008    1.1936   25.4952 C.3     1  UNL1        0.1152
     22 C           5.4427    1.5058   22.9163 C.3     1  UNL1        0.1152
     23 C           4.2053   -4.8057   19.8080 C.3     1  UNL1        0.0278
     24 C           4.6679   -3.3796   19.7604 C.3     1  UNL1        0.1109
     25 N           5.8926   -3.0142   18.9753 N.pl3   1  UNL1       -0.3142
     26 H           6.6688   -3.6198   18.9638 H       1  UNL1        0.1485
     27 C           5.9349   -1.7262   18.2078 C.ar    1  UNL1        0.1429
     28 N           4.7495   -1.2990   17.3938 N.ar    1  UNL1       -0.2084
     29 C           4.7917   -0.0109   16.6263 C.ar    1  UNL1        0.2012
     30 N           6.0192    0.8500   16.6728 N.ar    1  UNL1       -0.2087
     31 C           7.2045    0.4228   17.4868 C.ar    1  UNL1        0.1396
     32 N           8.4320    1.2837   17.5332 N.pl3   1  UNL1       -0.3420
     33 C           7.1623   -0.8653   18.2543 C.ar    1  UNL1        0.1308
     34 H           8.4597    2.1291   17.0295 H       1  UNL1        0.1437
     35 H           9.2099    1.0034   18.0675 H       1  UNL1        0.1437
     36 C           8.3476   -1.2924   19.0683 C.1     1  UNL1        0.1061
     37 N           9.5329   -1.7196   19.8823 N.1     1  UNL1       -0.1906
@<TRIPOS>BOND
     1    24    23    1
     2    24    25    1
     3    25    27    1
     4    27    28   ar
     5    28    29   ar
     6    29    30   ar
     7    30    31   ar
     8    31    32    1
     9    31    33   ar
    10    33    36    1
    11    36    37    3
    12    24     1    1
    13     1     2   ar
    14     2     3   ar
    15     3     4   ar
    16     4     5   ar
    17     5     6   ar
    18     6     7    1
    19     6     8   ar
    20     8     9   ar
    21     9    10   ar
    22    10    18    1
    23    18    19    2
    24    18    20   am
    25    20    21    1
    26    20    22    1
    27    10    11   ar
    28    11    12    1
    29    12    13   ar
    30    13    14   ar
    31    14    15   ar
    32    15    16   ar
    33    16    17   ar
    34    33    27   ar
    35    11     1   ar
    36    17    12   ar
    37     9     3   ar
    38    25    26    1
    39    32    34    1
    40    32    35    1
@<TRIPOS>MOLECULE
*****
 37 40 0 0 0
SMALL
GASTEIGER

@<TRIPOS>ATOM
      1 C           3.5295   -0.4382   23.6481 C.ar    1  UNL1        0.0768
      2 N           4.2942   -1.1395   24.7312 N.ar    1  UNL1       -0.2480
      3 C           5.1894   -2.2940   24.3905 C.ar    1  UNL1        0.0812
      4 C           5.9541   -2.9953   25.4737 C.ar    1  UNL1        0.0214
      5 C           6.8492   -4.1497   25.1329 C.ar    1  UNL1        0.0312
      6 C           6.9795   -4.6028   23.7089 C.ar    1  UNL1        0.1402
      7 F           7.8746   -5.7572   23.3682 F       1  UNL1       -0.2042
      8 C           6.2148   -3.9015   22.6257 C.ar    1  UNL1        0.0313
      9 C           5.3197   -2.7471   22.9665 C.ar    1  UNL1        0.0243
     10 C           4.5549   -2.0457   21.8833 C.ar    1  UNL1        0.0563
     11 C           3.6599   -0.8913   22.2241 C.ar    1  UNL1        0.0196
     12 C           2.8951   -0.1900   21.1409 C.ar    1  UNL1        0.0013
     13 C           1.5102   -0.6441   20.7861 C.ar    1  UNL1        0.0000
     14 C           0.7454    0.0572   19.7029 C.ar    1  UNL1        0.0000
     15 C           1.3655    1.2126   18.9746 C.ar    1  UNL1        0.0000
     16 C           2.7504    1.6666   19.3293 C.ar    1  UNL1        0.0000
     17 C           3.5152    0.9654   20.4125 C.ar    1  UNL1        0.0000
     18 C           4.6852   -2.4989   20.4593 C.2     1  UNL1        0.2492
     19 O           3.7168   -3.4976   19.8985 O.2     1  UNL1       -0.2699
     20 N           5.7841   -1.9532   19.5962 N.am    1  UNL1       -0.2726
     21 C           5.9144   -2.4063   18.1722 C.3     1  UNL1        0.1152
     22 C           6.7525   -0.9544   20.1571 C.3     1  UNL1        0.1152
     23 C           3.1911    2.1083   24.0364 C.3     1  UNL1        0.0278
     24 C           2.6344    0.7162   23.9888 C.3     1  UNL1        0.1109
     25 N           1.1827    0.4786   24.2820 N.pl3   1  UNL1       -0.3142
     26 H           0.7182   -0.2897   23.8780 H       1  UNL1        0.1485
     27 C           0.4386    1.4116   25.1907 C.ar    1  UNL1        0.1429
     28 N           0.4942    1.2144   26.6767 N.ar    1  UNL1       -0.2084
     29 C          -0.2499    2.1474   27.5854 C.ar    1  UNL1        0.2012
     30 N          -1.0496    3.2776   27.0082 N.ar    1  UNL1       -0.2087
     31 C          -1.1052    3.4748   25.5223 C.ar    1  UNL1        0.1396
     32 N          -1.9050    4.6050   24.9451 N.pl3   1  UNL1       -0.3420
     33 C          -0.3611    2.5418   24.6135 C.ar    1  UNL1        0.1308
     34 H          -2.3933    5.2173   25.5416 H       1  UNL1        0.1437
     35 H          -1.9415    4.7344   23.9698 H       1  UNL1        0.1437
     36 C          -0.4168    2.7390   23.1276 C.1     1  UNL1        0.1061
     37 N          -0.4724    2.9362   21.6417 N.1     1  UNL1       -0.1906
@<TRIPOS>BOND
     1    24    23    1
     2    24    25    1
     3    25    27    1
     4    27    28   ar
     5    28    29   ar
     6    29    30   ar
     7    30    31   ar
     8    31    32    1
     9    31    33   ar
    10    33    36    1
    11    36    37    3
    12    24     1    1
    13     1     2   ar
    14     2     3   ar
    15     3     4   ar
    16     4     5   ar
    17     5     6   ar
    18     6     7    1
    19     6     8   ar
    20     8     9   ar
    21     9    10   ar
    22    10    18    1
    23    18    19    2
    24    18    20   am
    25    20    21    1
    26    20    22    1
    27    10    11   ar
    28    11    12    1
    29    12    13   ar
    30    13    14   ar
    31    14    15   ar
    32    15    16   ar
    33    16    17   ar
    34    33    27   ar
    35    11     1   ar
    36    17    12   ar
    37     9     3   ar
    38    25    26    1
    39    32    34    1
    40    32    35    1
