@<TRIPOS>MOLECULE
*****
 28 32 0 0 0
SMALL
GASTEIGER

@<TRIPOS>ATOM
      1 S         -11.2121  -17.3910   20.9123 S.3     1  UNL1       -0.0673
      2 C         -10.1414  -16.6181   21.6236 C.ar    1  UNL1        0.1935
      3 N          -9.3319  -15.4958   21.0446 N.ar    1  UNL1       -0.1221
      4 N          -8.3823  -15.0157   22.1020 N.ar    1  UNL1       -0.1282
      5 C          -8.6051  -15.8413   23.3344 C.ar    1  UNL1        0.1668
      6 N          -9.6922  -16.8316   23.0387 N.ar    1  UNL1       -0.2923
      7 C          -7.8697  -15.7011   24.6343 C.ar    1  UNL1        0.0390
      8 C          -8.6340  -15.5851   25.9197 C.ar    1  UNL1        0.0237
      9 C          -7.8987  -15.4449   27.2195 C.ar    1  UNL1        0.0990
     10 N          -6.3989  -15.4208   27.2340 N.ar    1  UNL1       -0.2423
     11 C          -5.6346  -15.5368   25.9486 C.ar    1  UNL1        0.0990
     12 C          -6.3700  -15.6770   24.6487 C.ar    1  UNL1        0.0237
     13 C         -10.2348  -17.8556   23.9911 C.3     1  UNL1        0.0889
     14 C         -11.3965  -18.6198   24.5536 C.3     1  UNL1        0.0246
     15 C         -10.0128  -18.8651   25.0780 C.3     1  UNL1        0.0246
     16 C         -10.9533  -18.8022   20.4746 C.3     1  UNL1        0.1340
     17 C          -7.1562  -19.6016   20.3835 C.ar    1  UNL1        0.2598
     18 N          -8.3433  -18.9530   21.0316 N.ar    1  UNL1       -0.1902
     19 C          -9.5511  -19.2556   20.1950 C.ar    1  UNL1        0.1921
     20 N          -9.1104  -20.0912   19.0299 N.ar    1  UNL1       -0.0593
     21 O          -7.6303  -20.3050   19.1463 O.2     1  UNL1       -0.3327
     22 CL         -3.6688  -17.9570   23.8668 Cl      1  UNL1       -0.0613
     23 C          -3.9994  -18.7326   22.6261 C.ar    1  UNL1        0.1385
     24 C          -5.4124  -18.7793   22.1251 C.ar    1  UNL1        0.0355
     25 C          -5.7431  -19.5549   20.8845 C.ar    1  UNL1        0.0600
     26 C          -4.6607  -20.2838   20.1449 C.ar    1  UNL1        0.0255
     27 C          -3.2476  -20.2371   20.6459 C.ar    1  UNL1        0.1000
     28 N          -2.9170  -19.4615   21.8865 N.ar    1  UNL1       -0.2324
@<TRIPOS>BOND
     1    22    23    1
     2    23    24   ar
     3    24    25   ar
     4    25    17    1
     5    17    18   ar
     6    18    19   ar
     7    19    16    1
     8    16     1    1
     9     1     2    1
    10     2     3   ar
    11     3     4   ar
    12     4     5   ar
    13     5     7    1
    14     7     8   ar
    15     8     9   ar
    16     9    10   ar
    17    10    11   ar
    18    11    12   ar
    19     5     6   ar
    20     6    13    1
    21    13    14    1
    22    14    15    1
    23    19    20   ar
    24    20    21   ar
    25    25    26   ar
    26    26    27   ar
    27    27    28   ar
    28    28    23   ar
    29    21    17   ar
    30     6     2   ar
    31    15    13    1
    32    12     7   ar
@<TRIPOS>MOLECULE
*****
 28 32 0 0 0
SMALL
GASTEIGER

@<TRIPOS>ATOM
      1 S          -6.9119  -15.0206   25.2901 S.3     1  UNL1       -0.0673
      2 C          -7.5098  -15.4096   23.9706 C.ar    1  UNL1        0.1935
      3 N          -7.1978  -14.7851   22.6429 N.ar    1  UNL1       -0.1221
      4 N          -8.0199  -15.4809   21.5988 N.ar    1  UNL1       -0.1282
      5 C          -8.8399  -16.5353   22.2812 C.ar    1  UNL1        0.1668
      6 N          -8.5247  -16.4912   23.7471 N.ar    1  UNL1       -0.2923
      7 C          -9.8057  -17.4698   21.6147 C.ar    1  UNL1        0.0390
      8 C          -9.2954  -18.6479   20.8391 C.ar    1  UNL1        0.0237
      9 C         -10.2610  -19.5823   20.1726 C.ar    1  UNL1        0.0990
     10 N         -11.7371  -19.3387   20.2817 N.ar    1  UNL1       -0.2423
     11 C         -12.2475  -18.1605   21.0573 C.ar    1  UNL1        0.0990
     12 C         -11.2817  -17.2261   21.7238 C.ar    1  UNL1        0.0237
     13 C          -9.1199  -17.3739   24.8037 C.3     1  UNL1        0.0889
     14 C          -9.3120  -17.7199   26.2506 C.3     1  UNL1        0.0246
     15 C          -9.9589  -18.5568   25.1870 C.3     1  UNL1        0.0246
     16 C          -5.4430  -15.2049   25.5315 C.3     1  UNL1        0.1340
     17 C          -3.6186  -17.5989   23.0808 C.ar    1  UNL1        0.2598
     18 N          -4.3706  -16.3308   23.3572 N.ar    1  UNL1       -0.1902
     19 C          -4.6972  -16.2952   24.8208 C.ar    1  UNL1        0.1921
     20 N          -4.1469  -17.5413   25.4490 N.ar    1  UNL1       -0.0593
     21 O          -3.4803  -18.3470   24.3736 O.2     1  UNL1       -0.3327
     22 CL          0.1954  -17.7130   19.5537 Cl      1  UNL1       -0.0613
     23 C          -1.1894  -18.0983   19.9825 C.ar    1  UNL1        0.1385
     24 C          -1.7116  -17.6560   21.3172 C.ar    1  UNL1        0.0355
     25 C          -3.0964  -18.0413   21.7460 C.ar    1  UNL1        0.0600
     26 C          -3.9590  -18.8689   20.8400 C.ar    1  UNL1        0.0255
     27 C          -3.4369  -19.3112   19.5053 C.ar    1  UNL1        0.1000
     28 N          -2.0520  -18.9259   19.0765 N.ar    1  UNL1       -0.2324
@<TRIPOS>BOND
     1    22    23    1
     2    23    24   ar
     3    24    25   ar
     4    25    17    1
     5    17    18   ar
     6    18    19   ar
     7    19    16    1
     8    16     1    1
     9     1     2    1
    10     2     3   ar
    11     3     4   ar
    12     4     5   ar
    13     5     7    1
    14     7     8   ar
    15     8     9   ar
    16     9    10   ar
    17    10    11   ar
    18    11    12   ar
    19     5     6   ar
    20     6    13    1
    21    13    14    1
    22    14    15    1
    23    19    20   ar
    24    20    21   ar
    25    25    26   ar
    26    26    27   ar
    27    27    28   ar
    28    28    23   ar
    29    21    17   ar
    30     6     2   ar
    31    15    13    1
    32    12     7   ar
@<TRIPOS>MOLECULE
*****
 28 32 0 0 0
SMALL
GASTEIGER

@<TRIPOS>ATOM
      1 S          -7.0262  -15.0690   25.4521 S.3     1  UNL1       -0.0673
      2 C          -7.5844  -15.4345   24.1088 C.ar    1  UNL1        0.1935
      3 N          -7.2512  -14.7710   22.8054 N.ar    1  UNL1       -0.1221
      4 N          -8.0348  -15.4541   21.7239 N.ar    1  UNL1       -0.1282
      5 C          -8.8522  -16.5397   22.3590 C.ar    1  UNL1        0.1668
      6 N          -8.5739  -16.5276   23.8329 N.ar    1  UNL1       -0.2923
      7 C          -9.7843  -17.4735   21.6453 C.ar    1  UNL1        0.0390
      8 C         -11.2668  -17.2590   21.7246 C.ar    1  UNL1        0.0237
      9 C         -12.1989  -18.1928   21.0110 C.ar    1  UNL1        0.0990
     10 N         -11.6485  -19.3410   20.2180 N.ar    1  UNL1       -0.2423
     11 C         -10.1660  -19.5555   20.1387 C.ar    1  UNL1        0.0990
     12 C          -9.2339  -18.6217   20.8524 C.ar    1  UNL1        0.0237
     13 C          -9.1788  -17.4472   24.8518 C.3     1  UNL1        0.0889
     14 C          -9.9681  -18.6787   25.1842 C.3     1  UNL1        0.0246
     15 C          -9.4372  -17.8084   26.2846 C.3     1  UNL1        0.0246
     16 C          -5.5531  -15.1863   25.7094 C.3     1  UNL1        0.1340
     17 C          -3.5850  -17.4266   23.2248 C.ar    1  UNL1        0.2598
     18 N          -4.4059  -16.2067   23.5212 N.ar    1  UNL1       -0.1902
     19 C          -4.7447  -16.2198   24.9824 C.ar    1  UNL1        0.1921
     20 N          -4.1332  -17.4479   25.5891 N.ar    1  UNL1       -0.0593
     21 O          -3.4165  -18.1937   24.5028 O.2     1  UNL1       -0.3327
     22 CL         -3.5559  -20.5988   19.1094 Cl      1  UNL1       -0.0613
     23 C          -3.0156  -19.3980   19.8278 C.ar    1  UNL1        0.1385
     24 C          -3.5704  -19.0127   21.1671 C.ar    1  UNL1        0.0355
     25 C          -3.0301  -17.8119   21.8855 C.ar    1  UNL1        0.0600
     26 C          -1.9349  -16.9964   21.2646 C.ar    1  UNL1        0.0255
     27 C          -1.3801  -17.3817   19.9254 C.ar    1  UNL1        0.1000
     28 N          -1.9204  -18.5825   19.2070 N.ar    1  UNL1       -0.2324
@<TRIPOS>BOND
     1    22    23    1
     2    23    24   ar
     3    24    25   ar
     4    25    17    1
     5    17    18   ar
     6    18    19   ar
     7    19    16    1
     8    16     1    1
     9     1     2    1
    10     2     3   ar
    11     3     4   ar
    12     4     5   ar
    13     5     7    1
    14     7     8   ar
    15     8     9   ar
    16     9    10   ar
    17    10    11   ar
    18    11    12   ar
    19     5     6   ar
    20     6    13    1
    21    13    14    1
    22    14    15    1
    23    19    20   ar
    24    20    21   ar
    25    25    26   ar
    26    26    27   ar
    27    27    28   ar
    28    28    23   ar
    29    21    17   ar
    30     6     2   ar
    31    15    13    1
    32    12     7   ar
@<TRIPOS>MOLECULE
*****
 28 32 0 0 0
SMALL
GASTEIGER

@<TRIPOS>ATOM
      1 S          -6.1578  -15.3091   24.8618 S.3     1  UNL1       -0.0673
      2 C          -7.1453  -15.4202   23.7383 C.ar    1  UNL1        0.1935
      3 N          -7.0330  -14.7579   22.3971 N.ar    1  UNL1       -0.1221
      4 N          -8.2368  -15.1415   21.5884 N.ar    1  UNL1       -0.1282
      5 C          -9.0930  -16.0408   22.4299 C.ar    1  UNL1        0.1668
      6 N          -8.4184  -16.2131   23.7586 N.ar    1  UNL1       -0.2923
      7 C         -10.3952  -16.6593   22.0155 C.ar    1  UNL1        0.0390
      8 C         -11.6740  -16.2220   22.6663 C.ar    1  UNL1        0.0237
      9 C         -12.9762  -16.8405   22.2519 C.ar    1  UNL1        0.0990
     10 N         -12.9996  -17.8963   21.1865 N.ar    1  UNL1       -0.2423
     11 C         -11.7209  -18.3336   20.5357 C.ar    1  UNL1        0.0990
     12 C         -10.4187  -17.7151   20.9502 C.ar    1  UNL1        0.0237
     13 C          -8.9277  -17.0341   24.9060 C.3     1  UNL1        0.0889
     14 C          -9.0384  -17.2756   26.3823 C.3     1  UNL1        0.0246
     15 C          -9.6990  -18.2147   25.4170 C.3     1  UNL1        0.0246
     16 C          -4.9836  -16.2404   24.9232 C.3     1  UNL1        0.1340
     17 C          -3.3108  -17.6607   21.7217 C.ar    1  UNL1        0.2598
     18 N          -3.3643  -16.6608   22.8385 N.ar    1  UNL1       -0.1902
     19 C          -4.5521  -16.9855   23.6949 C.ar    1  UNL1        0.1921
     20 N          -5.2329  -18.1862   23.1074 N.ar    1  UNL1       -0.0593
     21 O          -4.4657  -18.6034   21.8879 O.2     1  UNL1       -0.3327
     22 CL         -2.0868  -17.4019   16.6784 Cl      1  UNL1       -0.0613
     23 C          -1.6710  -17.5800   18.1085 C.ar    1  UNL1        0.1385
     24 C          -2.6988  -17.5313   19.2000 C.ar    1  UNL1        0.0355
     25 C          -2.2830  -17.7094   20.6302 C.ar    1  UNL1        0.0600
     26 C          -0.8395  -17.9361   20.9689 C.ar    1  UNL1        0.0255
     27 C           0.1883  -17.9848   19.8774 C.ar    1  UNL1        0.1000
     28 N          -0.2275  -17.8067   18.4473 N.ar    1  UNL1       -0.2324
@<TRIPOS>BOND
     1    22    23    1
     2    23    24   ar
     3    24    25   ar
     4    25    17    1
     5    17    18   ar
     6    18    19   ar
     7    19    16    1
     8    16     1    1
     9     1     2    1
    10     2     3   ar
    11     3     4   ar
    12     4     5   ar
    13     5     7    1
    14     7     8   ar
    15     8     9   ar
    16     9    10   ar
    17    10    11   ar
    18    11    12   ar
    19     5     6   ar
    20     6    13    1
    21    13    14    1
    22    14    15    1
    23    19    20   ar
    24    20    21   ar
    25    25    26   ar
    26    26    27   ar
    27    27    28   ar
    28    28    23   ar
    29    21    17   ar
    30     6     2   ar
    31    15    13    1
    32    12     7   ar
@<TRIPOS>MOLECULE
*****
 28 32 0 0 0
SMALL
GASTEIGER

@<TRIPOS>ATOM
      1 S           5.7935   -3.6467   19.7508 S.3     1  UNL1       -0.0673
      2 C           5.2326   -2.5177   18.9380 C.ar    1  UNL1        0.1935
      3 N           5.4998   -2.2600   17.4847 N.ar    1  UNL1       -0.1221
      4 N           4.7384   -1.0311   17.0842 N.ar    1  UNL1       -0.1282
      5 C           4.0006   -0.5296   18.2901 C.ar    1  UNL1        0.1668
      6 N           4.3060   -1.4483   19.4358 N.ar    1  UNL1       -0.2923
      7 C           3.1131    0.6787   18.3412 C.ar    1  UNL1        0.0390
      8 C           1.6223    0.5141   18.3575 C.ar    1  UNL1        0.0237
      9 C           0.7349    1.7223   18.4086 C.ar    1  UNL1        0.0990
     10 N           1.3382    3.0952   18.4435 N.ar    1  UNL1       -0.2423
     11 C           2.8291    3.2598   18.4272 C.ar    1  UNL1        0.0990
     12 C           3.7166    2.0515   18.3761 C.ar    1  UNL1        0.0237
     13 C           3.7777   -1.3200   20.8337 C.3     1  UNL1        0.0889
     14 C           3.9076   -1.5972   22.3022 C.3     1  UNL1        0.0246
     15 C           2.7324   -0.8207   21.7866 C.3     1  UNL1        0.0246
     16 C           7.0122   -3.4282   20.5976 C.3     1  UNL1        0.1340
     17 C           7.9387   -5.9054   23.4384 C.ar    1  UNL1        0.2598
     18 N           7.2442   -4.6669   22.9549 N.ar    1  UNL1       -0.1902
     19 C           7.5150   -4.5271   21.4862 C.ar    1  UNL1        0.1921
     20 N           8.3768   -5.6793   21.0619 N.ar    1  UNL1       -0.0593
     21 O           8.6387   -6.5310   22.2685 O.2     1  UNL1       -0.3327
     22 CL          6.4844   -5.4403   28.4052 Cl      1  UNL1       -0.0613
     23 C           7.2069   -6.1942   27.3283 C.ar    1  UNL1        0.1385
     24 C           7.2116   -5.6729   25.9218 C.ar    1  UNL1        0.0355
     25 C           7.9340   -6.4268   24.8449 C.ar    1  UNL1        0.0600
     26 C           8.6518   -7.7020   25.1745 C.ar    1  UNL1        0.0255
     27 C           8.6471   -8.2233   26.5810 C.ar    1  UNL1        0.1000
     28 N           7.9246   -7.4694   27.6579 N.ar    1  UNL1       -0.2324
@<TRIPOS>BOND
     1    22    23    1
     2    23    24   ar
     3    24    25   ar
     4    25    17    1
     5    17    18   ar
     6    18    19   ar
     7    19    16    1
     8    16     1    1
     9     1     2    1
    10     2     3   ar
    11     3     4   ar
    12     4     5   ar
    13     5     7    1
    14     7     8   ar
    15     8     9   ar
    16     9    10   ar
    17    10    11   ar
    18    11    12   ar
    19     5     6   ar
    20     6    13    1
    21    13    14    1
    22    14    15    1
    23    19    20   ar
    24    20    21   ar
    25    25    26   ar
    26    26    27   ar
    27    27    28   ar
    28    28    23   ar
    29    21    17   ar
    30     6     2   ar
    31    15    13    1
    32    12     7   ar
@<TRIPOS>MOLECULE
*****
 28 32 0 0 0
SMALL
GASTEIGER

@<TRIPOS>ATOM
      1 S         -10.6162   -5.5326   18.9395 S.3     1  UNL1       -0.0673
      2 C         -11.8758   -6.3226   18.7418 C.ar    1  UNL1        0.1935
      3 N         -12.0016   -7.6029   17.9703 N.ar    1  UNL1       -0.1221
      4 N         -13.4345   -8.0426   18.0325 N.ar    1  UNL1       -0.1282
      5 C         -14.1940   -7.0341   18.8424 C.ar    1  UNL1        0.1668
      6 N         -13.2308   -5.9711   19.2808 N.ar    1  UNL1       -0.2923
      7 C         -15.6597   -7.0806   19.1585 C.ar    1  UNL1        0.0390
      8 C         -16.5311   -5.8991   18.8506 C.ar    1  UNL1        0.0237
      9 C         -17.9967   -5.9455   19.1666 C.ar    1  UNL1        0.0990
     10 N         -18.5909   -7.1735   19.7906 N.ar    1  UNL1       -0.2423
     11 C         -17.7195   -8.3549   20.0984 C.ar    1  UNL1        0.0990
     12 C         -16.2538   -8.3085   19.7824 C.ar    1  UNL1        0.0237
     13 C         -13.5641   -4.7680   20.1121 C.3     1  UNL1        0.0889
     14 C         -13.3514   -3.3216   20.4480 C.3     1  UNL1        0.0246
     15 C         -14.3542   -4.1304   21.2163 C.3     1  UNL1        0.0246
     16 C          -9.9042   -4.9475   17.7560 C.3     1  UNL1        0.1340
     17 C         -11.2623   -1.3679   17.1178 C.ar    1  UNL1        0.2598
     18 N         -11.2758   -2.6568   17.8849 N.ar    1  UNL1       -0.1902
     19 C         -10.2319   -3.5582   17.2951 C.ar    1  UNL1        0.1921
     20 N          -9.5731   -2.8262   16.1635 N.ar    1  UNL1       -0.0593
     21 O         -10.2100   -1.4726   16.0540 O.2     1  UNL1       -0.3327
     22 CL        -15.4354    0.7307   19.3940 Cl      1  UNL1       -0.0613
     23 C         -14.2325    0.8670   18.5084 C.ar    1  UNL1        0.1385
     24 C         -13.3489   -0.3185   18.2559 C.ar    1  UNL1        0.0355
     25 C         -12.1459   -0.1823   17.3703 C.ar    1  UNL1        0.0600
     26 C         -11.8266    1.1395   16.7371 C.ar    1  UNL1        0.0255
     27 C         -12.7102    2.3249   16.9895 C.ar    1  UNL1        0.1000
     28 N         -13.9131    2.1887   17.8752 N.ar    1  UNL1       -0.2324
@<TRIPOS>BOND
     1    22    23    1
     2    23    24   ar
     3    24    25   ar
     4    25    17    1
     5    17    18   ar
     6    18    19   ar
     7    19    16    1
     8    16     1    1
     9     1     2    1
    10     2     3   ar
    11     3     4   ar
    12     4     5   ar
    13     5     7    1
    14     7     8   ar
    15     8     9   ar
    16     9    10   ar
    17    10    11   ar
    18    11    12   ar
    19     5     6   ar
    20     6    13    1
    21    13    14    1
    22    14    15    1
    23    19    20   ar
    24    20    21   ar
    25    25    26   ar
    26    26    27   ar
    27    27    28   ar
    28    28    23   ar
    29    21    17   ar
    30     6     2   ar
    31    15    13    1
    32    12     7   ar
@<TRIPOS>MOLECULE
*****
 28 32 0 0 0
SMALL
GASTEIGER

@<TRIPOS>ATOM
      1 S         -11.0797  -18.2978   20.6664 S.3     1  UNL1       -0.0673
      2 C         -10.3928  -18.2503   21.9990 C.ar    1  UNL1        0.1935
      3 N         -10.4457  -19.3129   23.0564 N.ar    1  UNL1       -0.1221
      4 N          -9.6179  -18.8513   24.2192 N.ar    1  UNL1       -0.1282
      5 C          -9.0536  -17.5034   23.8802 C.ar    1  UNL1        0.1668
      6 N          -9.5325  -17.1320   22.5081 N.ar    1  UNL1       -0.2923
      7 C          -8.1662  -16.6728   24.7592 C.ar    1  UNL1        0.0390
      8 C          -8.6049  -16.3212   26.1499 C.ar    1  UNL1        0.0237
      9 C          -7.7175  -15.4907   27.0288 C.ar    1  UNL1        0.0990
     10 N          -6.3913  -15.0116   26.5172 N.ar    1  UNL1       -0.2423
     11 C          -5.9525  -15.3632   25.1266 C.ar    1  UNL1        0.0990
     12 C          -6.8400  -16.1938   24.2476 C.ar    1  UNL1        0.0237
     13 C          -9.2080  -15.8648   21.7741 C.3     1  UNL1        0.0889
     14 C          -8.2716  -14.7254   21.5004 C.3     1  UNL1        0.0246
     15 C          -9.5825  -14.8093   20.7763 C.3     1  UNL1        0.0246
     16 C         -10.4481  -19.0347   19.5228 C.3     1  UNL1        0.1340
     17 C          -6.6758  -19.6660   20.1836 C.ar    1  UNL1        0.2598
     18 N          -7.9014  -18.8097   20.3032 N.ar    1  UNL1       -0.1902
     19 C          -9.0366  -19.5294   19.6373 C.ar    1  UNL1        0.1921
     20 N          -8.5125  -20.8306   19.1061 N.ar    1  UNL1       -0.0593
     21 O          -7.0535  -20.9151   19.4437 O.2     1  UNL1       -0.3327
     22 CL         -3.6414  -17.8905   24.0098 Cl      1  UNL1       -0.0613
     23 C          -3.7947  -18.4443   22.6243 C.ar    1  UNL1        0.1385
     24 C          -5.1586  -18.7783   22.0967 C.ar    1  UNL1        0.0355
     25 C          -5.3119  -19.3321   20.7111 C.ar    1  UNL1        0.0600
     26 C          -4.1013  -19.5519   19.8531 C.ar    1  UNL1        0.0255
     27 C          -2.7375  -19.2180   20.3807 C.ar    1  UNL1        0.1000
     28 N          -2.5842  -18.6642   21.7663 N.ar    1  UNL1       -0.2324
@<TRIPOS>BOND
     1    22    23    1
     2    23    24   ar
     3    24    25   ar
     4    25    17    1
     5    17    18   ar
     6    18    19   ar
     7    19    16    1
     8    16     1    1
     9     1     2    1
    10     2     3   ar
    11     3     4   ar
    12     4     5   ar
    13     5     7    1
    14     7     8   ar
    15     8     9   ar
    16     9    10   ar
    17    10    11   ar
    18    11    12   ar
    19     5     6   ar
    20     6    13    1
    21    13    14    1
    22    14    15    1
    23    19    20   ar
    24    20    21   ar
    25    25    26   ar
    26    26    27   ar
    27    27    28   ar
    28    28    23   ar
    29    21    17   ar
    30     6     2   ar
    31    15    13    1
    32    12     7   ar
@<TRIPOS>MOLECULE
*****
 28 32 0 0 0
SMALL
GASTEIGER

@<TRIPOS>ATOM
      1 S         -14.3414   -0.9477   18.0253 S.3     1  UNL1       -0.0673
      2 C         -13.3006   -1.9351   17.5875 C.ar    1  UNL1        0.1935
      3 N         -12.5405   -1.9000   16.2948 N.ar    1  UNL1       -0.1221
      4 N         -11.6072   -3.0742   16.2739 N.ar    1  UNL1       -0.1282
      5 C         -11.7906   -3.8349   17.5536 C.ar    1  UNL1        0.1668
      6 N         -12.8372   -3.1309   18.3655 N.ar    1  UNL1       -0.2923
      7 C         -11.0563   -5.0809   17.9516 C.ar    1  UNL1        0.0390
      8 C         -11.4303   -6.3991   17.3413 C.ar    1  UNL1        0.0237
      9 C         -10.6960   -7.6451   17.7392 C.ar    1  UNL1        0.0990
     10 N          -9.5877   -7.5729   18.7475 N.ar    1  UNL1       -0.2423
     11 C          -9.2138   -6.2547   19.3578 C.ar    1  UNL1        0.0990
     12 C          -9.9481   -5.0087   18.9599 C.ar    1  UNL1        0.0237
     13 C         -13.3332   -3.5493   19.7178 C.3     1  UNL1        0.0889
     14 C         -13.8256   -3.1916   21.0888 C.3     1  UNL1        0.0246
     15 C         -13.6998   -4.6319   20.6892 C.3     1  UNL1        0.0246
     16 C         -15.7956   -1.2454   17.8093 C.3     1  UNL1        0.1340
     17 C         -17.1017   -4.6149   19.2257 C.ar    1  UNL1        0.2598
     18 N         -16.2692   -3.8392   18.2483 N.ar    1  UNL1       -0.1902
     19 C         -16.4463   -2.3795   18.5445 C.ar    1  UNL1        0.1921
     20 N         -17.3883   -2.2529   19.7049 N.ar    1  UNL1       -0.0593
     21 O         -17.7934   -3.6344   20.1259 O.2     1  UNL1       -0.3327
     22 CL        -15.0055   -9.3290   18.6068 Cl      1  UNL1       -0.0613
     23 C         -16.1734   -8.4657   18.9819 C.ar    1  UNL1        0.1385
     24 C         -16.0536   -6.9720   18.9162 C.ar    1  UNL1        0.0355
     25 C         -17.2216   -6.1087   19.2913 C.ar    1  UNL1        0.0600
     26 C         -18.5093   -6.7391   19.7320 C.ar    1  UNL1        0.0255
     27 C         -18.6291   -8.2328   19.7976 C.ar    1  UNL1        0.1000
     28 N         -17.4612   -9.0961   19.4225 N.ar    1  UNL1       -0.2324
@<TRIPOS>BOND
     1    22    23    1
     2    23    24   ar
     3    24    25   ar
     4    25    17    1
     5    17    18   ar
     6    18    19   ar
     7    19    16    1
     8    16     1    1
     9     1     2    1
    10     2     3   ar
    11     3     4   ar
    12     4     5   ar
    13     5     7    1
    14     7     8   ar
    15     8     9   ar
    16     9    10   ar
    17    10    11   ar
    18    11    12   ar
    19     5     6   ar
    20     6    13    1
    21    13    14    1
    22    14    15    1
    23    19    20   ar
    24    20    21   ar
    25    25    26   ar
    26    26    27   ar
    27    27    28   ar
    28    28    23   ar
    29    21    17   ar
    30     6     2   ar
    31    15    13    1
    32    12     7   ar
@<TRIPOS>MOLECULE
*****
 28 32 0 0 0
SMALL
GASTEIGER

@<TRIPOS>ATOM
      1 S         -10.2244   -5.1082   19.0678 S.3     1  UNL1       -0.0673
      2 C         -11.0832   -6.1623   18.4346 C.ar    1  UNL1        0.1935
      3 N         -10.6082   -7.2594   17.5285 N.ar    1  UNL1       -0.1221
      4 N         -11.7993   -8.0797   17.1300 N.ar    1  UNL1       -0.1282
      5 C         -13.0102   -7.4895   17.7898 C.ar    1  UNL1        0.1668
      6 N         -12.5677   -6.3045   18.5960 N.ar    1  UNL1       -0.2923
      7 C         -14.4168   -7.9955   17.6651 C.ar    1  UNL1        0.0390
      8 C         -14.8460   -9.2137   18.4278 C.ar    1  UNL1        0.0237
      9 C         -16.2525   -9.7198   18.3032 C.ar    1  UNL1        0.0990
     10 N         -17.2300   -9.0075   17.4159 N.ar    1  UNL1       -0.2423
     11 C         -16.8009   -7.7893   16.6532 C.ar    1  UNL1        0.0990
     12 C         -15.3942   -7.2833   16.7778 C.ar    1  UNL1        0.0237
     13 C         -13.4541   -5.4175   19.4191 C.3     1  UNL1        0.0889
     14 C         -14.7139   -4.6168   19.5670 C.3     1  UNL1        0.0246
     15 C         -13.7294   -4.6818   20.6969 C.3     1  UNL1        0.0246
     16 C         -10.0774   -3.7669   18.4125 C.3     1  UNL1        0.1340
     17 C         -13.1901   -1.4664   18.1223 C.ar    1  UNL1        0.2598
     18 N         -12.0411   -2.0229   18.9098 N.ar    1  UNL1       -0.1902
     19 C         -11.2967   -2.9819   18.0289 C.ar    1  UNL1        0.1921
     20 N         -11.9855   -3.0181   16.6968 N.ar    1  UNL1       -0.0593
     21 O         -13.1557   -2.0815   16.7547 O.2     1  UNL1       -0.3327
     22 CL        -17.7218   -0.4174   20.4382 Cl      1  UNL1       -0.0613
     23 C         -16.4625    0.0547   19.7738 C.ar    1  UNL1        0.1385
     24 C         -15.4559   -0.9418   19.2803 C.ar    1  UNL1        0.0355
     25 C         -14.1967   -0.4698   18.6159 C.ar    1  UNL1        0.0600
     26 C         -13.9440    0.9989   18.4450 C.ar    1  UNL1        0.0255
     27 C         -14.9506    1.9954   18.9385 C.ar    1  UNL1        0.1000
     28 N         -16.2099    1.5233   19.6029 N.ar    1  UNL1       -0.2324
@<TRIPOS>BOND
     1    22    23    1
     2    23    24   ar
     3    24    25   ar
     4    25    17    1
     5    17    18   ar
     6    18    19   ar
     7    19    16    1
     8    16     1    1
     9     1     2    1
    10     2     3   ar
    11     3     4   ar
    12     4     5   ar
    13     5     7    1
    14     7     8   ar
    15     8     9   ar
    16     9    10   ar
    17    10    11   ar
    18    11    12   ar
    19     5     6   ar
    20     6    13    1
    21    13    14    1
    22    14    15    1
    23    19    20   ar
    24    20    21   ar
    25    25    26   ar
    26    26    27   ar
    27    27    28   ar
    28    28    23   ar
    29    21    17   ar
    30     6     2   ar
    31    15    13    1
    32    12     7   ar
