@<TRIPOS>MOLECULE
*****
 21 21 0 0 0
SMALL
GASTEIGER

@<TRIPOS>ATOM
      1 O          -5.6847  -18.4577   21.4630 O.3     1  UNL1       -0.4728
      2 C          -9.5385  -18.4575   23.7863 C.ar    1  UNL1        0.1393
      3 C          -8.7642  -17.1839   23.6180 C.ar    1  UNL1        0.0400
      4 C          -7.4796  -17.1840   22.8435 C.ar    1  UNL1        0.0400
      5 C          -6.9693  -18.4576   22.2374 C.ar    1  UNL1        0.1389
      6 C          -7.7436  -19.7312   22.4058 C.ar    1  UNL1        0.0400
      7 C          -9.0282  -19.7311   23.1802 C.ar    1  UNL1        0.0400
      8 O         -10.8231  -18.4575   24.5608 O.3     1  UNL1       -0.4706
      9 C         -12.1360  -18.4351   23.8357 C.3     1  UNL1        0.2318
     10 C         -12.7064  -17.6799   21.4161 C.2     1  UNL1       -0.0011
     11 C         -12.4307  -17.3422   22.8515 C.2     1  UNL1        0.0207
     12 C          -4.6947  -19.5685   21.6525 C.3     1  UNL1        0.2358
     13 C          -3.4231  -19.5838   20.8569 C.3     1  UNL1        0.1697
     14 O          -2.2267  -20.3293   21.3694 O.3     1  UNL1       -0.3793
     15 H          -1.4948  -20.2383   20.7394 H       1  UNL1        0.2106
     16 C          -3.3481  -18.8535   19.5488 C.3     1  UNL1        0.1020
     17 N          -2.8395  -17.4430   19.5054 N.3     1  UNL1       -0.2964
     18 H          -3.6321  -16.8376   19.7191 H       1  UNL1        0.1233
     19 C          -1.7175  -17.0222   20.4075 C.3     1  UNL1        0.0541
     20 C          -0.3057  -17.4078   20.0785 C.3     1  UNL1        0.0171
     21 C          -2.0072  -16.2157   21.6387 C.3     1  UNL1        0.0171
@<TRIPOS>BOND
     1    10    11    2
     2    11     9    1
     3     9     8    1
     4     8     2    1
     5     2     3   ar
     6     3     4   ar
     7     4     5   ar
     8     5     1    1
     9     1    12    1
    10    12    13    1
    11    13    14    1
    12    13    16    1
    13    16    17    1
    14    17    19    1
    15    19    20    1
    16    19    21    1
    17     5     6   ar
    18     6     7   ar
    19     7     2   ar
    20    14    15    1
    21    17    18    1
@<TRIPOS>MOLECULE
*****
 21 21 0 0 0
SMALL
GASTEIGER

@<TRIPOS>ATOM
      1 O          -5.2112  -18.0720   22.3233 O.3     1  UNL1       -0.4728
      2 C          -9.7048  -18.3082   22.2800 C.ar    1  UNL1        0.1393
      3 C          -9.0217  -17.1320   22.9123 C.ar    1  UNL1        0.0400
      4 C          -7.5238  -17.0533   22.9267 C.ar    1  UNL1        0.0400
      5 C          -6.7091  -18.1507   22.3089 C.ar    1  UNL1        0.1389
      6 C          -7.3923  -19.3269   21.6766 C.ar    1  UNL1        0.0400
      7 C          -8.8901  -19.4056   21.6622 C.ar    1  UNL1        0.0400
      8 O         -11.2027  -18.3869   22.2656 O.3     1  UNL1       -0.4706
      9 C         -11.9799  -17.6915   21.1875 C.3     1  UNL1        0.2318
     10 C         -11.6474  -15.8053   19.4320 C.2     1  UNL1       -0.0011
     11 C         -11.2704  -17.1488   19.9825 C.2     1  UNL1        0.0207
     12 C          -4.3938  -19.3294   22.2946 C.3     1  UNL1        0.2358
     13 C          -3.3430  -19.5169   21.2408 C.3     1  UNL1        0.1697
     14 O          -2.1142  -20.3227   21.5421 O.3     1  UNL1       -0.3793
     15 H          -1.5420  -20.3448   20.7591 H       1  UNL1        0.2106
     16 C          -3.5210  -18.8987   19.8857 C.3     1  UNL1        0.1020
     17 N          -2.8807  -17.5786   19.5737 N.3     1  UNL1       -0.2964
     18 H          -3.6171  -16.8748   19.6250 H       1  UNL1        0.1233
     19 C          -1.7444  -17.0786   20.4155 C.3     1  UNL1        0.0541
     20 C          -0.3324  -17.4384   20.0595 C.3     1  UNL1        0.0171
     21 C          -2.0201  -16.2186   21.6132 C.3     1  UNL1        0.0171
@<TRIPOS>BOND
     1    10    11    2
     2    11     9    1
     3     9     8    1
     4     8     2    1
     5     2     3   ar
     6     3     4   ar
     7     4     5   ar
     8     5     1    1
     9     1    12    1
    10    12    13    1
    11    13    14    1
    12    13    16    1
    13    16    17    1
    14    17    19    1
    15    19    20    1
    16    19    21    1
    17     5     6   ar
    18     6     7   ar
    19     7     2   ar
    20    14    15    1
    21    17    18    1
@<TRIPOS>MOLECULE
*****
 21 21 0 0 0
SMALL
GASTEIGER

@<TRIPOS>ATOM
      1 O          -6.2443  -18.2615   21.8684 O.3     1  UNL1       -0.4728
      2 C         -10.4007  -18.2923   23.5928 C.ar    1  UNL1        0.1393
      3 C          -9.7886  -19.5653   23.0883 C.ar    1  UNL1        0.0400
      4 C          -8.4031  -19.5551   22.5135 C.ar    1  UNL1        0.0400
      5 C          -7.6297  -18.2718   22.4432 C.ar    1  UNL1        0.1389
      6 C          -8.2418  -16.9987   22.9478 C.ar    1  UNL1        0.0400
      7 C          -9.6273  -17.0090   23.5226 C.ar    1  UNL1        0.0400
      8 O         -11.7861  -18.3025   24.1676 O.3     1  UNL1       -0.4706
      9 C         -12.9448  -17.8303   23.3404 C.3     1  UNL1        0.2318
     10 C         -12.4500  -16.5295   21.1464 C.2     1  UNL1       -0.0011
     11 C         -12.8355  -17.8000   21.8447 C.2     1  UNL1        0.0207
     12 C          -5.6966  -19.4926   21.2095 C.3     1  UNL1        0.2358
     13 C          -4.5116  -19.3900   20.2955 C.3     1  UNL1        0.1697
     14 O          -4.4861  -18.3507   19.2143 O.3     1  UNL1       -0.3793
     15 H          -3.6553  -18.4203   18.7184 H       1  UNL1        0.2106
     16 C          -3.3520  -20.3268   20.4628 C.3     1  UNL1        0.1020
     17 N          -2.1364  -19.8872   21.2237 N.3     1  UNL1       -0.2964
     18 H          -1.3257  -20.2023   20.6910 H       1  UNL1        0.1233
     19 C          -1.9218  -18.4323   21.5188 C.3     1  UNL1        0.0541
     20 C          -2.4585  -17.8370   22.7867 C.3     1  UNL1        0.0171
     21 C          -1.1705  -17.5725   20.5459 C.3     1  UNL1        0.0171
@<TRIPOS>BOND
     1    10    11    2
     2    11     9    1
     3     9     8    1
     4     8     2    1
     5     2     3   ar
     6     3     4   ar
     7     4     5   ar
     8     5     1    1
     9     1    12    1
    10    12    13    1
    11    13    14    1
    12    13    16    1
    13    16    17    1
    14    17    19    1
    15    19    20    1
    16    19    21    1
    17     5     6   ar
    18     6     7   ar
    19     7     2   ar
    20    14    15    1
    21    17    18    1
@<TRIPOS>MOLECULE
*****
 21 21 0 0 0
SMALL
GASTEIGER

@<TRIPOS>ATOM
      1 O          -7.6393  -19.6099   21.5559 O.3     1  UNL1       -0.4728
      2 C          -3.1634  -19.6376   21.0915 C.ar    1  UNL1        0.1393
      3 C          -3.7871  -19.0278   22.3118 C.ar    1  UNL1        0.0400
      4 C          -5.2790  -19.0186   22.4666 C.ar    1  UNL1        0.0400
      5 C          -6.1473  -19.6192   21.4011 C.ar    1  UNL1        0.1389
      6 C          -5.5237  -20.2290   20.1809 C.ar    1  UNL1        0.0400
      7 C          -4.0317  -20.2382   20.0261 C.ar    1  UNL1        0.0400
      8 O          -1.6714  -19.6468   20.9367 O.3     1  UNL1       -0.4706
      9 C          -0.9901  -18.5519   20.1706 C.3     1  UNL1        0.2318
     10 C          -1.5869  -16.3172   21.3538 C.2     1  UNL1       -0.0011
     11 C          -1.5940  -17.1795   20.1264 C.2     1  UNL1        0.0207
     12 C          -8.2693  -18.8860   22.7087 C.3     1  UNL1        0.2358
     13 C          -8.5651  -17.4193   22.6019 C.3     1  UNL1        0.1697
     14 O          -7.9694  -16.6134   21.4858 O.3     1  UNL1       -0.3793
     15 H          -8.2590  -15.6909   21.5629 H       1  UNL1        0.2106
     16 C          -9.4568  -16.7586   23.6111 C.3     1  UNL1        0.1020
     17 N          -9.0574  -15.4473   24.2201 N.3     1  UNL1       -0.2964
     18 H          -9.8910  -15.0634   24.6653 H       1  UNL1        0.1233
     19 C          -7.9597  -15.3979   25.2411 C.3     1  UNL1        0.0541
     20 C          -6.5376  -15.2048   24.8046 C.3     1  UNL1        0.0171
     21 C          -8.2839  -15.5414   26.6986 C.3     1  UNL1        0.0171
@<TRIPOS>BOND
     1    10    11    2
     2    11     9    1
     3     9     8    1
     4     8     2    1
     5     2     3   ar
     6     3     4   ar
     7     4     5   ar
     8     5     1    1
     9     1    12    1
    10    12    13    1
    11    13    14    1
    12    13    16    1
    13    16    17    1
    14    17    19    1
    15    19    20    1
    16    19    21    1
    17     5     6   ar
    18     6     7   ar
    19     7     2   ar
    20    14    15    1
    21    17    18    1
@<TRIPOS>MOLECULE
*****
 21 21 0 0 0
SMALL
GASTEIGER

@<TRIPOS>ATOM
      1 O          -7.6290  -20.0004   21.4645 O.3     1  UNL1       -0.4728
      2 C          -3.1512  -19.7216   21.1164 C.ar    1  UNL1        0.1393
      3 C          -3.8530  -19.0958   22.2850 C.ar    1  UNL1        0.0400
      4 C          -5.3456  -19.1887   22.4011 C.ar    1  UNL1        0.0400
      5 C          -6.1364  -19.9075   21.3485 C.ar    1  UNL1        0.1389
      6 C          -5.4346  -20.5333   20.1799 C.ar    1  UNL1        0.0400
      7 C          -3.9420  -20.4404   20.0638 C.ar    1  UNL1        0.0400
      8 O          -1.6586  -19.6287   21.0004 O.3     1  UNL1       -0.4706
      9 C          -1.0299  -18.4326   20.3492 C.3     1  UNL1        0.2318
     10 C          -1.8182  -16.2274   21.4742 C.2     1  UNL1       -0.0011
     11 C          -1.7797  -17.1352   20.2807 C.2     1  UNL1        0.0207
     12 C          -8.4817  -18.8078   21.1472 C.3     1  UNL1        0.2358
     13 C          -8.7933  -17.8028   22.2164 C.3     1  UNL1        0.1697
     14 O          -9.3318  -18.2586   23.5400 O.3     1  UNL1       -0.3793
     15 H          -9.4777  -17.4889   24.1121 H       1  UNL1        0.2106
     16 C          -8.5663  -16.3421   21.9617 C.3     1  UNL1        0.1020
     17 N          -9.6813  -15.4914   21.4297 N.3     1  UNL1       -0.2964
     18 H          -9.3832  -15.1537   20.5145 H       1  UNL1        0.1233
     19 C         -11.0509  -16.0763   21.2502 C.3     1  UNL1        0.0541
     20 C         -12.0296  -16.0568   22.3867 C.3     1  UNL1        0.0171
     21 C         -11.4417  -16.6808   19.9342 C.3     1  UNL1        0.0171
@<TRIPOS>BOND
     1    10    11    2
     2    11     9    1
     3     9     8    1
     4     8     2    1
     5     2     3   ar
     6     3     4   ar
     7     4     5   ar
     8     5     1    1
     9     1    12    1
    10    12    13    1
    11    13    14    1
    12    13    16    1
    13    16    17    1
    14    17    19    1
    15    19    20    1
    16    19    21    1
    17     5     6   ar
    18     6     7   ar
    19     7     2   ar
    20    14    15    1
    21    17    18    1
@<TRIPOS>MOLECULE
*****
 21 21 0 0 0
SMALL
GASTEIGER

@<TRIPOS>ATOM
      1 O          -8.3791  -19.2344   22.0963 O.3     1  UNL1       -0.4728
      2 C          -3.9991  -19.6129   21.1359 C.ar    1  UNL1        0.1393
      3 C          -4.4488  -18.7033   22.2405 C.ar    1  UNL1        0.0400
      4 C          -5.9088  -18.5771   22.5607 C.ar    1  UNL1        0.0400
      5 C          -6.9191  -19.3606   21.7762 C.ar    1  UNL1        0.1389
      6 C          -6.4693  -20.2702   20.6716 C.ar    1  UNL1        0.0400
      7 C          -5.0093  -20.3964   20.3515 C.ar    1  UNL1        0.0400
      8 O          -2.5391  -19.7391   20.8158 O.3     1  UNL1       -0.4706
      9 C          -1.6331  -18.5531   20.9660 C.3     1  UNL1        0.2318
     10 C          -1.9437  -17.7490   18.5151 C.2     1  UNL1       -0.0011
     11 C          -1.6788  -17.4421   19.9593 C.2     1  UNL1        0.0207
     12 C          -8.9851  -20.0774   23.1789 C.3     1  UNL1        0.2358
     13 C          -9.7499  -19.4292   24.2947 C.3     1  UNL1        0.1697
     14 O         -10.1582  -20.2358   25.4916 O.3     1  UNL1       -0.3793
     15 H         -10.6409  -19.6694   26.1138 H       1  UNL1        0.2106
     16 C         -10.1065  -17.9744   24.2134 C.3     1  UNL1        0.1020
     17 N         -10.5604  -17.3852   22.9108 N.3     1  UNL1       -0.2964
     18 H         -10.0224  -17.8448   22.1763 H       1  UNL1        0.1233
     19 C         -12.0032  -17.4730   22.5102 C.3     1  UNL1        0.0541
     20 C         -12.4224  -17.0783   21.1251 C.3     1  UNL1        0.0171
     21 C         -13.0270  -17.9556   23.4947 C.3     1  UNL1        0.0171
@<TRIPOS>BOND
     1    10    11    2
     2    11     9    1
     3     9     8    1
     4     8     2    1
     5     2     3   ar
     6     3     4   ar
     7     4     5   ar
     8     5     1    1
     9     1    12    1
    10    12    13    1
    11    13    14    1
    12    13    16    1
    13    16    17    1
    14    17    19    1
    15    19    20    1
    16    19    21    1
    17     5     6   ar
    18     6     7   ar
    19     7     2   ar
    20    14    15    1
    21    17    18    1
@<TRIPOS>MOLECULE
*****
 21 21 0 0 0
SMALL
GASTEIGER

@<TRIPOS>ATOM
      1 O          -6.5851  -20.0828   20.3326 O.3     1  UNL1       -0.4728
      2 C         -10.5291  -17.9425   20.6696 C.ar    1  UNL1        0.1393
      3 C         -10.3125  -18.9484   19.5782 C.ar    1  UNL1        0.0400
      4 C          -8.9979  -19.6618   19.4658 C.ar    1  UNL1        0.0400
      5 C          -7.8998  -19.3694   20.4449 C.ar    1  UNL1        0.1389
      6 C          -8.1164  -18.3635   21.5364 C.ar    1  UNL1        0.0400
      7 C          -9.4311  -17.6501   21.6487 C.ar    1  UNL1        0.0400
      8 O         -11.8438  -17.2291   20.7820 O.3     1  UNL1       -0.4706
      9 C         -12.9337  -17.7960   21.6425 C.3     1  UNL1        0.2318
     10 C         -12.1522  -18.4696   24.0270 C.2     1  UNL1       -0.0011
     11 C         -12.9230  -17.5539   23.1228 C.2     1  UNL1        0.0207
     12 C          -5.3070  -19.2986   20.2959 C.3     1  UNL1        0.2358
     13 C          -4.2406  -19.5542   21.3194 C.3     1  UNL1        0.1697
     14 O          -4.5543  -19.4165   22.7797 O.3     1  UNL1       -0.3793
     15 H          -3.7608  -19.6152   23.3010 H       1  UNL1        0.2106
     16 C          -2.8605  -19.9474   20.8825 C.3     1  UNL1        0.1020
     17 N          -1.6656  -19.2279   21.4343 N.3     1  UNL1       -0.2964
     18 H          -0.8652  -19.8476   21.3095 H       1  UNL1        0.1233
     19 C          -1.2706  -17.8927   20.8765 C.3     1  UNL1        0.0541
     20 C          -0.1885  -17.8026   19.8417 C.3     1  UNL1        0.0171
     21 C          -1.9577  -16.6475   21.3535 C.3     1  UNL1        0.0171
@<TRIPOS>BOND
     1    10    11    2
     2    11     9    1
     3     9     8    1
     4     8     2    1
     5     2     3   ar
     6     3     4   ar
     7     4     5   ar
     8     5     1    1
     9     1    12    1
    10    12    13    1
    11    13    14    1
    12    13    16    1
    13    16    17    1
    14    17    19    1
    15    19    20    1
    16    19    21    1
    17     5     6   ar
    18     6     7   ar
    19     7     2   ar
    20    14    15    1
    21    17    18    1
@<TRIPOS>MOLECULE
*****
 21 21 0 0 0
SMALL
GASTEIGER

@<TRIPOS>ATOM
      1 O          -7.9049  -19.4651   22.1656 O.3     1  UNL1       -0.4728
      2 C          -3.5226  -19.6839   21.1670 C.ar    1  UNL1        0.1393
      3 C          -4.5098  -20.5082   20.3950 C.ar    1  UNL1        0.0400
      4 C          -5.9705  -20.4353   20.7279 C.ar    1  UNL1        0.0400
      5 C          -6.4441  -19.5381   21.8327 C.ar    1  UNL1        0.1389
      6 C          -5.4569  -18.7138   22.6047 C.ar    1  UNL1        0.0400
      7 C          -3.9962  -18.7867   22.2718 C.ar    1  UNL1        0.0400
      8 O          -2.0618  -19.7569   20.8341 O.3     1  UNL1       -0.4706
      9 C          -1.3346  -18.5274   20.3763 C.3     1  UNL1        0.2318
     10 C          -2.7544  -17.2577   18.6094 C.2     1  UNL1       -0.0011
     11 C          -1.5186  -18.0254   18.9749 C.2     1  UNL1        0.0207
     12 C          -8.4534  -20.2609   23.3127 C.3     1  UNL1        0.2358
     13 C          -9.8429  -19.9968   23.8122 C.3     1  UNL1        0.1697
     14 O         -10.1750  -20.2194   25.2579 O.3     1  UNL1       -0.3793
     15 H         -11.1079  -20.0031   25.4124 H       1  UNL1        0.2106
     16 C         -10.9002  -19.5101   22.8660 C.3     1  UNL1        0.1020
     17 N         -10.9905  -20.0837   21.4829 N.3     1  UNL1       -0.2964
     18 H         -11.9488  -20.4115   21.3621 H       1  UNL1        0.1233
     19 C         -10.6726  -19.2269   20.2935 C.3     1  UNL1        0.0541
     20 C          -9.7368  -19.7305   19.2349 C.3     1  UNL1        0.0171
     21 C         -11.2906  -17.8663   20.1626 C.3     1  UNL1        0.0171
@<TRIPOS>BOND
     1    10    11    2
     2    11     9    1
     3     9     8    1
     4     8     2    1
     5     2     3   ar
     6     3     4   ar
     7     4     5   ar
     8     5     1    1
     9     1    12    1
    10    12    13    1
    11    13    14    1
    12    13    16    1
    13    16    17    1
    14    17    19    1
    15    19    20    1
    16    19    21    1
    17     5     6   ar
    18     6     7   ar
    19     7     2   ar
    20    14    15    1
    21    17    18    1
@<TRIPOS>MOLECULE
*****
 21 21 0 0 0
SMALL
GASTEIGER

@<TRIPOS>ATOM
      1 O          -7.4458  -19.2151   22.2797 O.3     1  UNL1       -0.4728
      2 C          -3.0704  -19.5173   21.2726 C.ar    1  UNL1        0.1393
      3 C          -3.5166  -18.6794   22.4340 C.ar    1  UNL1        0.0400
      4 C          -4.9750  -18.5787   22.7697 C.ar    1  UNL1        0.0400
      5 C          -5.9874  -19.3158   21.9440 C.ar    1  UNL1        0.1389
      6 C          -5.5412  -20.1537   20.7826 C.ar    1  UNL1        0.0400
      7 C          -4.0827  -20.2544   20.4469 C.ar    1  UNL1        0.0400
      8 O          -1.6119  -19.6180   20.9369 O.3     1  UNL1       -0.4706
      9 C          -0.9450  -18.5252   20.1552 C.3     1  UNL1        0.2318
     10 C          -2.5513  -17.3482   18.4865 C.2     1  UNL1       -0.0011
     11 C          -1.7279  -17.3150   19.7399 C.2     1  UNL1        0.0207
     12 C          -8.3195  -18.2431   21.5436 C.3     1  UNL1        0.2358
     13 C          -8.5830  -16.8845   22.1220 C.3     1  UNL1        0.1697
     14 O          -7.7958  -15.7004   21.6442 O.3     1  UNL1       -0.3793
     15 H          -8.0888  -14.9054   22.1166 H       1  UNL1        0.2106
     16 C          -9.6337  -16.7099   23.1782 C.3     1  UNL1        0.1020
     17 N         -11.0808  -16.9080   22.8366 N.3     1  UNL1       -0.2964
     18 H         -11.1248  -17.0852   21.8331 H       1  UNL1        0.1233
     19 C         -11.8665  -17.9978   23.5036 C.3     1  UNL1        0.0541
     20 C         -11.1535  -19.1458   24.1545 C.3     1  UNL1        0.0171
     21 C         -13.3653  -17.9396   23.5198 C.3     1  UNL1        0.0171
@<TRIPOS>BOND
     1    10    11    2
     2    11     9    1
     3     9     8    1
     4     8     2    1
     5     2     3   ar
     6     3     4   ar
     7     4     5   ar
     8     5     1    1
     9     1    12    1
    10    12    13    1
    11    13    14    1
    12    13    16    1
    13    16    17    1
    14    17    19    1
    15    19    20    1
    16    19    21    1
    17     5     6   ar
    18     6     7   ar
    19     7     2   ar
    20    14    15    1
    21    17    18    1
