@<TRIPOS>MOLECULE
*****
 27 30 0 0 0
SMALL
GASTEIGER

@<TRIPOS>ATOM
      1 C          -8.0848  -19.8306   20.7093 C.2     1  UNL1        0.0376
      2 C          -8.0219  -20.6670   19.4658 C.2     1  UNL1        0.0256
      3 C          -9.0881  -20.5357   18.4189 C.2     1  UNL1        0.0599
      4 C          -9.0252  -21.3722   17.1753 C.3     1  UNL1        0.0521
      5 N         -10.2171  -19.5679   18.6155 N.2     1  UNL1       -0.2532
      6 C         -10.2800  -18.7314   19.8591 C.2     1  UNL1        0.0693
      7 C         -11.4090  -17.7637   20.0557 C.2     1  UNL1        0.0170
      8 C         -11.4719  -16.9272   21.2993 C.2     1  UNL1        0.0216
      9 C         -10.4057  -17.0585   22.3461 C.2     1  UNL1        0.0974
     10 N         -10.2037  -16.3723   23.6646 N.2     1  UNL1       -0.2228
     11 C          -8.9499  -16.9160   24.2828 C.2     1  UNL1        0.1986
     12 N          -8.3769  -17.9382   23.3464 N.2     1  UNL1       -0.2261
     13 C          -9.2767  -18.0263   22.1495 C.2     1  UNL1        0.0889
     14 C          -9.2138  -18.8628   20.9060 C.3     1  UNL1        0.1175
     15 N          -7.0185  -19.9619   21.7563 N.pl3   1  UNL1       -0.3152
     16 H          -7.1932  -20.4812   22.5743 H       1  UNL1        0.1519
     17 C          -3.0219  -17.9824   21.1583 C.ar    1  UNL1        0.0540
     18 C          -3.6427  -18.0217   22.5232 C.ar    1  UNL1        0.0162
     19 C          -4.9748  -18.6815   22.7226 C.ar    1  UNL1        0.0159
     20 C          -5.6864  -19.3021   21.5569 C.ar    1  UNL1        0.0482
     21 C          -5.0656  -19.2628   20.1920 C.ar    1  UNL1        0.0159
     22 C          -3.7334  -18.6030   19.9927 C.ar    1  UNL1        0.0162
     23 C           0.7642  -17.4184   20.1108 C.3     1  UNL1        0.0952
     24 C          -0.5679  -18.0782   20.3102 C.2     1  UNL1        0.2299
     25 O          -0.7785  -19.4938   19.8609 O.2     1  UNL1       -0.2745
     26 N          -1.6896  -17.3226   20.9589 N.am    1  UNL1       -0.2569
     27 C          -1.4791  -15.9070   21.4082 C.3     1  UNL1        0.1200
@<TRIPOS>BOND
     1    23    24    1
     2    24    25    2
     3    24    26   am
     4    26    27    1
     5    26    17    1
     6    17    18   ar
     7    18    19   ar
     8    19    20   ar
     9    20    15    1
    10    15     1    1
    11     1     2    2
    12     2     3    1
    13     3     4    1
    14     3     5    2
    15     5     6    1
    16     6     7    2
    17     7     8    1
    18     8     9    2
    19     9    10    1
    20    10    11    2
    21    11    12    1
    22    12    13    2
    23    13    14    1
    24    20    21   ar
    25    21    22   ar
    26    22    17   ar
    27    14     1    1
    28    14     6    1
    29    13     9    1
    30    15    16    1
@<TRIPOS>MOLECULE
*****
 27 30 0 0 0
SMALL
GASTEIGER

@<TRIPOS>ATOM
      1 C          -8.3707  -18.0408   23.1113 C.2     1  UNL1        0.0376
      2 C          -7.9382  -17.3420   24.3662 C.2     1  UNL1        0.0256
      3 C          -8.7526  -16.2062   24.9108 C.2     1  UNL1        0.0599
      4 C          -8.3201  -15.5075   26.1658 C.3     1  UNL1        0.0521
      5 N          -9.9994  -15.7692   24.2007 N.2     1  UNL1       -0.2532
      6 C         -10.4319  -16.4679   22.9457 C.2     1  UNL1        0.0693
      7 C         -11.6786  -16.0308   22.2356 C.2     1  UNL1        0.0170
      8 C         -12.1112  -16.7296   20.9806 C.2     1  UNL1        0.0216
      9 C         -11.2968  -17.8654   20.4360 C.2     1  UNL1        0.0974
     10 N         -11.4724  -18.7377   19.2284 N.2     1  UNL1       -0.2228
     11 C         -10.3340  -19.7138   19.1923 C.2     1  UNL1        0.1986
     12 N          -9.4549  -19.4449   20.3775 N.2     1  UNL1       -0.2261
     13 C         -10.0499  -18.3025   21.1462 C.2     1  UNL1        0.0889
     14 C          -9.6175  -17.6037   22.4011 C.3     1  UNL1        0.1175
     15 N          -7.5562  -19.1767   22.5666 N.pl3   1  UNL1       -0.3152
     16 H          -7.8822  -20.1016   22.6525 H       1  UNL1        0.1519
     17 C          -3.6233  -18.3562   20.5398 C.ar    1  UNL1        0.0540
     18 C          -4.7688  -18.9211   19.7533 C.ar    1  UNL1        0.0162
     19 C          -6.0798  -19.1945   20.4289 C.ar    1  UNL1        0.0159
     20 C          -6.2453  -18.9032   21.8910 C.ar    1  UNL1        0.0482
     21 C          -5.0997  -18.3383   22.6775 C.ar    1  UNL1        0.0159
     22 C          -3.7887  -18.0649   22.0019 C.ar    1  UNL1        0.0162
     23 C           0.2848  -18.0414   19.9250 C.3     1  UNL1        0.0952
     24 C          -1.0261  -18.3149   20.6005 C.2     1  UNL1        0.2299
     25 O          -1.0512  -18.8207   22.0125 O.2     1  UNL1       -0.2745
     26 N          -2.3122  -18.0827   19.8642 N.am    1  UNL1       -0.2569
     27 C          -2.2872  -17.5769   18.4523 C.3     1  UNL1        0.1200
@<TRIPOS>BOND
     1    23    24    1
     2    24    25    2
     3    24    26   am
     4    26    27    1
     5    26    17    1
     6    17    18   ar
     7    18    19   ar
     8    19    20   ar
     9    20    15    1
    10    15     1    1
    11     1     2    2
    12     2     3    1
    13     3     4    1
    14     3     5    2
    15     5     6    1
    16     6     7    2
    17     7     8    1
    18     8     9    2
    19     9    10    1
    20    10    11    2
    21    11    12    1
    22    12    13    2
    23    13    14    1
    24    20    21   ar
    25    21    22   ar
    26    22    17   ar
    27    14     1    1
    28    14     6    1
    29    13     9    1
    30    15    16    1
@<TRIPOS>MOLECULE
*****
 27 30 0 0 0
SMALL
GASTEIGER

@<TRIPOS>ATOM
      1 C         -12.3396   -5.2120   18.7924 C.2     1  UNL1        0.0376
      2 C         -11.6280   -6.5183   18.9849 C.2     1  UNL1        0.0256
      3 C         -10.2500   -6.7115   18.4247 C.2     1  UNL1        0.0599
      4 C          -9.5385   -8.0179   18.6173 C.3     1  UNL1        0.0521
      5 N          -9.5836   -5.5983   17.6721 N.2     1  UNL1       -0.2532
      6 C         -10.2951   -4.2918   17.4795 C.2     1  UNL1        0.0693
      7 C          -9.6287   -3.1787   16.7269 C.2     1  UNL1        0.0170
      8 C         -10.3403   -1.8722   16.5343 C.2     1  UNL1        0.0216
      9 C         -11.7183   -1.6791   17.0945 C.2     1  UNL1        0.0974
     10 N         -12.6596   -0.5117   17.0638 N.2     1  UNL1       -0.2228
     11 C         -13.9079   -0.9035   17.7975 C.2     1  UNL1        0.1986
     12 N         -13.7380   -2.3130   18.2817 N.2     1  UNL1       -0.2261
     13 C         -12.3847   -2.7924   17.8472 C.2     1  UNL1        0.0889
     14 C         -11.6731   -4.0987   18.0397 C.3     1  UNL1        0.1175
     15 N         -13.7176   -5.0188   19.3526 N.pl3   1  UNL1       -0.3152
     16 H         -13.8685   -4.3672   20.0750 H       1  UNL1        0.1519
     17 C         -17.1622   -7.4179   17.7312 C.ar    1  UNL1        0.0540
     18 C         -17.2153   -6.8806   19.1307 C.ar    1  UNL1        0.0162
     19 C         -16.0672   -6.0810   19.6711 C.ar    1  UNL1        0.0159
     20 C         -14.8658   -5.8185   18.8121 C.ar    1  UNL1        0.0482
     21 C         -14.8127   -6.3557   17.4127 C.ar    1  UNL1        0.0159
     22 C         -15.9609   -7.1554   16.8722 C.ar    1  UNL1        0.0162
     23 C         -19.5629  -10.4817   16.9570 C.3     1  UNL1        0.0952
     24 C         -18.4147   -9.6821   17.4975 C.2     1  UNL1        0.2299
     25 O         -17.3708  -10.3470   18.3450 O.2     1  UNL1       -0.2745
     26 N         -18.3104   -8.2176   17.1907 N.am    1  UNL1       -0.2569
     27 C         -19.3543   -7.5527   16.3432 C.3     1  UNL1        0.1200
@<TRIPOS>BOND
     1    23    24    1
     2    24    25    2
     3    24    26   am
     4    26    27    1
     5    26    17    1
     6    17    18   ar
     7    18    19   ar
     8    19    20   ar
     9    20    15    1
    10    15     1    1
    11     1     2    2
    12     2     3    1
    13     3     4    1
    14     3     5    2
    15     5     6    1
    16     6     7    2
    17     7     8    1
    18     8     9    2
    19     9    10    1
    20    10    11    2
    21    11    12    1
    22    12    13    2
    23    13    14    1
    24    20    21   ar
    25    21    22   ar
    26    22    17   ar
    27    14     1    1
    28    14     6    1
    29    13     9    1
    30    15    16    1
@<TRIPOS>MOLECULE
*****
 27 30 0 0 0
SMALL
GASTEIGER

@<TRIPOS>ATOM
      1 C           6.5395   -3.6789   25.2435 C.2     1  UNL1        0.0376
      2 C           5.8613   -2.3747   25.5421 C.2     1  UNL1        0.0256
      3 C           5.5599   -1.9937   26.9612 C.2     1  UNL1        0.0599
      4 C           4.8817   -0.6895   27.2597 C.3     1  UNL1        0.0521
      5 N           5.9367   -2.9169   28.0818 N.2     1  UNL1       -0.2532
      6 C           6.6149   -4.2211   27.7833 C.2     1  UNL1        0.0693
      7 C           6.9916   -5.1442   28.9038 C.2     1  UNL1        0.0170
      8 C           7.6699   -6.4485   28.6053 C.2     1  UNL1        0.0216
      9 C           7.9713   -6.8295   27.1862 C.2     1  UNL1        0.0974
     10 N           8.6256   -8.0401   26.5893 N.2     1  UNL1       -0.2228
     11 C           8.6532   -7.8651   25.0999 C.2     1  UNL1        0.1986
     12 N           8.0160   -6.5464   24.7761 N.2     1  UNL1       -0.2261
     13 C           7.5945   -5.9063   26.0656 C.2     1  UNL1        0.0889
     14 C           6.9163   -4.6021   26.3641 C.3     1  UNL1        0.1175
     15 N           6.8410   -4.0599   23.8243 N.pl3   1  UNL1       -0.3152
     16 H           7.4813   -4.7831   23.6342 H       1  UNL1        0.1519
     17 C           4.8183   -1.8973   20.4359 C.ar    1  UNL1        0.0540
     18 C           6.2071   -1.5104   20.8498 C.ar    1  UNL1        0.0162
     19 C           6.8813   -2.2312   21.9792 C.ar    1  UNL1        0.0159
     20 C           6.1667   -3.3391   22.6949 C.ar    1  UNL1        0.0482
     21 C           4.7779   -3.7260   22.2810 C.ar    1  UNL1        0.0159
     22 C           4.1036   -3.0051   21.1515 C.ar    1  UNL1        0.0162
     23 C           3.8006   -0.8095   16.7574 C.3     1  UNL1        0.0952
     24 C           4.4749   -1.5303   17.8868 C.2     1  UNL1        0.2299
     25 O           5.4804   -2.6051   17.5967 O.2     1  UNL1       -0.2745
     26 N           4.1439   -1.1765   19.3064 N.am    1  UNL1       -0.2569
     27 C           3.1385   -0.1018   19.5965 C.3     1  UNL1        0.1200
@<TRIPOS>BOND
     1    23    24    1
     2    24    25    2
     3    24    26   am
     4    26    27    1
     5    26    17    1
     6    17    18   ar
     7    18    19   ar
     8    19    20   ar
     9    20    15    1
    10    15     1    1
    11     1     2    2
    12     2     3    1
    13     3     4    1
    14     3     5    2
    15     5     6    1
    16     6     7    2
    17     7     8    1
    18     8     9    2
    19     9    10    1
    20    10    11    2
    21    11    12    1
    22    12    13    2
    23    13    14    1
    24    20    21   ar
    25    21    22   ar
    26    22    17   ar
    27    14     1    1
    28    14     6    1
    29    13     9    1
    30    15    16    1
@<TRIPOS>MOLECULE
*****
 27 30 0 0 0
SMALL
GASTEIGER

@<TRIPOS>ATOM
      1 C           6.9466   -4.2081   25.4488 C.2     1  UNL1        0.0376
      2 C           7.4327   -5.1923   24.4265 C.2     1  UNL1        0.0256
      3 C           8.0147   -6.5034   24.8651 C.2     1  UNL1        0.0599
      4 C           8.5009   -7.4876   23.8428 C.3     1  UNL1        0.0521
      5 N           8.1106   -6.8302   26.3259 N.2     1  UNL1       -0.2532
      6 C           7.6244   -5.8460   27.3482 C.2     1  UNL1        0.0693
      7 C           7.7203   -6.1728   28.8089 C.2     1  UNL1        0.0170
      8 C           7.2341   -5.1886   29.8312 C.2     1  UNL1        0.0216
      9 C           6.6521   -3.8776   29.3926 C.2     1  UNL1        0.0974
     10 N           6.0952   -2.7183   30.1646 N.2     1  UNL1       -0.2228
     11 C           5.6552   -1.6749   29.1808 C.2     1  UNL1        0.1986
     12 N           5.9401   -2.1894   27.8009 N.2     1  UNL1       -0.2261
     13 C           6.5563   -3.5507   27.9318 C.2     1  UNL1        0.0889
     14 C           7.0424   -4.5349   26.9096 C.3     1  UNL1        0.1175
     15 N           6.3645   -2.8970   25.0102 N.pl3   1  UNL1       -0.3152
     16 H           6.2170   -2.1793   25.6678 H       1  UNL1        0.1519
     17 C           5.2927   -2.2441   20.6888 C.ar    1  UNL1        0.0540
     18 C           6.5915   -1.7209   21.2267 C.ar    1  UNL1        0.0162
     19 C           6.9488   -1.9385   22.6671 C.ar    1  UNL1        0.0159
     20 C           6.0072   -2.6794   23.5698 C.ar    1  UNL1        0.0482
     21 C           4.7085   -3.2026   23.0318 C.ar    1  UNL1        0.0159
     22 C           4.3512   -2.9850   21.5914 C.ar    1  UNL1        0.0162
     23 C           3.7098   -0.6499   17.4173 C.3     1  UNL1        0.0952
     24 C           4.0671   -0.8674   18.8577 C.2     1  UNL1        0.2299
     25 O           3.5561    0.0742   19.9077 O.2     1  UNL1       -0.2745
     26 N           4.9354   -2.0265   19.2483 N.am    1  UNL1       -0.2569
     27 C           5.4464   -2.9681   18.1984 C.3     1  UNL1        0.1200
@<TRIPOS>BOND
     1    23    24    1
     2    24    25    2
     3    24    26   am
     4    26    27    1
     5    26    17    1
     6    17    18   ar
     7    18    19   ar
     8    19    20   ar
     9    20    15    1
    10    15     1    1
    11     1     2    2
    12     2     3    1
    13     3     4    1
    14     3     5    2
    15     5     6    1
    16     6     7    2
    17     7     8    1
    18     8     9    2
    19     9    10    1
    20    10    11    2
    21    11    12    1
    22    12    13    2
    23    13    14    1
    24    20    21   ar
    25    21    22   ar
    26    22    17   ar
    27    14     1    1
    28    14     6    1
    29    13     9    1
    30    15    16    1
@<TRIPOS>MOLECULE
*****
 27 30 0 0 0
SMALL
GASTEIGER

@<TRIPOS>ATOM
      1 C          -1.1947    3.3225   22.0377 C.2     1  UNL1        0.0376
      2 C          -0.5950    3.1386   23.4003 C.2     1  UNL1        0.0256
      3 C          -1.4762    3.1426   24.6142 C.2     1  UNL1        0.0599
      4 C          -0.8764    2.9588   25.9768 C.3     1  UNL1        0.0521
      5 N          -2.9568    3.3305   24.4656 N.2     1  UNL1       -0.2532
      6 C          -3.5565    3.5143   23.1029 C.2     1  UNL1        0.0693
      7 C          -5.0372    3.7022   22.9543 C.2     1  UNL1        0.0170
      8 C          -5.6369    3.8860   21.5917 C.2     1  UNL1        0.0216
      9 C          -4.7558    3.8820   20.3778 C.2     1  UNL1        0.0974
     10 N          -5.0588    4.0388   18.9171 N.2     1  UNL1       -0.2228
     11 C          -3.7654    3.9479   18.1631 C.2     1  UNL1        0.1986
     12 N          -2.6629    3.7349   19.1577 N.2     1  UNL1       -0.2261
     13 C          -3.2750    3.6942   20.5265 C.2     1  UNL1        0.0889
     14 C          -2.6754    3.5103   21.8890 C.3     1  UNL1        0.1175
     15 N          -0.3135    3.3185   20.8237 N.pl3   1  UNL1       -0.3152
     16 H          -0.3550    4.0647   20.1829 H       1  UNL1        0.1519
     17 C           2.5194   -0.1043   20.1110 C.ar    1  UNL1        0.0540
     18 C           3.0552    1.2795   20.3299 C.ar    1  UNL1        0.0162
     19 C           2.1109    2.4204   20.5674 C.ar    1  UNL1        0.0159
     20 C           0.6308    2.1776   20.5862 C.ar    1  UNL1        0.0482
     21 C           0.0950    0.7937   20.3673 C.ar    1  UNL1        0.0159
     22 C           1.0394   -0.3472   20.1297 C.ar    1  UNL1        0.0162
     23 C           4.8975   -2.6784   18.2484 C.3     1  UNL1        0.0952
     24 C           3.9533   -1.5374   18.4859 C.2     1  UNL1        0.2299
     25 O           3.4985   -0.6883   17.3360 O.2     1  UNL1       -0.2745
     26 N           3.4637   -1.2454   19.8734 N.am    1  UNL1       -0.2569
     27 C           3.9185   -2.0944   21.0233 C.3     1  UNL1        0.1200
@<TRIPOS>BOND
     1    23    24    1
     2    24    25    2
     3    24    26   am
     4    26    27    1
     5    26    17    1
     6    17    18   ar
     7    18    19   ar
     8    19    20   ar
     9    20    15    1
    10    15     1    1
    11     1     2    2
    12     2     3    1
    13     3     4    1
    14     3     5    2
    15     5     6    1
    16     6     7    2
    17     7     8    1
    18     8     9    2
    19     9    10    1
    20    10    11    2
    21    11    12    1
    22    12    13    2
    23    13    14    1
    24    20    21   ar
    25    21    22   ar
    26    22    17   ar
    27    14     1    1
    28    14     6    1
    29    13     9    1
    30    15    16    1
@<TRIPOS>MOLECULE
*****
 27 30 0 0 0
SMALL
GASTEIGER

@<TRIPOS>ATOM
      1 C          -1.7503    3.7835   19.8313 C.2     1  UNL1        0.0376
      2 C          -2.2210    3.8777   18.4102 C.2     1  UNL1        0.0256
      3 C          -3.6890    3.8507   18.1031 C.2     1  UNL1        0.0599
      4 C          -4.1597    3.9449   16.6819 C.3     1  UNL1        0.0521
      5 N          -4.6861    3.7296   19.2169 N.2     1  UNL1       -0.2532
      6 C          -4.2154    3.6354   20.6381 C.2     1  UNL1        0.0693
      7 C          -5.2126    3.5143   21.7520 C.2     1  UNL1        0.0170
      8 C          -4.7419    3.4202   23.1732 C.2     1  UNL1        0.0216
      9 C          -3.2739    3.4471   23.4803 C.2     1  UNL1        0.0974
     10 N          -2.5176    3.3728   24.7735 N.2     1  UNL1       -0.2228
     11 C          -1.0529    3.4480   24.4588 C.2     1  UNL1        0.1986
     12 N          -0.9040    3.5688   22.9711 N.2     1  UNL1       -0.2261
     13 C          -2.2767    3.5683   22.3663 C.2     1  UNL1        0.0889
     14 C          -2.7475    3.6624   20.9452 C.3     1  UNL1        0.1175
     15 N          -0.2822    3.8105   20.1384 N.pl3   1  UNL1       -0.3152
     16 H           0.1030    4.5685   20.6347 H       1  UNL1        0.1519
     17 C           2.3609    0.4269   18.7914 C.ar    1  UNL1        0.0540
     18 C           2.7803    1.8471   18.5525 C.ar    1  UNL1        0.0162
     19 C           1.8994    2.9749   19.0015 C.ar    1  UNL1        0.0159
     20 C           0.5988    2.6826   19.6895 C.ar    1  UNL1        0.0482
     21 C           0.1794    1.2624   19.9284 C.ar    1  UNL1        0.0159
     22 C           1.0604    0.1346   19.4793 C.ar    1  UNL1        0.0162
     23 C           4.5753   -2.8654   18.8789 C.3     1  UNL1        0.0952
     24 C           3.6943   -1.7375   19.3279 C.2     1  UNL1        0.2299
     25 O           3.2657   -1.6459   20.7625 O.2     1  UNL1       -0.2745
     26 N           3.2419   -0.7011   18.3424 N.am    1  UNL1       -0.2569
     27 C           3.6705   -0.7926   16.9079 C.3     1  UNL1        0.1200
@<TRIPOS>BOND
     1    23    24    1
     2    24    25    2
     3    24    26   am
     4    26    27    1
     5    26    17    1
     6    17    18   ar
     7    18    19   ar
     8    19    20   ar
     9    20    15    1
    10    15     1    1
    11     1     2    2
    12     2     3    1
    13     3     4    1
    14     3     5    2
    15     5     6    1
    16     6     7    2
    17     7     8    1
    18     8     9    2
    19     9    10    1
    20    10    11    2
    21    11    12    1
    22    12    13    2
    23    13    14    1
    24    20    21   ar
    25    21    22   ar
    26    22    17   ar
    27    14     1    1
    28    14     6    1
    29    13     9    1
    30    15    16    1
@<TRIPOS>MOLECULE
*****
 27 30 0 0 0
SMALL
GASTEIGER

@<TRIPOS>ATOM
      1 C          -6.1484  -17.7268   22.5315 C.2     1  UNL1        0.0376
      2 C          -6.6213  -16.7010   23.5186 C.2     1  UNL1        0.0256
      3 C          -5.6353  -16.0128   24.4153 C.2     1  UNL1        0.0599
      4 C          -6.1083  -14.9870   25.4024 C.3     1  UNL1        0.0521
      5 N          -4.1767  -16.3502   24.3251 N.2     1  UNL1       -0.2532
      6 C          -3.7037  -17.3760   23.3380 C.2     1  UNL1        0.0693
      7 C          -2.2451  -17.7134   23.2478 C.2     1  UNL1        0.0170
      8 C          -1.7721  -18.7392   22.2607 C.2     1  UNL1        0.0216
      9 C          -2.7580  -19.4275   21.3640 C.2     1  UNL1        0.0974
     10 N          -2.5889  -20.4729   20.3017 N.2     1  UNL1       -0.2228
     11 C          -3.9432  -20.7816   19.7354 C.2     1  UNL1        0.1986
     12 N          -4.9493  -19.9269   20.4477 N.2     1  UNL1       -0.2261
     13 C          -4.2168  -19.0900   21.4542 C.2     1  UNL1        0.0889
     14 C          -4.6897  -18.0643   22.4413 C.3     1  UNL1        0.1175
     15 N          -7.1344  -18.4151   21.6347 N.pl3   1  UNL1       -0.3152
     16 H          -6.8194  -18.9039   20.8403 H       1  UNL1        0.1519
     17 C         -11.5316  -18.2461   22.5757 C.ar    1  UNL1        0.0540
     18 C         -10.8016  -19.5551   22.6355 C.ar    1  UNL1        0.0162
     19 C          -9.3359  -19.6114   22.3218 C.ar    1  UNL1        0.0159
     20 C          -8.6001  -18.3588   21.9483 C.ar    1  UNL1        0.0482
     21 C          -9.3300  -17.0498   21.8885 C.ar    1  UNL1        0.0159
     22 C         -10.7958  -16.9934   22.2022 C.ar    1  UNL1        0.0162
     23 C         -14.9405  -18.3794   24.6034 C.3     1  UNL1        0.0952
     24 C         -13.4748  -18.4358   24.2898 C.2     1  UNL1        0.2299
     25 O         -12.4863  -18.7385   25.3768 O.2     1  UNL1       -0.2745
     26 N         -12.9974  -18.1896   22.8893 N.am    1  UNL1       -0.2569
     27 C         -13.9857  -17.8869   21.8024 C.3     1  UNL1        0.1200
@<TRIPOS>BOND
     1    23    24    1
     2    24    25    2
     3    24    26   am
     4    26    27    1
     5    26    17    1
     6    17    18   ar
     7    18    19   ar
     8    19    20   ar
     9    20    15    1
    10    15     1    1
    11     1     2    2
    12     2     3    1
    13     3     4    1
    14     3     5    2
    15     5     6    1
    16     6     7    2
    17     7     8    1
    18     8     9    2
    19     9    10    1
    20    10    11    2
    21    11    12    1
    22    12    13    2
    23    13    14    1
    24    20    21   ar
    25    21    22   ar
    26    22    17   ar
    27    14     1    1
    28    14     6    1
    29    13     9    1
    30    15    16    1
@<TRIPOS>MOLECULE
*****
 27 30 0 0 0
SMALL
GASTEIGER

@<TRIPOS>ATOM
      1 C           4.1989   -2.0676   18.7468 C.2     1  UNL1        0.0376
      2 C           3.4280   -3.3028   19.1072 C.2     1  UNL1        0.0256
      3 C           4.1236   -4.4537   19.7717 C.2     1  UNL1        0.0599
      4 C           3.3526   -5.6890   20.1321 C.3     1  UNL1        0.0521
      5 N           5.5899   -4.3694   20.0759 N.2     1  UNL1       -0.2532
      6 C           6.3609   -3.1342   19.7155 C.2     1  UNL1        0.0693
      7 C           7.8272   -3.0498   20.0196 C.2     1  UNL1        0.0170
      8 C           8.5982   -1.8146   19.6592 C.2     1  UNL1        0.0216
      9 C           7.9026   -0.6637   18.9946 C.2     1  UNL1        0.0974
     10 N           8.3972    0.6726   18.5258 N.2     1  UNL1       -0.2228
     11 C           7.2364    1.4141   17.9320 C.2     1  UNL1        0.1986
     12 N           6.0245    0.5362   18.0337 N.2     1  UNL1       -0.2261
     13 C           6.4362   -0.7480   18.6905 C.2     1  UNL1        0.0889
     14 C           5.6653   -1.9833   19.0509 C.3     1  UNL1        0.1175
     15 N           3.5033   -0.9166   18.0822 N.pl3   1  UNL1       -0.3152
     16 H           3.6893   -0.7077   17.1383 H       1  UNL1        0.1519
     17 C           0.5666    1.5811   20.4030 C.ar    1  UNL1        0.0540
     18 C           1.5528    2.2416   19.4858 C.ar    1  UNL1        0.0162
     19 C           2.5316    1.4091   18.7122 C.ar    1  UNL1        0.0159
     20 C           2.5245   -0.0841   18.8558 C.ar    1  UNL1        0.0482
     21 C           1.5383   -0.7446   19.7730 C.ar    1  UNL1        0.0159
     22 C           0.5594    0.0881   20.5466 C.ar    1  UNL1        0.0162
     23 C          -1.1710    3.4980   23.4124 C.3     1  UNL1        0.0952
     24 C          -0.1920    2.6655   22.6389 C.2     1  UNL1        0.2299
     25 O           1.0074    2.0846   23.3275 O.2     1  UNL1       -0.2745
     26 N          -0.4124    2.4137   21.1767 N.am    1  UNL1       -0.2569
     27 C          -1.6117    2.9945   20.4880 C.3     1  UNL1        0.1200
@<TRIPOS>BOND
     1    23    24    1
     2    24    25    2
     3    24    26   am
     4    26    27    1
     5    26    17    1
     6    17    18   ar
     7    18    19   ar
     8    19    20   ar
     9    20    15    1
    10    15     1    1
    11     1     2    2
    12     2     3    1
    13     3     4    1
    14     3     5    2
    15     5     6    1
    16     6     7    2
    17     7     8    1
    18     8     9    2
    19     9    10    1
    20    10    11    2
    21    11    12    1
    22    12    13    2
    23    13    14    1
    24    20    21   ar
    25    21    22   ar
    26    22    17   ar
    27    14     1    1
    28    14     6    1
    29    13     9    1
    30    15    16    1
