@<TRIPOS>MOLECULE
*****
 42 46 0 0 0
SMALL
GASTEIGER

@<TRIPOS>ATOM
      1 C          -5.7116    3.7075   23.5273 C.3     1  UNL1        0.1183
      2 N          -4.2718    3.6239   23.1152 N.am    1  UNL1       -0.2425
      3 C          -3.1906    3.6664   24.1541 C.3     1  UNL1        0.1183
      4 C          -1.7508    3.5828   23.7419 C.3     1  UNL1        0.1146
      5 C          -1.5901    3.6932   25.2292 C.3     1  UNL1        0.0252
      6 C          -1.3921    3.4567   22.2910 C.3     1  UNL1        0.2040
      7 O          -2.4732    3.4142   21.2521 O.3     1  UNL1       -0.4351
      8 C          -3.9131    3.4978   21.6642 C.2     1  UNL1        0.4049
      9 O          -4.9943    3.4552   20.6253 O.2     1  UNL1       -0.2262
     10 N          -0.2551    3.5376   23.8464 N.am    1  UNL1       -0.2867
     11 C           0.4196    2.3341   24.4351 C.2     1  UNL1        0.3045
     12 O          -0.4014    1.1758   24.9193 O.2     1  UNL1       -0.2525
     13 N           1.9153    2.2890   24.5395 N.am    1  UNL1       -0.2683
     14 H           0.2837    4.2977   23.5286 H       1  UNL1        0.1510
     15 H           2.4542    3.0492   24.2217 H       1  UNL1        0.1564
     16 C           2.5900    1.0855   25.1281 C.ar    1  UNL1        0.0517
     17 C           3.2896    0.1054   24.2338 C.ar    1  UNL1        0.0147
     18 C           3.9643   -1.0980   24.8225 C.ar    1  UNL1        0.0014
     19 C           3.9392   -1.3214   26.3056 C.ar    1  UNL1        0.0032
     20 C           3.2396   -0.3413   27.1999 C.ar    1  UNL1        0.0386
     21 C           2.5649    0.8621   26.6113 C.ar    1  UNL1        0.0178
     22 C           3.2145   -0.5647   28.6830 C.ar    1  UNL1        0.1839
     23 N           4.3982   -0.8861   29.5464 N.ar    1  UNL1       -0.1081
     24 N           3.9165   -1.0258   30.9600 N.ar    1  UNL1       -0.0227
     25 N           2.4351   -0.7907   30.9703 N.ar    1  UNL1       -0.0429
     26 N           2.0012   -0.5057   29.5630 N.ar    1  UNL1       -0.2113
     27 C           0.6001   -0.2131   29.1145 C.3     1  UNL1        0.1573
     28 C           0.0478    3.3731   21.8789 C.3     1  UNL1        0.1181
     29 N           0.4566    2.4575   20.7633 N.3     1  UNL1       -0.2696
     30 C           0.3705    2.9241   19.3403 C.3     1  UNL1        0.0722
     31 C           0.7793    2.0086   18.2247 C.3     1  UNL1        0.0174
     32 C           1.2744    0.6264   18.5321 C.3     1  UNL1        0.0031
     33 C           1.3605    0.1597   19.9550 C.3     1  UNL1        0.0204
     34 C           0.9517    1.0753   21.0706 C.3     1  UNL1        0.0725
     35 C           1.8556   -1.2225   20.2623 C.3     1  UNL1        0.0277
     36 C           3.2675   -1.6046   19.9302 C.ar    1  UNL1       -0.0220
     37 C           3.5560   -2.9348   19.2996 C.ar    1  UNL1       -0.0020
     38 C           4.9679   -3.3169   18.9675 C.ar    1  UNL1        0.0293
     39 C           6.0914   -2.3689   19.2658 C.ar    1  UNL1        0.1401
     40 F           7.5034   -2.7510   18.9336 F       1  UNL1       -0.2042
     41 C           5.8030   -1.0388   19.8963 C.ar    1  UNL1        0.0293
     42 C           4.3910   -0.6566   20.2285 C.ar    1  UNL1       -0.0020
@<TRIPOS>BOND
     1     1     2    1
     2     2     3    1
     3     3     4    1
     4     4     5    1
     5     4    10    1
     6    10    11   am
     7    11    12    2
     8    11    13   am
     9    13    16    1
    10    16    17   ar
    11    17    18   ar
    12    18    19   ar
    13    19    20   ar
    14    20    22    1
    15    22    23   ar
    16    23    24   ar
    17    24    25   ar
    18    25    26   ar
    19    26    27    1
    20    20    21   ar
    21     4     6    1
    22     6    28    1
    23    28    29    1
    24    29    30    1
    25    30    31    1
    26    31    32    1
    27    32    33    1
    28    33    35    1
    29    35    36    1
    30    36    37   ar
    31    37    38   ar
    32    38    39   ar
    33    39    40    1
    34    39    41   ar
    35    41    42   ar
    36    33    34    1
    37     6     7    1
    38     7     8    1
    39     8     9    2
    40     8     2   am
    41    21    16   ar
    42    34    29    1
    43    26    22   ar
    44    42    36   ar
    45    10    14    1
    46    13    15    1
@<TRIPOS>MOLECULE
*****
 42 46 0 0 0
SMALL
GASTEIGER

@<TRIPOS>ATOM
      1 C          -4.7559    4.0732   18.2191 C.3     1  UNL1        0.1183
      2 N          -3.5438    3.7439   19.0392 N.am    1  UNL1       -0.2425
      3 C          -2.1733    3.9141   18.4539 C.3     1  UNL1        0.1183
      4 C          -0.9613    3.5849   19.2740 C.3     1  UNL1        0.1146
      5 C          -0.3024    4.0229   17.9996 C.3     1  UNL1        0.0252
      6 C          -1.1198    3.0853   20.6794 C.3     1  UNL1        0.2040
      7 O          -2.4903    2.9151   21.2647 O.3     1  UNL1       -0.4351
      8 C          -3.7023    3.2443   20.4446 C.2     1  UNL1        0.4049
      9 O          -5.0729    3.0741   21.0300 O.2     1  UNL1       -0.2262
     10 N           0.4796    3.4077   19.6514 N.am    1  UNL1       -0.2867
     11 C           1.2640    2.2555   19.0973 C.2     1  UNL1        0.3045
     12 O           0.6074    1.2803   18.1657 O.2     1  UNL1       -0.2525
     13 N           2.7049    2.0785   19.4749 N.am    1  UNL1       -0.2683
     14 H           0.9105    4.0478   20.2629 H       1  UNL1        0.1510
     15 H           3.1358    2.7185   20.0863 H       1  UNL1        0.1564
     16 C           3.4892    0.9262   18.9207 C.ar    1  UNL1        0.0517
     17 C           4.3687    1.1249   17.7220 C.ar    1  UNL1        0.0147
     18 C           5.1529   -0.0274   17.1678 C.ar    1  UNL1        0.0014
     19 C           5.0577   -1.3785   17.8125 C.ar    1  UNL1        0.0032
     20 C           4.1783   -1.5772   19.0112 C.ar    1  UNL1        0.0386
     21 C           3.3940   -0.4250   19.5653 C.ar    1  UNL1        0.0178
     22 C           4.0830   -2.9283   19.6559 C.ar    1  UNL1        0.1839
     23 N           3.4516   -4.1492   19.0554 N.ar    1  UNL1       -0.1081
     24 N           3.5808   -5.2711   20.0426 N.ar    1  UNL1       -0.0227
     25 N           4.2922   -4.7435   21.2532 N.ar    1  UNL1       -0.0429
     26 N           4.6026   -3.2956   21.0142 N.ar    1  UNL1       -0.2113
     27 C           5.3085   -2.3763   21.9664 C.3     1  UNL1        0.1573
     28 C           0.0922    2.7561   21.4995 C.3     1  UNL1        0.1181
     29 N          -0.0514    2.4512   22.9611 N.3     1  UNL1       -0.2696
     30 C           0.6281    1.2489   23.5468 C.3     1  UNL1        0.0722
     31 C           0.4844    0.9440   25.0084 C.3     1  UNL1        0.0174
     32 C          -0.3386    1.8413   25.8844 C.3     1  UNL1        0.0031
     33 C          -1.0181    3.0435   25.2988 C.3     1  UNL1        0.0204
     34 C          -0.8745    3.3485   23.8371 C.3     1  UNL1        0.0725
     35 C          -1.8412    3.9408   26.1748 C.3     1  UNL1        0.0277
     36 C          -3.2719    4.2243   25.8245 C.ar    1  UNL1       -0.0220
     37 C          -4.0309    5.2824   26.5690 C.ar    1  UNL1       -0.0020
     38 C          -5.4616    5.5659   26.2186 C.ar    1  UNL1        0.0293
     39 C          -6.1333    4.7912   25.1238 C.ar    1  UNL1        0.1401
     40 F          -7.5640    5.0746   24.7735 F       1  UNL1       -0.2042
     41 C          -5.3743    3.7331   24.3793 C.ar    1  UNL1        0.0293
     42 C          -3.9436    3.4496   24.7296 C.ar    1  UNL1       -0.0020
@<TRIPOS>BOND
     1     1     2    1
     2     2     3    1
     3     3     4    1
     4     4     5    1
     5     4    10    1
     6    10    11   am
     7    11    12    2
     8    11    13   am
     9    13    16    1
    10    16    17   ar
    11    17    18   ar
    12    18    19   ar
    13    19    20   ar
    14    20    22    1
    15    22    23   ar
    16    23    24   ar
    17    24    25   ar
    18    25    26   ar
    19    26    27    1
    20    20    21   ar
    21     4     6    1
    22     6    28    1
    23    28    29    1
    24    29    30    1
    25    30    31    1
    26    31    32    1
    27    32    33    1
    28    33    35    1
    29    35    36    1
    30    36    37   ar
    31    37    38   ar
    32    38    39   ar
    33    39    40    1
    34    39    41   ar
    35    41    42   ar
    36    33    34    1
    37     6     7    1
    38     7     8    1
    39     8     9    2
    40     8     2   am
    41    21    16   ar
    42    34    29    1
    43    26    22   ar
    44    42    36   ar
    45    10    14    1
    46    13    15    1
@<TRIPOS>MOLECULE
*****
 42 46 0 0 0
SMALL
GASTEIGER

@<TRIPOS>ATOM
      1 C          -4.8441    3.9923   18.1347 C.3     1  UNL1        0.1183
      2 N          -3.6615    3.6964   19.0087 N.am    1  UNL1       -0.2425
      3 C          -2.2717    3.8290   18.4603 C.3     1  UNL1        0.1183
      4 C          -1.0891    3.5330   19.3343 C.3     1  UNL1        0.1146
      5 C          -0.3865    3.9035   18.0619 C.3     1  UNL1        0.0252
      6 C          -1.2963    3.1044   20.7567 C.3     1  UNL1        0.2040
      7 O          -2.6861    2.9718   21.3051 O.3     1  UNL1       -0.4351
      8 C          -3.8687    3.2678   20.4311 C.2     1  UNL1        0.4049
      9 O          -5.2586    3.1352   20.9797 O.2     1  UNL1       -0.2262
     10 N           0.3375    3.3657   19.7663 N.am    1  UNL1       -0.2867
     11 C           1.1683    2.2541   19.1969 C.2     1  UNL1        0.3045
     12 O           0.5723    1.3097   18.1954 O.2     1  UNL1       -0.2525
     13 N           2.5950    2.0870   19.6290 N.am    1  UNL1       -0.2683
     14 H           0.7287    3.9856   20.4236 H       1  UNL1        0.1510
     15 H           2.9861    2.7068   20.2863 H       1  UNL1        0.1564
     16 C           3.4256    0.9754   19.0595 C.ar    1  UNL1        0.0517
     17 C           4.3400    1.2403   17.9004 C.ar    1  UNL1        0.0147
     18 C           5.1706    0.1287   17.3309 C.ar    1  UNL1        0.0014
     19 C           5.0869   -1.2480   17.9207 C.ar    1  UNL1        0.0032
     20 C           4.1726   -1.5130   19.0799 C.ar    1  UNL1        0.0386
     21 C           3.3420   -0.4014   19.6493 C.ar    1  UNL1        0.0178
     22 C           4.0889   -2.8896   19.6697 C.ar    1  UNL1        0.1839
     23 N           3.4949   -4.0977   19.0080 N.ar    1  UNL1       -0.1081
     24 N           3.6234   -5.2545   19.9542 N.ar    1  UNL1       -0.0227
     25 N           4.2967   -4.7614   21.2005 N.ar    1  UNL1       -0.0429
     26 N           4.5844   -3.2998   21.0248 N.ar    1  UNL1       -0.2113
     27 C           5.2506   -2.4054   22.0278 C.3     1  UNL1        0.1573
     28 C          -0.1137    2.8085   21.6307 C.3     1  UNL1        0.1181
     29 N           0.0215    3.4832   22.9635 N.3     1  UNL1       -0.2696
     30 C           0.7819    4.7712   23.0784 C.3     1  UNL1        0.0722
     31 C           0.9170    5.4459   24.4112 C.3     1  UNL1        0.0174
     32 C           0.2919    4.8328   25.6291 C.3     1  UNL1        0.0031
     33 C          -0.4685    3.5450   25.5142 C.3     1  UNL1        0.0204
     34 C          -0.6037    2.8702   24.1814 C.3     1  UNL1        0.0725
     35 C          -1.0936    2.9319   26.7321 C.3     1  UNL1        0.0277
     36 C          -0.3147    1.9577   27.5653 C.ar    1  UNL1       -0.0220
     37 C           1.1381    2.2045   27.8459 C.ar    1  UNL1       -0.0020
     38 C           1.9170    1.2304   28.6791 C.ar    1  UNL1        0.0293
     39 C           1.2433    0.0094   29.2317 C.ar    1  UNL1        0.1401
     40 F           2.0222   -0.9647   30.0649 F       1  UNL1       -0.2042
     41 C          -0.2094   -0.2374   28.9511 C.ar    1  UNL1        0.0293
     42 C          -0.9884    0.7368   28.1179 C.ar    1  UNL1       -0.0020
@<TRIPOS>BOND
     1     1     2    1
     2     2     3    1
     3     3     4    1
     4     4     5    1
     5     4    10    1
     6    10    11   am
     7    11    12    2
     8    11    13   am
     9    13    16    1
    10    16    17   ar
    11    17    18   ar
    12    18    19   ar
    13    19    20   ar
    14    20    22    1
    15    22    23   ar
    16    23    24   ar
    17    24    25   ar
    18    25    26   ar
    19    26    27    1
    20    20    21   ar
    21     4     6    1
    22     6    28    1
    23    28    29    1
    24    29    30    1
    25    30    31    1
    26    31    32    1
    27    32    33    1
    28    33    35    1
    29    35    36    1
    30    36    37   ar
    31    37    38   ar
    32    38    39   ar
    33    39    40    1
    34    39    41   ar
    35    41    42   ar
    36    33    34    1
    37     6     7    1
    38     7     8    1
    39     8     9    2
    40     8     2   am
    41    21    16   ar
    42    34    29    1
    43    26    22   ar
    44    42    36   ar
    45    10    14    1
    46    13    15    1
@<TRIPOS>MOLECULE
*****
 42 46 0 0 0
SMALL
GASTEIGER

@<TRIPOS>ATOM
      1 C           7.6534    0.0445   31.1834 C.3     1  UNL1        0.1183
      2 N           6.7853   -0.3559   30.0275 N.am    1  UNL1       -0.2425
      3 C           7.0192   -1.6639   29.3317 C.3     1  UNL1        0.1183
      4 C           6.1512   -2.0643   28.1758 C.3     1  UNL1        0.1146
      5 C           7.0615   -3.2546   28.2425 C.3     1  UNL1        0.0252
      6 C           5.0492   -1.1567   27.7157 C.3     1  UNL1        0.2040
      7 O           4.8153    0.1514   28.4115 O.3     1  UNL1       -0.4351
      8 C           5.6833    0.5518   29.5674 C.2     1  UNL1        0.4049
      9 O           5.4494    1.8599   30.2633 O.2     1  UNL1       -0.2262
     10 N           5.5993   -2.8782   27.0430 N.am    1  UNL1       -0.2867
     11 C           6.4296   -3.1170   25.8169 C.2     1  UNL1        0.3045
     12 O           7.8119   -2.5420   25.7234 O.2     1  UNL1       -0.2525
     13 N           5.8776   -3.9309   24.6841 N.am    1  UNL1       -0.2683
     14 H           4.6921   -3.2556   27.1044 H       1  UNL1        0.1510
     15 H           4.9704   -4.3083   24.7455 H       1  UNL1        0.1564
     16 C           6.7079   -4.1697   23.4580 C.ar    1  UNL1        0.0517
     17 C           7.9166   -5.0549   23.5313 C.ar    1  UNL1        0.0147
     18 C           8.7470   -5.2937   22.3052 C.ar    1  UNL1        0.0014
     19 C           8.3685   -4.6472   21.0056 C.ar    1  UNL1        0.0032
     20 C           7.1599   -3.7620   20.9322 C.ar    1  UNL1        0.0386
     21 C           6.3296   -3.5232   22.1583 C.ar    1  UNL1        0.0178
     22 C           6.7815   -3.1155   19.6326 C.ar    1  UNL1        0.1839
     23 N           7.6057   -2.1213   18.8696 N.ar    1  UNL1       -0.1081
     24 N           6.8460   -1.7410   17.6334 N.ar    1  UNL1       -0.0227
     25 N           5.5524   -2.5002   17.6324 N.ar    1  UNL1       -0.0429
     26 N           5.5125   -3.3497   18.8680 N.ar    1  UNL1       -0.2113
     27 C           4.3991   -4.2715   19.2687 C.3     1  UNL1        0.1573
     28 C           4.1811   -1.5570   26.5598 C.3     1  UNL1        0.1181
     29 N           4.3699   -0.9090   25.2202 N.3     1  UNL1       -0.2696
     30 C           5.2225    0.3187   25.0945 C.3     1  UNL1        0.0722
     31 C           5.4114    0.9667   23.7550 C.3     1  UNL1        0.0174
     32 C           4.7476    0.3870   22.5411 C.3     1  UNL1        0.0031
     33 C           3.8951   -0.8407   22.6668 C.3     1  UNL1        0.0204
     34 C           3.7062   -1.4887   24.0064 C.3     1  UNL1        0.0725
     35 C           3.2313   -1.4203   21.4530 C.3     1  UNL1        0.0277
     36 C           2.4686   -0.5295   20.5178 C.ar    1  UNL1       -0.0220
     37 C           3.0554   -0.1607   19.1875 C.ar    1  UNL1       -0.0020
     38 C           2.2927    0.7302   18.2523 C.ar    1  UNL1        0.0293
     39 C           0.9431    1.2522   18.6474 C.ar    1  UNL1        0.1401
     40 F           0.1804    2.1430   17.7122 F       1  UNL1       -0.2042
     41 C           0.3563    0.8834   19.9776 C.ar    1  UNL1        0.0293
     42 C           1.1190   -0.0075   20.9129 C.ar    1  UNL1       -0.0020
@<TRIPOS>BOND
     1     1     2    1
     2     2     3    1
     3     3     4    1
     4     4     5    1
     5     4    10    1
     6    10    11   am
     7    11    12    2
     8    11    13   am
     9    13    16    1
    10    16    17   ar
    11    17    18   ar
    12    18    19   ar
    13    19    20   ar
    14    20    22    1
    15    22    23   ar
    16    23    24   ar
    17    24    25   ar
    18    25    26   ar
    19    26    27    1
    20    20    21   ar
    21     4     6    1
    22     6    28    1
    23    28    29    1
    24    29    30    1
    25    30    31    1
    26    31    32    1
    27    32    33    1
    28    33    35    1
    29    35    36    1
    30    36    37   ar
    31    37    38   ar
    32    38    39   ar
    33    39    40    1
    34    39    41   ar
    35    41    42   ar
    36    33    34    1
    37     6     7    1
    38     7     8    1
    39     8     9    2
    40     8     2   am
    41    21    16   ar
    42    34    29    1
    43    26    22   ar
    44    42    36   ar
    45    10    14    1
    46    13    15    1
@<TRIPOS>MOLECULE
*****
 42 46 0 0 0
SMALL
GASTEIGER

@<TRIPOS>ATOM
      1 C          -4.5814    3.6231   18.8194 C.3     1  UNL1        0.1183
      2 N          -3.2817    3.6824   19.5658 N.am    1  UNL1       -0.2425
      3 C          -2.0538    4.2197   18.8924 C.3     1  UNL1        0.1183
      4 C          -0.7541    4.2789   19.6388 C.3     1  UNL1        0.1146
      5 C          -0.3226    4.8460   18.3189 C.3     1  UNL1        0.0252
      6 C          -0.6822    3.8008   21.0587 C.3     1  UNL1        0.2040
      7 O          -1.9101    3.2635   21.7322 O.3     1  UNL1       -0.4351
      8 C          -3.2098    3.2043   20.9857 C.2     1  UNL1        0.4049
      9 O          -4.4377    2.6669   21.6593 O.2     1  UNL1       -0.2262
     10 N           0.6955    4.5352   19.9268 N.am    1  UNL1       -0.2867
     11 C           1.7536    3.8866   19.0844 C.2     1  UNL1        0.3045
     12 O           1.3622    2.9818   17.9538 O.2     1  UNL1       -0.2525
     13 N           3.2033    4.1429   19.3725 N.am    1  UNL1       -0.2683
     14 H           0.9525    5.1290   20.6688 H       1  UNL1        0.1510
     15 H           3.4602    4.7368   20.1145 H       1  UNL1        0.1564
     16 C           4.2614    3.4944   18.5300 C.ar    1  UNL1        0.0517
     17 C           4.9684    4.2879   17.4716 C.ar    1  UNL1        0.0147
     18 C           6.0265    3.6394   16.6291 C.ar    1  UNL1        0.0014
     19 C           6.3775    2.1970   16.8451 C.ar    1  UNL1        0.0032
     20 C           5.6705    1.4035   17.9035 C.ar    1  UNL1        0.0386
     21 C           4.6124    2.0520   18.7459 C.ar    1  UNL1        0.0178
     22 C           6.0215   -0.0389   18.1195 C.ar    1  UNL1        0.1839
     23 N           5.7000   -1.1730   17.1920 N.ar    1  UNL1       -0.1081
     24 N           6.2355   -2.4352   17.8002 N.ar    1  UNL1       -0.0227
     25 N           6.8879   -2.0812   19.1036 N.ar    1  UNL1       -0.0429
     26 N           6.7557   -0.6001   19.3010 N.ar    1  UNL1       -0.2113
     27 C           7.2678    0.1823   20.4738 C.3     1  UNL1        0.1573
     28 C           0.6175    3.8601   21.8052 C.3     1  UNL1        0.1181
     29 N           1.1066    2.6573   22.5561 N.3     1  UNL1       -0.2696
     30 C           0.3643    2.1764   23.7676 C.3     1  UNL1        0.0722
     31 C           0.8534    0.9735   24.5185 C.3     1  UNL1        0.0174
     32 C           2.0849    0.2515   24.0580 C.3     1  UNL1        0.0031
     33 C           2.8272    0.7324   22.8465 C.3     1  UNL1        0.0204
     34 C           2.3381    1.9352   22.0955 C.3     1  UNL1        0.0725
     35 C           4.0587    0.0103   22.3859 C.3     1  UNL1        0.0277
     36 C           3.9331   -1.2319   21.5547 C.ar    1  UNL1       -0.0220
     37 C           3.1691   -1.1968   20.2643 C.ar    1  UNL1       -0.0020
     38 C           3.0435   -2.4391   19.4331 C.ar    1  UNL1        0.0293
     39 C           3.6817   -3.7165   19.8923 C.ar    1  UNL1        0.1401
     40 F           3.5561   -4.9588   19.0611 F       1  UNL1       -0.2042
     41 C           4.4457   -3.7516   21.1826 C.ar    1  UNL1        0.0293
     42 C           4.5714   -2.5093   22.0139 C.ar    1  UNL1       -0.0020
@<TRIPOS>BOND
     1     1     2    1
     2     2     3    1
     3     3     4    1
     4     4     5    1
     5     4    10    1
     6    10    11   am
     7    11    12    2
     8    11    13   am
     9    13    16    1
    10    16    17   ar
    11    17    18   ar
    12    18    19   ar
    13    19    20   ar
    14    20    22    1
    15    22    23   ar
    16    23    24   ar
    17    24    25   ar
    18    25    26   ar
    19    26    27    1
    20    20    21   ar
    21     4     6    1
    22     6    28    1
    23    28    29    1
    24    29    30    1
    25    30    31    1
    26    31    32    1
    27    32    33    1
    28    33    35    1
    29    35    36    1
    30    36    37   ar
    31    37    38   ar
    32    38    39   ar
    33    39    40    1
    34    39    41   ar
    35    41    42   ar
    36    33    34    1
    37     6     7    1
    38     7     8    1
    39     8     9    2
    40     8     2   am
    41    21    16   ar
    42    34    29    1
    43    26    22   ar
    44    42    36   ar
    45    10    14    1
    46    13    15    1
@<TRIPOS>MOLECULE
*****
 42 46 0 0 0
SMALL
GASTEIGER

@<TRIPOS>ATOM
      1 C           9.0628   -7.4176   28.4488 C.3     1  UNL1        0.1183
      2 N           8.3473   -6.4456   27.5581 N.am    1  UNL1       -0.2425
      3 C           8.4693   -4.9713   27.8058 C.3     1  UNL1        0.1183
      4 C           7.7537   -3.9994   26.9152 C.3     1  UNL1        0.1146
      5 C           8.4237   -3.0442   27.8579 C.3     1  UNL1        0.0252
      6 C           6.9161   -4.5018   25.7768 C.3     1  UNL1        0.2040
      7 O           6.7940   -5.9761   25.5291 O.3     1  UNL1       -0.4351
      8 C           7.5096   -6.9480   26.4198 C.2     1  UNL1        0.4049
      9 O           7.3875   -8.4224   26.1720 O.2     1  UNL1       -0.2262
     10 N           7.2709   -2.6957   26.3520 N.am    1  UNL1       -0.2867
     11 C           6.3746   -1.8121   27.1680 C.2     1  UNL1        0.3045
     12 O           5.9611   -2.2323   28.5474 O.2     1  UNL1       -0.2525
     13 N           5.8917   -0.5084   26.6047 N.am    1  UNL1       -0.2683
     14 H           7.5423   -2.4199   25.4467 H       1  UNL1        0.1510
     15 H           6.1631   -0.2326   25.6994 H       1  UNL1        0.1564
     16 C           4.9954    0.3751   27.4208 C.ar    1  UNL1        0.0517
     17 C           5.5447    1.6166   28.0587 C.ar    1  UNL1        0.0147
     18 C           4.6484    2.5001   28.8748 C.ar    1  UNL1        0.0014
     19 C           3.2027    2.1420   29.0530 C.ar    1  UNL1        0.0032
     20 C           2.6534    0.9005   28.4152 C.ar    1  UNL1        0.0386
     21 C           3.5497    0.0171   27.5991 C.ar    1  UNL1        0.0178
     22 C           1.2076    0.5424   28.5934 C.ar    1  UNL1        0.1839
     23 N           0.6220   -0.2104   29.7511 N.ar    1  UNL1       -0.1081
     24 N          -0.8538   -0.3438   29.5183 N.ar    1  UNL1       -0.0227
     25 N          -1.1802    0.3266   28.2168 N.ar    1  UNL1       -0.0429
     26 N           0.0938    0.8743   27.6451 N.ar    1  UNL1       -0.2113
     27 C           0.2301    1.6226   26.3523 C.3     1  UNL1        0.1573
     28 C           6.2005   -3.5298   24.8861 C.3     1  UNL1        0.1181
     29 N           6.3159   -3.6532   23.3957 N.3     1  UNL1       -0.2696
     30 C           7.6616   -3.8432   22.7607 C.3     1  UNL1        0.0722
     31 C           7.7769   -3.9665   21.2703 C.3     1  UNL1        0.0174
     32 C           6.5466   -3.9000   20.4148 C.3     1  UNL1        0.0031
     33 C           5.2010   -3.7101   21.0497 C.3     1  UNL1        0.0204
     34 C           5.0856   -3.5867   22.5402 C.3     1  UNL1        0.0725
     35 C           3.9707   -3.6435   20.1941 C.3     1  UNL1        0.0277
     36 C           3.5063   -2.3253   19.6495 C.ar    1  UNL1       -0.0220
     37 C           4.0003   -1.8489   18.3156 C.ar    1  UNL1       -0.0020
     38 C           3.5359   -0.5308   17.7710 C.ar    1  UNL1        0.0293
     39 C           2.5775    0.3111   18.5602 C.ar    1  UNL1        0.1401
     40 F           2.1132    1.6293   18.0155 F       1  UNL1       -0.2042
     41 C           2.0836   -0.1652   19.8940 C.ar    1  UNL1        0.0293
     42 C           2.5480   -1.4834   20.4387 C.ar    1  UNL1       -0.0020
@<TRIPOS>BOND
     1     1     2    1
     2     2     3    1
     3     3     4    1
     4     4     5    1
     5     4    10    1
     6    10    11   am
     7    11    12    2
     8    11    13   am
     9    13    16    1
    10    16    17   ar
    11    17    18   ar
    12    18    19   ar
    13    19    20   ar
    14    20    22    1
    15    22    23   ar
    16    23    24   ar
    17    24    25   ar
    18    25    26   ar
    19    26    27    1
    20    20    21   ar
    21     4     6    1
    22     6    28    1
    23    28    29    1
    24    29    30    1
    25    30    31    1
    26    31    32    1
    27    32    33    1
    28    33    35    1
    29    35    36    1
    30    36    37   ar
    31    37    38   ar
    32    38    39   ar
    33    39    40    1
    34    39    41   ar
    35    41    42   ar
    36    33    34    1
    37     6     7    1
    38     7     8    1
    39     8     9    2
    40     8     2   am
    41    21    16   ar
    42    34    29    1
    43    26    22   ar
    44    42    36   ar
    45    10    14    1
    46    13    15    1
@<TRIPOS>MOLECULE
*****
 42 46 0 0 0
SMALL
GASTEIGER

@<TRIPOS>ATOM
      1 C           9.2809   -8.1143   25.9502 C.3     1  UNL1        0.1183
      2 N           8.8748   -6.6826   26.1379 N.am    1  UNL1       -0.2425
      3 C           9.1496   -5.9896   27.4395 C.3     1  UNL1        0.1183
      4 C           8.7434   -4.5578   27.6272 C.3     1  UNL1        0.1146
      5 C           9.3573   -4.8324   28.9680 C.3     1  UNL1        0.0252
      6 C           8.0626   -3.8192   26.5134 C.3     1  UNL1        0.2040
      7 O           7.7878   -4.5122   25.2118 O.3     1  UNL1       -0.4351
      8 C           8.1939   -5.9439   25.0241 C.2     1  UNL1        0.4049
      9 O           7.9192   -6.6370   23.7224 O.2     1  UNL1       -0.2262
     10 N           8.5506   -3.2215   28.2806 N.am    1  UNL1       -0.2867
     11 C           7.4871   -3.0429   29.3233 C.2     1  UNL1        0.3045
     12 O           6.6164   -4.2007   29.7125 O.2     1  UNL1       -0.2525
     13 N           7.2943   -1.7064   29.9766 N.am    1  UNL1       -0.2683
     14 H           9.1220   -2.4616   28.0252 H       1  UNL1        0.1510
     15 H           7.8657   -0.9465   29.7212 H       1  UNL1        0.1564
     16 C           6.2308   -1.5279   31.0193 C.ar    1  UNL1        0.0517
     17 C           6.4346   -2.0767   32.4002 C.ar    1  UNL1        0.0147
     18 C           5.3711   -1.8982   33.4429 C.ar    1  UNL1        0.0014
     19 C           4.1037   -1.1707   33.1044 C.ar    1  UNL1        0.0032
     20 C           3.8998   -0.6219   31.7235 C.ar    1  UNL1        0.0386
     21 C           4.9633   -0.8004   30.6808 C.ar    1  UNL1        0.0178
     22 C           2.6324    0.1056   31.3850 C.ar    1  UNL1        0.1839
     23 N           1.6771   -0.2524   30.2854 N.ar    1  UNL1       -0.1081
     24 N           0.5521    0.7396   30.3076 N.ar    1  UNL1       -0.0227
     25 N           0.8122    1.7106   31.4208 N.ar    1  UNL1       -0.0429
     26 N           2.0980    1.3188   32.0867 N.ar    1  UNL1       -0.2113
     27 C           2.7370    2.0176   33.2501 C.3     1  UNL1        0.1573
     28 C           7.6565   -2.3874   26.7011 C.3     1  UNL1        0.1181
     29 N           6.3361   -1.9073   26.1757 N.3     1  UNL1       -0.2696
     30 C           5.1424   -1.8543   27.0827 C.3     1  UNL1        0.0722
     31 C           3.8221   -1.3742   26.5573 C.3     1  UNL1        0.0174
     32 C           3.6952   -0.9471   25.1250 C.3     1  UNL1        0.0031
     33 C           4.8888   -1.0001   24.2181 C.3     1  UNL1        0.0204
     34 C           6.2092   -1.4802   24.7434 C.3     1  UNL1        0.0725
     35 C           4.7619   -0.5730   22.7858 C.3     1  UNL1        0.0277
     36 C           4.3331   -1.5624   21.7432 C.ar    1  UNL1       -0.0220
     37 C           3.4933   -1.1141   20.5840 C.ar    1  UNL1       -0.0020
     38 C           3.0645   -2.1036   19.5414 C.ar    1  UNL1        0.0293
     39 C           3.4754   -3.5415   19.6580 C.ar    1  UNL1        0.1401
     40 F           3.0466   -4.5310   18.6155 F       1  UNL1       -0.2042
     41 C           4.3152   -3.9898   20.8172 C.ar    1  UNL1        0.0293
     42 C           4.7441   -3.0003   21.8598 C.ar    1  UNL1       -0.0020
@<TRIPOS>BOND
     1     1     2    1
     2     2     3    1
     3     3     4    1
     4     4     5    1
     5     4    10    1
     6    10    11   am
     7    11    12    2
     8    11    13   am
     9    13    16    1
    10    16    17   ar
    11    17    18   ar
    12    18    19   ar
    13    19    20   ar
    14    20    22    1
    15    22    23   ar
    16    23    24   ar
    17    24    25   ar
    18    25    26   ar
    19    26    27    1
    20    20    21   ar
    21     4     6    1
    22     6    28    1
    23    28    29    1
    24    29    30    1
    25    30    31    1
    26    31    32    1
    27    32    33    1
    28    33    35    1
    29    35    36    1
    30    36    37   ar
    31    37    38   ar
    32    38    39   ar
    33    39    40    1
    34    39    41   ar
    35    41    42   ar
    36    33    34    1
    37     6     7    1
    38     7     8    1
    39     8     9    2
    40     8     2   am
    41    21    16   ar
    42    34    29    1
    43    26    22   ar
    44    42    36   ar
    45    10    14    1
    46    13    15    1
@<TRIPOS>MOLECULE
*****
 42 46 0 0 0
SMALL
GASTEIGER

@<TRIPOS>ATOM
      1 C           7.9422   -5.7997   26.0762 C.3     1  UNL1        0.1183
      2 N           7.4622   -4.6379   25.2578 N.am    1  UNL1       -0.2425
      3 C           7.0072   -3.3798   25.9361 C.3     1  UNL1        0.1183
      4 C           6.5272   -2.2179   25.1178 C.3     1  UNL1        0.1146
      5 C           6.3660   -1.6497   26.4965 C.3     1  UNL1        0.0252
      6 C           6.5023   -2.3142   23.6211 C.3     1  UNL1        0.2040
      7 O           6.9574   -3.5722   22.9428 O.3     1  UNL1       -0.4351
      8 C           7.4373   -4.7341   23.7612 C.2     1  UNL1        0.4049
      9 O           7.8923   -5.9922   23.0828 O.2     1  UNL1       -0.2262
     10 N           5.9913   -0.8587   24.7783 N.am    1  UNL1       -0.2867
     11 C           4.5568   -0.5255   25.0630 C.2     1  UNL1        0.3045
     12 O           3.6581   -1.5515   25.6872 O.2     1  UNL1       -0.2525
     13 N           4.0209    0.8339   24.7235 N.am    1  UNL1       -0.2683
     14 H           6.5811   -0.1853   24.3686 H       1  UNL1        0.1510
     15 H           4.6108    1.5073   24.3138 H       1  UNL1        0.1564
     16 C           2.5864    1.1670   25.0082 C.ar    1  UNL1        0.0517
     17 C           1.7285    1.7678   23.9345 C.ar    1  UNL1        0.0147
     18 C           0.2940    2.1009   24.2193 C.ar    1  UNL1        0.0014
     19 C          -0.2826    1.8333   25.5779 C.ar    1  UNL1        0.0032
     20 C           0.5752    1.2325   26.6517 C.ar    1  UNL1        0.0386
     21 C           2.0097    0.8994   26.3669 C.ar    1  UNL1        0.0178
     22 C          -0.0014    0.9648   28.0104 C.ar    1  UNL1        0.1839
     23 N          -1.0420   -0.0642   28.3394 N.ar    1  UNL1       -0.1081
     24 N          -1.3223    0.0143   29.8109 N.ar    1  UNL1       -0.0227
     25 N          -0.4550    1.0917   30.3912 N.ar    1  UNL1       -0.0429
     26 N           0.3614    1.6793   29.2784 N.ar    1  UNL1       -0.2113
     27 C           1.3644    2.7868   29.4104 C.3     1  UNL1        0.1573
     28 C           6.0224   -1.1523   22.8027 C.3     1  UNL1        0.1181
     29 N           5.2992   -1.3928   21.5107 N.3     1  UNL1       -0.2696
     30 C           6.0615   -1.8281   20.2943 C.3     1  UNL1        0.0722
     31 C           5.3383   -2.0686   19.0024 C.3     1  UNL1        0.0174
     32 C           3.8530   -1.8737   18.9267 C.3     1  UNL1        0.0031
     33 C           3.0907   -1.4384   20.1430 C.3     1  UNL1        0.0204
     34 C           3.8139   -1.1979   21.4351 C.3     1  UNL1        0.0725
     35 C           1.6054   -1.2435   20.0674 C.3     1  UNL1        0.0277
     36 C           1.0405    0.1200   19.7995 C.ar    1  UNL1       -0.0220
     37 C           1.3799    0.8354   18.5254 C.ar    1  UNL1       -0.0020
     38 C           0.8151    2.1988   18.2575 C.ar    1  UNL1        0.0293
     39 C          -0.0892    2.8470   19.2636 C.ar    1  UNL1        0.1401
     40 F          -0.6540    4.2105   18.9957 F       1  UNL1       -0.2042
     41 C          -0.4286    2.1317   20.5376 C.ar    1  UNL1        0.0293
     42 C           0.1363    0.7682   20.8056 C.ar    1  UNL1       -0.0020
@<TRIPOS>BOND
     1     1     2    1
     2     2     3    1
     3     3     4    1
     4     4     5    1
     5     4    10    1
     6    10    11   am
     7    11    12    2
     8    11    13   am
     9    13    16    1
    10    16    17   ar
    11    17    18   ar
    12    18    19   ar
    13    19    20   ar
    14    20    22    1
    15    22    23   ar
    16    23    24   ar
    17    24    25   ar
    18    25    26   ar
    19    26    27    1
    20    20    21   ar
    21     4     6    1
    22     6    28    1
    23    28    29    1
    24    29    30    1
    25    30    31    1
    26    31    32    1
    27    32    33    1
    28    33    35    1
    29    35    36    1
    30    36    37   ar
    31    37    38   ar
    32    38    39   ar
    33    39    40    1
    34    39    41   ar
    35    41    42   ar
    36    33    34    1
    37     6     7    1
    38     7     8    1
    39     8     9    2
    40     8     2   am
    41    21    16   ar
    42    34    29    1
    43    26    22   ar
    44    42    36   ar
    45    10    14    1
    46    13    15    1
@<TRIPOS>MOLECULE
*****
 42 46 0 0 0
SMALL
GASTEIGER

@<TRIPOS>ATOM
      1 C          -1.4699    0.2088   29.1022 C.3     1  UNL1        0.1183
      2 N          -0.3145    0.6734   28.2660 N.am    1  UNL1       -0.2425
      3 C          -0.5606    1.5103   27.0457 C.3     1  UNL1        0.1183
      4 C           0.5948    1.9749   26.2095 C.3     1  UNL1        0.1146
      5 C          -0.5426    2.5818   25.4426 C.3     1  UNL1        0.0252
      6 C           1.9962    1.6026   26.5934 C.3     1  UNL1        0.2040
      7 O           2.2422    0.7657   27.8137 O.3     1  UNL1       -0.4351
      8 C           1.0869    0.3011   28.6499 C.2     1  UNL1        0.4049
      9 O           1.3329   -0.5358   29.8702 O.2     1  UNL1       -0.2262
     10 N           1.3551    2.6503   25.1068 N.am    1  UNL1       -0.2867
     11 C           1.0739    2.2973   23.6764 C.2     1  UNL1        0.3045
     12 O           0.0324    1.2687   23.3485 O.2     1  UNL1       -0.2525
     13 N           1.8343    2.9727   22.5738 N.am    1  UNL1       -0.2683
     14 H           2.0386    3.3253   25.3220 H       1  UNL1        0.1510
     15 H           2.5179    3.6478   22.7890 H       1  UNL1        0.1564
     16 C           1.5531    2.6196   21.1433 C.ar    1  UNL1        0.0517
     17 C           0.2541    3.0248   20.5121 C.ar    1  UNL1        0.0147
     18 C          -0.0271    2.6717   19.0817 C.ar    1  UNL1        0.0014
     19 C           0.9908    1.9133   18.2824 C.ar    1  UNL1        0.0032
     20 C           2.2898    1.5082   18.9135 C.ar    1  UNL1        0.0386
     21 C           2.5710    1.8613   20.3439 C.ar    1  UNL1        0.0178
     22 C           3.3077    0.7498   18.1142 C.ar    1  UNL1        0.1839
     23 N           3.0758   -0.5441   17.3919 N.ar    1  UNL1       -0.1081
     24 N           4.3610   -0.9412   16.7282 N.ar    1  UNL1       -0.0227
     25 N           5.3872    0.1073   17.0404 N.ar    1  UNL1       -0.0429
     26 N           4.7363    1.1525   17.8970 N.ar    1  UNL1       -0.2113
     27 C           5.3977    2.3840   18.4409 C.3     1  UNL1        0.1573
     28 C           3.1515    2.0672   25.7572 C.3     1  UNL1        0.1181
     29 N           4.0830    1.0652   25.1421 N.3     1  UNL1       -0.2696
     30 C           4.7601    0.0421   26.0052 C.3     1  UNL1        0.0722
     31 C           5.6916   -0.9599   25.3901 C.3     1  UNL1        0.0174
     32 C           5.9459   -0.9389   23.9119 C.3     1  UNL1        0.0031
     33 C           5.2688    0.0842   23.0489 C.3     1  UNL1        0.0204
     34 C           4.3373    1.0862   23.6640 C.3     1  UNL1        0.0725
     35 C           5.5231    0.1052   21.5708 C.3     1  UNL1        0.0277
     36 C           5.2831   -1.1277   20.7508 C.ar    1  UNL1       -0.0220
     37 C           3.9287   -1.7724   20.7447 C.ar    1  UNL1       -0.0020
     38 C           3.6887   -3.0053   19.9247 C.ar    1  UNL1        0.0293
     39 C           4.8030   -3.5936   19.1109 C.ar    1  UNL1        0.1401
     40 F           4.5630   -4.8264   18.2910 F       1  UNL1       -0.2042
     41 C           6.1574   -2.9489   19.1171 C.ar    1  UNL1        0.0293
     42 C           6.3974   -1.7159   19.9370 C.ar    1  UNL1       -0.0020
@<TRIPOS>BOND
     1     1     2    1
     2     2     3    1
     3     3     4    1
     4     4     5    1
     5     4    10    1
     6    10    11   am
     7    11    12    2
     8    11    13   am
     9    13    16    1
    10    16    17   ar
    11    17    18   ar
    12    18    19   ar
    13    19    20   ar
    14    20    22    1
    15    22    23   ar
    16    23    24   ar
    17    24    25   ar
    18    25    26   ar
    19    26    27    1
    20    20    21   ar
    21     4     6    1
    22     6    28    1
    23    28    29    1
    24    29    30    1
    25    30    31    1
    26    31    32    1
    27    32    33    1
    28    33    35    1
    29    35    36    1
    30    36    37   ar
    31    37    38   ar
    32    38    39   ar
    33    39    40    1
    34    39    41   ar
    35    41    42   ar
    36    33    34    1
    37     6     7    1
    38     7     8    1
    39     8     9    2
    40     8     2   am
    41    21    16   ar
    42    34    29    1
    43    26    22   ar
    44    42    36   ar
    45    10    14    1
    46    13    15    1
