@<TRIPOS>MOLECULE
*****
 30 33 0 0 0
SMALL
GASTEIGER

@<TRIPOS>ATOM
      1 N          -8.1333  -19.5175   21.3730 N.3     1  UNL1       -0.2641
      2 C          -8.7289  -19.1314   22.6945 C.3     1  UNL1        0.0981
      3 C          -9.5756  -20.1118   23.4507 C.3     1  UNL1        0.0224
      4 C         -10.1712  -19.7258   24.7721 C.3     1  UNL1        0.0065
      5 C          -9.9201  -18.3593   25.3374 C.3     1  UNL1        0.0277
      6 C          -9.0734  -17.3788   24.5812 C.ar    1  UNL1       -0.0073
      7 C          -8.8223  -16.0122   25.1465 C.ar    1  UNL1       -0.0015
      8 C          -7.9756  -15.0318   24.3903 C.ar    1  UNL1        0.0203
      9 C          -7.3800  -15.4179   23.0689 C.ar    1  UNL1        0.0985
     10 N          -7.6311  -16.7844   22.5036 N.ar    1  UNL1       -0.2471
     11 C          -8.4778  -17.7649   23.2598 C.ar    1  UNL1        0.0695
     12 C          -8.8503  -19.1790   20.0997 C.3     1  UNL1        0.0989
     13 C         -10.5024  -17.1743   20.0638 C.2     1  UNL1       -0.0125
     14 C         -10.2536  -18.6511   20.1466 C.2     1  UNL1       -0.0120
     15 N         -12.3459  -15.5983   19.1320 N.3     1  UNL1       -0.3175
     16 C         -11.9057  -16.6464   20.1107 C.3     1  UNL1        0.0916
     17 H         -13.3215  -15.3579   19.3071 H       1  UNL1        0.1192
     18 H         -12.2495  -15.9580   18.1824 H       1  UNL1        0.1192
     19 C          -6.8208  -20.2419   21.3249 C.3     1  UNL1        0.0889
     20 C          -5.5357  -19.4690   21.3601 C.3     1  UNL1        0.0764
     21 C          -4.6528  -19.4263   20.1482 C.3     1  UNL1        0.0626
     22 C          -3.3677  -18.6533   20.1834 C.ar    1  UNL1        0.0577
     23 N          -2.4848  -18.6106   18.9715 N.ar    1  UNL1       -0.2484
     24 C          -1.1998  -17.8377   19.0067 C.ar    1  UNL1        0.0984
     25 C          -0.7977  -17.1075   20.2538 C.ar    1  UNL1        0.0204
     26 C          -1.6806  -17.1502   21.4656 C.ar    1  UNL1       -0.0002
     27 C          -2.9656  -17.9231   21.4304 C.ar    1  UNL1        0.0073
     28 C          -3.8486  -17.9658   22.6423 C.3     1  UNL1        0.0968
     29 N          -5.1336  -18.7388   22.6071 N.3     1  UNL1       -0.2934
     30 H          -5.8812  -18.0767   22.8146 H       1  UNL1        0.1236
@<TRIPOS>BOND
     1    15    16    1
     2    16    13    1
     3    13    14    2
     4    14    12    1
     5    12     1    1
     6     1    19    1
     7    20    19    1
     8    20    21    1
     9    21    22    1
    10    22    23   ar
    11    23    24   ar
    12    24    25   ar
    13    25    26   ar
    14    26    27   ar
    15    27    28    1
    16    28    29    1
    17     2     1    1
    18     2     3    1
    19     3     4    1
    20     4     5    1
    21     5     6    1
    22     6     7   ar
    23     7     8   ar
    24     8     9   ar
    25     9    10   ar
    26    10    11   ar
    27    29    20    1
    28    11     2    1
    29    27    22   ar
    30    11     6   ar
    31    15    17    1
    32    15    18    1
    33    29    30    1
@<TRIPOS>MOLECULE
*****
 30 33 0 0 0
SMALL
GASTEIGER

@<TRIPOS>ATOM
      1 N          -8.0310  -17.8731   22.8678 N.3     1  UNL1       -0.2641
      2 C          -9.4983  -18.0192   23.1426 C.3     1  UNL1        0.0981
      3 C          -9.9629  -18.7514   24.3665 C.3     1  UNL1        0.0224
      4 C         -11.4302  -18.8975   24.6414 C.3     1  UNL1        0.0065
      5 C         -12.4330  -18.3114   23.6923 C.3     1  UNL1        0.0277
      6 C         -11.9685  -17.5792   22.4684 C.ar    1  UNL1       -0.0073
      7 C         -12.9713  -16.9931   21.5192 C.ar    1  UNL1       -0.0015
      8 C         -12.5068  -16.2609   20.2952 C.ar    1  UNL1        0.0203
      9 C         -11.0394  -16.1148   20.0204 C.ar    1  UNL1        0.0985
     10 N         -10.0366  -16.7009   20.9695 N.ar    1  UNL1       -0.2471
     11 C         -10.5011  -17.4331   22.1935 C.ar    1  UNL1        0.0695
     12 C          -7.3838  -16.5223   22.9479 C.3     1  UNL1        0.0989
     13 C          -5.6939  -15.7332   24.7567 C.2     1  UNL1       -0.0125
     14 C          -7.1079  -15.9009   24.2850 C.2     1  UNL1       -0.0120
     15 N          -6.5505  -14.8205   27.0334 N.3     1  UNL1       -0.3175
     16 C          -5.4181  -15.1118   26.0937 C.3     1  UNL1        0.0916
     17 H          -6.1838  -14.4023   27.8884 H       1  UNL1        0.1192
     18 H          -7.0358  -15.6885   27.2604 H       1  UNL1        0.1192
     19 C          -7.2108  -19.0778   22.5128 C.3     1  UNL1        0.0889
     20 C          -5.9904  -18.9277   21.6536 C.3     1  UNL1        0.0764
     21 C          -4.6496  -18.7041   22.2878 C.3     1  UNL1        0.0626
     22 C          -3.4292  -18.5540   21.4286 C.ar    1  UNL1        0.0577
     23 N          -2.0884  -18.3305   22.0628 N.ar    1  UNL1       -0.2484
     24 C          -0.8680  -18.1804   21.2036 C.ar    1  UNL1        0.0984
     25 C          -0.9885  -18.2538   19.7103 C.ar    1  UNL1        0.0204
     26 C          -2.3293  -18.4774   19.0761 C.ar    1  UNL1       -0.0002
     27 C          -3.5497  -18.6275   19.9353 C.ar    1  UNL1        0.0073
     28 C          -4.8906  -18.8510   19.3011 C.3     1  UNL1        0.0968
     29 N          -6.1109  -19.0011   20.1603 N.3     1  UNL1       -0.2934
     30 H          -6.5145  -19.9121   19.9419 H       1  UNL1        0.1236
@<TRIPOS>BOND
     1    15    16    1
     2    16    13    1
     3    13    14    2
     4    14    12    1
     5    12     1    1
     6     1    19    1
     7    20    19    1
     8    20    21    1
     9    21    22    1
    10    22    23   ar
    11    23    24   ar
    12    24    25   ar
    13    25    26   ar
    14    26    27   ar
    15    27    28    1
    16    28    29    1
    17     2     1    1
    18     2     3    1
    19     3     4    1
    20     4     5    1
    21     5     6    1
    22     6     7   ar
    23     7     8   ar
    24     8     9   ar
    25     9    10   ar
    26    10    11   ar
    27    29    20    1
    28    11     2    1
    29    27    22   ar
    30    11     6   ar
    31    15    17    1
    32    15    18    1
    33    29    30    1
@<TRIPOS>MOLECULE
*****
 30 33 0 0 0
SMALL
GASTEIGER

@<TRIPOS>ATOM
      1 N         -10.1030  -17.9895   22.5909 N.3     1  UNL1       -0.2641
      2 C          -9.1966  -16.8959   23.0731 C.3     1  UNL1        0.0981
      3 C          -8.5885  -15.9385   22.0916 C.3     1  UNL1        0.0224
      4 C          -7.6821  -14.8449   22.5738 C.3     1  UNL1        0.0065
      5 C          -7.3839  -14.7087   24.0375 C.3     1  UNL1        0.0277
      6 C          -7.9920  -15.6662   25.0190 C.ar    1  UNL1       -0.0073
      7 C          -7.6938  -15.5300   26.4828 C.ar    1  UNL1       -0.0015
      8 C          -8.3020  -16.4875   27.4643 C.ar    1  UNL1        0.0203
      9 C          -9.2084  -17.5811   26.9821 C.ar    1  UNL1        0.0985
     10 N          -9.5066  -17.7172   25.5184 N.ar    1  UNL1       -0.2471
     11 C          -8.8984  -16.7598   24.5368 C.ar    1  UNL1        0.0695
     12 C         -11.5870  -17.7738   22.5582 C.3     1  UNL1        0.0989
     13 C         -13.8888  -17.8990   23.7566 C.2     1  UNL1       -0.0125
     14 C         -12.4461  -18.3000   23.6696 C.2     1  UNL1       -0.0120
     15 N         -14.1587  -18.6500   26.2291 N.3     1  UNL1       -0.3175
     16 C         -14.7478  -18.4252   24.8680 C.3     1  UNL1        0.0916
     17 H         -14.8791  -19.0073   26.8565 H       1  UNL1        0.1192
     18 H         -13.7975  -17.7683   26.5931 H       1  UNL1        0.1192
     19 C          -9.5254  -19.2988   22.1414 C.3     1  UNL1        0.0889
     20 C          -8.1574  -19.3438   21.5275 C.3     1  UNL1        0.0764
     21 C          -6.9432  -19.4117   22.4055 C.3     1  UNL1        0.0626
     22 C          -5.5752  -19.4567   21.7916 C.ar    1  UNL1        0.0577
     23 N          -4.3610  -19.5247   22.6696 N.ar    1  UNL1       -0.2484
     24 C          -2.9932  -19.5697   22.0557 C.ar    1  UNL1        0.0984
     25 C          -2.8396  -19.5467   20.5638 C.ar    1  UNL1        0.0204
     26 C          -4.0538  -19.4787   19.6858 C.ar    1  UNL1       -0.0002
     27 C          -5.4216  -19.4337   20.2997 C.ar    1  UNL1        0.0073
     28 C          -6.6359  -19.3658   19.4216 C.3     1  UNL1        0.0968
     29 N          -8.0038  -19.3208   20.0355 N.3     1  UNL1       -0.2934
     30 H          -8.5152  -20.1260   19.6744 H       1  UNL1        0.1236
@<TRIPOS>BOND
     1    15    16    1
     2    16    13    1
     3    13    14    2
     4    14    12    1
     5    12     1    1
     6     1    19    1
     7    20    19    1
     8    20    21    1
     9    21    22    1
    10    22    23   ar
    11    23    24   ar
    12    24    25   ar
    13    25    26   ar
    14    26    27   ar
    15    27    28    1
    16    28    29    1
    17     2     1    1
    18     2     3    1
    19     3     4    1
    20     4     5    1
    21     5     6    1
    22     6     7   ar
    23     7     8   ar
    24     8     9   ar
    25     9    10   ar
    26    10    11   ar
    27    29    20    1
    28    11     2    1
    29    27    22   ar
    30    11     6   ar
    31    15    17    1
    32    15    18    1
    33    29    30    1
@<TRIPOS>MOLECULE
*****
 30 33 0 0 0
SMALL
GASTEIGER

@<TRIPOS>ATOM
      1 N          -8.1311  -19.3767   21.3103 N.3     1  UNL1       -0.2641
      2 C          -8.7328  -19.0733   22.6505 C.3     1  UNL1        0.0981
      3 C          -9.5868  -20.0968   23.3382 C.3     1  UNL1        0.0224
      4 C         -10.1885  -19.7935   24.6783 C.3     1  UNL1        0.0065
      5 C          -9.9362  -18.4666   25.3307 C.3     1  UNL1        0.0277
      6 C          -9.0821  -17.4431   24.6430 C.ar    1  UNL1       -0.0073
      7 C          -8.8297  -16.1161   25.2954 C.ar    1  UNL1       -0.0015
      8 C          -7.9757  -15.0926   24.6077 C.ar    1  UNL1        0.0203
      9 C          -7.3740  -15.3960   23.2676 C.ar    1  UNL1        0.0985
     10 N          -7.6263  -16.7228   22.6152 N.ar    1  UNL1       -0.2471
     11 C          -8.4804  -17.7464   23.3029 C.ar    1  UNL1        0.0695
     12 C          -8.8238  -18.9273   20.0581 C.3     1  UNL1        0.0989
     13 C          -8.4700  -20.8880   18.3907 C.2     1  UNL1       -0.0125
     14 C          -9.3869  -19.9415   19.1072 C.2     1  UNL1       -0.0120
     15 N          -9.5291  -21.4717   16.0912 N.3     1  UNL1       -0.3175
     16 C          -9.0331  -21.9022   17.4398 C.3     1  UNL1        0.0916
     17 H          -9.8749  -22.2843   15.5807 H       1  UNL1        0.1192
     18 H          -8.7654  -21.0420   15.5692 H       1  UNL1        0.1192
     19 C          -6.8366  -20.1294   21.2224 C.3     1  UNL1        0.0889
     20 C          -5.5331  -19.3900   21.2868 C.3     1  UNL1        0.0764
     21 C          -4.6203  -19.3742   20.0966 C.3     1  UNL1        0.0626
     22 C          -3.3167  -18.6347   20.1610 C.ar    1  UNL1        0.0577
     23 N          -2.4039  -18.6189   18.9708 N.ar    1  UNL1       -0.2484
     24 C          -1.1005  -17.8795   19.0352 C.ar    1  UNL1        0.0984
     25 C          -0.7098  -17.1559   20.2897 C.ar    1  UNL1        0.0204
     26 C          -1.6226  -17.1717   21.4798 C.ar    1  UNL1       -0.0002
     27 C          -2.9261  -17.9111   21.4155 C.ar    1  UNL1        0.0073
     28 C          -3.8390  -17.9270   22.6056 C.3     1  UNL1        0.0968
     29 N          -5.1424  -18.6664   22.5413 N.3     1  UNL1       -0.2934
     30 H          -5.8774  -17.9844   22.7289 H       1  UNL1        0.1236
@<TRIPOS>BOND
     1    15    16    1
     2    16    13    1
     3    13    14    2
     4    14    12    1
     5    12     1    1
     6     1    19    1
     7    20    19    1
     8    20    21    1
     9    21    22    1
    10    22    23   ar
    11    23    24   ar
    12    24    25   ar
    13    25    26   ar
    14    26    27   ar
    15    27    28    1
    16    28    29    1
    17     2     1    1
    18     2     3    1
    19     3     4    1
    20     4     5    1
    21     5     6    1
    22     6     7   ar
    23     7     8   ar
    24     8     9   ar
    25     9    10   ar
    26    10    11   ar
    27    29    20    1
    28    11     2    1
    29    27    22   ar
    30    11     6   ar
    31    15    17    1
    32    15    18    1
    33    29    30    1
@<TRIPOS>MOLECULE
*****
 30 33 0 0 0
SMALL
GASTEIGER

@<TRIPOS>ATOM
      1 N          -5.9811  -19.2099   21.2273 N.3     1  UNL1       -0.2641
      2 C          -5.3296  -18.4250   22.3270 C.3     1  UNL1        0.0981
      3 C          -3.9888  -18.8427   22.8538 C.3     1  UNL1        0.0224
      4 C          -3.3373  -18.0577   23.9535 C.3     1  UNL1        0.0065
      5 C          -4.0267  -16.8550   24.5264 C.3     1  UNL1        0.0277
      6 C          -5.3675  -16.4372   23.9995 C.ar    1  UNL1       -0.0073
      7 C          -6.0569  -15.2344   24.5724 C.ar    1  UNL1       -0.0015
      8 C          -7.3977  -14.8167   24.0455 C.ar    1  UNL1        0.0203
      9 C          -8.0492  -15.6017   22.9458 C.ar    1  UNL1        0.0985
     10 N          -7.3599  -16.8044   22.3730 N.ar    1  UNL1       -0.2471
     11 C          -6.0190  -17.2222   22.8998 C.ar    1  UNL1        0.0695
     12 C          -5.4513  -19.1209   19.8268 C.3     1  UNL1        0.0989
     13 C          -3.1541  -18.0323   19.2902 C.2     1  UNL1       -0.0125
     14 C          -3.9790  -19.2530   19.5721 C.2     1  UNL1       -0.0120
     15 N          -1.1128  -17.7720   17.7043 N.3     1  UNL1       -0.3175
     16 C          -1.6818  -18.1645   19.0355 C.3     1  UNL1        0.0916
     17 H          -0.1045  -17.9262   17.7067 H       1  UNL1        0.1192
     18 H          -1.3055  -16.7857   17.5295 H       1  UNL1        0.1192
     19 C          -7.1624  -20.0840   21.5280 C.3     1  UNL1        0.0889
     20 C          -8.5271  -19.4778   21.6704 C.3     1  UNL1        0.0764
     21 C          -9.2879  -19.6360   22.9534 C.3     1  UNL1        0.0626
     22 C         -10.6526  -19.0298   23.0957 C.ar    1  UNL1        0.0577
     23 N         -11.4135  -19.1880   24.3787 N.ar    1  UNL1       -0.2484
     24 C         -12.7781  -18.5818   24.5210 C.ar    1  UNL1        0.0984
     25 C         -13.3819  -17.8174   23.3804 C.ar    1  UNL1        0.0204
     26 C         -12.6210  -17.6592   22.0974 C.ar    1  UNL1       -0.0002
     27 C         -11.2564  -18.2654   21.9551 C.ar    1  UNL1        0.0073
     28 C         -10.4955  -18.1072   20.6720 C.3     1  UNL1        0.0968
     29 N          -9.1309  -18.7134   20.5297 N.3     1  UNL1       -0.2934
     30 H          -8.4901  -17.9492   20.3154 H       1  UNL1        0.1236
@<TRIPOS>BOND
     1    15    16    1
     2    16    13    1
     3    13    14    2
     4    14    12    1
     5    12     1    1
     6     1    19    1
     7    20    19    1
     8    20    21    1
     9    21    22    1
    10    22    23   ar
    11    23    24   ar
    12    24    25   ar
    13    25    26   ar
    14    26    27   ar
    15    27    28    1
    16    28    29    1
    17     2     1    1
    18     2     3    1
    19     3     4    1
    20     4     5    1
    21     5     6    1
    22     6     7   ar
    23     7     8   ar
    24     8     9   ar
    25     9    10   ar
    26    10    11   ar
    27    29    20    1
    28    11     2    1
    29    27    22   ar
    30    11     6   ar
    31    15    17    1
    32    15    18    1
    33    29    30    1
@<TRIPOS>MOLECULE
*****
 30 33 0 0 0
SMALL
GASTEIGER

@<TRIPOS>ATOM
      1 N          -5.4872  -16.6057   23.4397 N.3     1  UNL1       -0.2641
      2 C          -5.0807  -17.7364   22.5417 C.3     1  UNL1        0.0981
      3 C          -5.9877  -18.9181   22.3662 C.3     1  UNL1        0.0224
      4 C          -5.5812  -20.0487   21.4682 C.3     1  UNL1        0.0065
      5 C          -4.2678  -19.9976   20.7456 C.3     1  UNL1        0.0277
      6 C          -3.3608  -18.8158   20.9210 C.ar    1  UNL1       -0.0073
      7 C          -2.0473  -18.7646   20.1983 C.ar    1  UNL1       -0.0015
      8 C          -1.1404  -17.5829   20.3738 C.ar    1  UNL1        0.0203
      9 C          -1.5468  -16.4522   21.2718 C.ar    1  UNL1        0.0985
     10 N          -2.8603  -16.5034   21.9944 N.ar    1  UNL1       -0.2471
     11 C          -3.7673  -17.6852   21.8190 C.ar    1  UNL1        0.0695
     12 C          -4.8835  -16.4797   24.8070 C.3     1  UNL1        0.0989
     13 C          -6.4981  -15.9675   26.7770 C.2     1  UNL1       -0.0125
     14 C          -5.4605  -15.5098   25.7952 C.2     1  UNL1       -0.0120
     15 N          -8.5343  -14.6538   27.7141 N.3     1  UNL1       -0.3175
     16 C          -7.0751  -14.9977   27.7651 C.3     1  UNL1        0.0916
     17 H          -8.7521  -13.9852   28.4530 H       1  UNL1        0.1192
     18 H          -9.0879  -15.5001   27.8474 H       1  UNL1        0.1192
     19 C          -6.4974  -15.6012   22.9705 C.3     1  UNL1        0.0889
     20 C          -7.9345  -16.0008   22.8112 C.3     1  UNL1        0.0764
     21 C          -8.5691  -16.9293   23.8035 C.3     1  UNL1        0.0626
     22 C         -10.0062  -17.3289   23.6442 C.ar    1  UNL1        0.0577
     23 N         -10.6409  -18.2575   24.6366 N.ar    1  UNL1       -0.2484
     24 C         -12.0778  -18.6571   24.4773 C.ar    1  UNL1        0.0984
     25 C         -12.8801  -18.1281   23.3256 C.ar    1  UNL1        0.0204
     26 C         -12.2454  -17.1995   22.3332 C.ar    1  UNL1       -0.0002
     27 C         -10.8085  -16.7999   22.4925 C.ar    1  UNL1        0.0073
     28 C         -10.1737  -15.8713   21.5001 C.3     1  UNL1        0.0968
     29 N          -8.7368  -15.4718   21.6594 N.3     1  UNL1       -0.2934
     30 H          -8.7203  -14.4545   21.7317 H       1  UNL1        0.1236
@<TRIPOS>BOND
     1    15    16    1
     2    16    13    1
     3    13    14    2
     4    14    12    1
     5    12     1    1
     6     1    19    1
     7    20    19    1
     8    20    21    1
     9    21    22    1
    10    22    23   ar
    11    23    24   ar
    12    24    25   ar
    13    25    26   ar
    14    26    27   ar
    15    27    28    1
    16    28    29    1
    17     2     1    1
    18     2     3    1
    19     3     4    1
    20     4     5    1
    21     5     6    1
    22     6     7   ar
    23     7     8   ar
    24     8     9   ar
    25     9    10   ar
    26    10    11   ar
    27    29    20    1
    28    11     2    1
    29    27    22   ar
    30    11     6   ar
    31    15    17    1
    32    15    18    1
    33    29    30    1
@<TRIPOS>MOLECULE
*****
 30 33 0 0 0
SMALL
GASTEIGER

@<TRIPOS>ATOM
      1 N          -8.5446  -16.8319   22.6225 N.3     1  UNL1       -0.2641
      2 C          -9.9701  -16.7587   22.1615 C.3     1  UNL1        0.0981
      3 C         -10.3100  -16.0484   20.8849 C.3     1  UNL1        0.0224
      4 C         -11.7356  -15.9751   20.4240 C.3     1  UNL1        0.0065
      5 C         -12.8212  -16.6121   21.2397 C.3     1  UNL1        0.0277
      6 C         -12.4813  -17.3225   22.5163 C.ar    1  UNL1       -0.0073
      7 C         -13.5670  -17.9596   23.3321 C.ar    1  UNL1       -0.0015
      8 C         -13.2271  -18.6699   24.6088 C.ar    1  UNL1        0.0203
      9 C         -11.8016  -18.7431   25.0697 C.ar    1  UNL1        0.0985
     10 N         -10.7159  -18.1061   24.2540 N.ar    1  UNL1       -0.2471
     11 C         -11.0558  -17.3957   22.9773 C.ar    1  UNL1        0.0695
     12 C          -7.8168  -15.5794   23.0114 C.3     1  UNL1        0.0989
     13 C          -8.4420  -15.6883   25.5308 C.2     1  UNL1       -0.0125
     14 C          -7.4667  -15.3309   24.4487 C.2     1  UNL1       -0.0120
     15 N          -6.7924  -14.7781   27.3198 N.3     1  UNL1       -0.3175
     16 C          -8.0919  -15.4398   26.9680 C.3     1  UNL1        0.0916
     17 H          -6.7197  -14.6891   28.3333 H       1  UNL1        0.1192
     18 H          -6.7561  -13.8521   26.8937 H       1  UNL1        0.1192
     19 C          -7.8468  -18.1578   22.6945 C.3     1  UNL1        0.0889
     20 C          -6.6033  -18.3956   21.8899 C.3     1  UNL1        0.0764
     21 C          -5.2570  -18.3003   22.5444 C.3     1  UNL1        0.0626
     22 C          -4.0135  -18.5381   21.7399 C.ar    1  UNL1        0.0577
     23 N          -2.6672  -18.4429   22.3943 N.ar    1  UNL1       -0.2484
     24 C          -1.4237  -18.6807   21.5898 C.ar    1  UNL1        0.0984
     25 C          -1.5266  -19.0138   20.1308 C.ar    1  UNL1        0.0204
     26 C          -2.8729  -19.1090   19.4764 C.ar    1  UNL1       -0.0002
     27 C          -4.1163  -18.8712   20.2809 C.ar    1  UNL1        0.0073
     28 C          -5.4628  -18.9665   19.6265 C.3     1  UNL1        0.0968
     29 N          -6.7062  -18.7287   20.4310 N.3     1  UNL1       -0.2934
     30 H          -7.2685  -19.5768   20.3616 H       1  UNL1        0.1236
@<TRIPOS>BOND
     1    15    16    1
     2    16    13    1
     3    13    14    2
     4    14    12    1
     5    12     1    1
     6     1    19    1
     7    20    19    1
     8    20    21    1
     9    21    22    1
    10    22    23   ar
    11    23    24   ar
    12    24    25   ar
    13    25    26   ar
    14    26    27   ar
    15    27    28    1
    16    28    29    1
    17     2     1    1
    18     2     3    1
    19     3     4    1
    20     4     5    1
    21     5     6    1
    22     6     7   ar
    23     7     8   ar
    24     8     9   ar
    25     9    10   ar
    26    10    11   ar
    27    29    20    1
    28    11     2    1
    29    27    22   ar
    30    11     6   ar
    31    15    17    1
    32    15    18    1
    33    29    30    1
@<TRIPOS>MOLECULE
*****
 30 33 0 0 0
SMALL
GASTEIGER

@<TRIPOS>ATOM
      1 N          -8.0417  -19.5807   21.5049 N.3     1  UNL1       -0.2641
      2 C          -9.1632  -19.3927   22.4832 C.3     1  UNL1        0.0981
      3 C          -9.2991  -20.3188   23.6553 C.3     1  UNL1        0.0224
      4 C         -10.4206  -20.1308   24.6335 C.3     1  UNL1        0.0065
      5 C         -11.4061  -19.0167   24.4397 C.3     1  UNL1        0.0277
      6 C         -11.2701  -18.0907   23.2676 C.ar    1  UNL1       -0.0073
      7 C         -12.2557  -16.9765   23.0737 C.ar    1  UNL1       -0.0015
      8 C         -12.1197  -16.0505   21.9016 C.ar    1  UNL1        0.0203
      9 C         -10.9982  -16.2385   20.9233 C.ar    1  UNL1        0.0985
     10 N         -10.0127  -17.3525   21.1172 N.ar    1  UNL1       -0.2471
     11 C         -10.1487  -18.2787   22.2893 C.ar    1  UNL1        0.0695
     12 C          -8.2018  -19.1271   20.0842 C.3     1  UNL1        0.0989
     13 C          -8.2669  -21.1597   18.4673 C.2     1  UNL1       -0.0125
     14 C          -8.9464  -19.9832   19.1029 C.2     1  UNL1       -0.0120
     15 N          -9.4514  -21.4413   16.1721 N.3     1  UNL1       -0.3175
     16 C          -9.0114  -22.0158   17.4861 C.3     1  UNL1        0.0916
     17 H          -9.9394  -22.1574   15.6342 H       1  UNL1        0.1192
     18 H          -8.6353  -21.1214   15.6505 H       1  UNL1        0.1192
     19 C          -6.7601  -20.2223   21.9474 C.3     1  UNL1        0.0889
     20 C          -5.4539  -19.7661   21.3680 C.3     1  UNL1        0.0764
     21 C          -4.7648  -18.5584   21.9305 C.3     1  UNL1        0.0626
     22 C          -3.4586  -18.1022   21.3510 C.ar    1  UNL1        0.0577
     23 N          -2.7696  -16.8944   21.9135 N.ar    1  UNL1       -0.2484
     24 C          -1.4634  -16.4383   21.3341 C.ar    1  UNL1        0.0984
     25 C          -0.8462  -17.1900   20.1921 C.ar    1  UNL1        0.0204
     26 C          -1.5352  -18.3978   19.6296 C.ar    1  UNL1       -0.0002
     27 C          -2.8414  -18.8539   20.2091 C.ar    1  UNL1        0.0073
     28 C          -3.5305  -20.0617   19.6466 C.3     1  UNL1        0.0968
     29 N          -4.8367  -20.5178   20.2260 N.3     1  UNL1       -0.2934
     30 H          -4.6984  -21.4767   20.5451 H       1  UNL1        0.1236
@<TRIPOS>BOND
     1    15    16    1
     2    16    13    1
     3    13    14    2
     4    14    12    1
     5    12     1    1
     6     1    19    1
     7    20    19    1
     8    20    21    1
     9    21    22    1
    10    22    23   ar
    11    23    24   ar
    12    24    25   ar
    13    25    26   ar
    14    26    27   ar
    15    27    28    1
    16    28    29    1
    17     2     1    1
    18     2     3    1
    19     3     4    1
    20     4     5    1
    21     5     6    1
    22     6     7   ar
    23     7     8   ar
    24     8     9   ar
    25     9    10   ar
    26    10    11   ar
    27    29    20    1
    28    11     2    1
    29    27    22   ar
    30    11     6   ar
    31    15    17    1
    32    15    18    1
    33    29    30    1
@<TRIPOS>MOLECULE
*****
 30 33 0 0 0
SMALL
GASTEIGER

@<TRIPOS>ATOM
      1 N          -9.9913  -18.2697   22.8952 N.3     1  UNL1       -0.2641
      2 C          -9.1625  -17.0758   23.2663 C.3     1  UNL1        0.0981
      3 C          -8.6503  -16.1568   22.1972 C.3     1  UNL1        0.0224
      4 C          -7.8214  -14.9630   22.5683 C.3     1  UNL1        0.0065
      5 C          -7.5047  -14.6882   24.0085 C.3     1  UNL1        0.0277
      6 C          -8.0169  -15.6072   25.0776 C.ar    1  UNL1       -0.0073
      7 C          -7.7002  -15.3325   26.5178 C.ar    1  UNL1       -0.0015
      8 C          -8.2124  -16.2515   27.5869 C.ar    1  UNL1        0.0203
      9 C          -9.0412  -17.4453   27.2158 C.ar    1  UNL1        0.0985
     10 N          -9.3579  -17.7201   25.7756 N.ar    1  UNL1       -0.2471
     11 C          -8.8458  -16.8011   24.7065 C.ar    1  UNL1        0.0695
     12 C         -11.4859  -18.2094   23.0080 C.3     1  UNL1        0.0989
     13 C         -11.9767  -16.3839   21.2257 C.2     1  UNL1       -0.0125
     14 C         -12.3051  -17.7041   21.8574 C.2     1  UNL1       -0.0120
     15 N         -12.1174  -15.3496   18.8465 N.3     1  UNL1       -0.3175
     16 C         -12.7959  -15.8787   20.0752 C.3     1  UNL1        0.0916
     17 H         -12.8212  -15.0515   18.1711 H       1  UNL1        0.1192
     18 H         -11.5400  -16.0827   18.4346 H       1  UNL1        0.1192
     19 C          -9.3257  -19.5238   22.4114 C.3     1  UNL1        0.0889
     20 C          -7.9940  -19.4492   21.7250 C.3     1  UNL1        0.0764
     21 C          -6.7305  -19.5714   22.5242 C.3     1  UNL1        0.0626
     22 C          -5.3988  -19.4968   21.8378 C.ar    1  UNL1        0.0577
     23 N          -4.1353  -19.6190   22.6370 N.ar    1  UNL1       -0.2484
     24 C          -2.8036  -19.5444   21.9507 C.ar    1  UNL1        0.0984
     25 C          -2.7355  -19.3477   20.4652 C.ar    1  UNL1        0.0204
     26 C          -3.9989  -19.2255   19.6660 C.ar    1  UNL1       -0.0002
     27 C          -5.3306  -19.3001   20.3524 C.ar    1  UNL1        0.0073
     28 C          -6.5941  -19.1780   19.5532 C.3     1  UNL1        0.0968
     29 N          -7.9258  -19.2525   20.2395 N.3     1  UNL1       -0.2934
     30 H          -8.4322  -20.0300   19.8160 H       1  UNL1        0.1236
@<TRIPOS>BOND
     1    15    16    1
     2    16    13    1
     3    13    14    2
     4    14    12    1
     5    12     1    1
     6     1    19    1
     7    20    19    1
     8    20    21    1
     9    21    22    1
    10    22    23   ar
    11    23    24   ar
    12    24    25   ar
    13    25    26   ar
    14    26    27   ar
    15    27    28    1
    16    28    29    1
    17     2     1    1
    18     2     3    1
    19     3     4    1
    20     4     5    1
    21     5     6    1
    22     6     7   ar
    23     7     8   ar
    24     8     9   ar
    25     9    10   ar
    26    10    11   ar
    27    29    20    1
    28    11     2    1
    29    27    22   ar
    30    11     6   ar
    31    15    17    1
    32    15    18    1
    33    29    30    1
