@<TRIPOS>MOLECULE
*****
 34 38 0 0 0
SMALL
GASTEIGER

@<TRIPOS>ATOM
      1 N          -8.1360  -19.6573   21.7892 N.3     1  UNL1       -0.2641
      2 C          -8.6522  -19.1598   23.1067 C.3     1  UNL1        0.0981
      3 C          -9.4305  -20.0776   24.0023 C.3     1  UNL1        0.0224
      4 C          -9.9466  -19.5800   25.3198 C.3     1  UNL1        0.0065
      5 C          -9.6846  -18.1647   25.7419 C.3     1  UNL1        0.0277
      6 C          -8.9064  -17.2469   24.8464 C.ar    1  UNL1       -0.0073
      7 C          -8.6443  -15.8315   25.2684 C.ar    1  UNL1       -0.0015
      8 C          -7.8661  -14.9138   24.3729 C.ar    1  UNL1        0.0203
      9 C          -7.3499  -15.4113   23.0553 C.ar    1  UNL1        0.0985
     10 N          -7.6119  -16.8266   22.6333 N.ar    1  UNL1       -0.2471
     11 C          -8.3902  -17.7445   23.5288 C.ar    1  UNL1        0.0695
     12 C          -8.9537  -19.4727   20.5453 C.3     1  UNL1        0.0994
     13 C         -11.5458  -16.5613   19.8005 C.ar    1  UNL1       -0.0069
     14 C         -12.6988  -16.9806   20.6637 C.ar    1  UNL1       -0.0030
     15 C         -12.6033  -18.2306   21.4873 C.ar    1  UNL1       -0.0006
     16 C         -11.3550  -19.0613   21.4478 C.ar    1  UNL1       -0.0029
     17 C         -10.2020  -18.6420   20.5847 C.ar    1  UNL1       -0.0064
     18 C         -10.2974  -17.3920   19.7611 C.ar    1  UNL1       -0.0058
     19 N         -10.3955  -14.5693   18.5927 N.3     1  UNL1       -0.3175
     20 C         -11.6412  -15.3113   18.9769 C.3     1  UNL1        0.0922
     21 H         -10.6449  -13.7504   18.0381 H       1  UNL1        0.1192
     22 H          -9.7914  -15.1807   18.0435 H       1  UNL1        0.1192
     23 C          -6.8022  -20.3395   21.7155 C.3     1  UNL1        0.0888
     24 C          -5.5450  -19.5236   21.6518 C.3     1  UNL1        0.0748
     25 C          -4.7126  -19.5247   20.4040 C.3     1  UNL1        0.0432
     26 C          -3.4554  -18.7088   20.3404 C.ar    1  UNL1       -0.0234
     27 C          -2.6230  -18.7099   19.0926 C.ar    1  UNL1       -0.0045
     28 C          -1.3659  -17.8941   19.0290 C.ar    1  UNL1       -0.0003
     29 C          -0.9412  -17.0772   20.2132 C.ar    1  UNL1       -0.0003
     30 C          -1.7736  -17.0761   21.4610 C.ar    1  UNL1       -0.0032
     31 C          -3.0307  -17.8919   21.5246 C.ar    1  UNL1       -0.0103
     32 C          -3.8632  -17.8909   22.7724 C.3     1  UNL1        0.0953
     33 N          -5.1203  -18.7067   22.8360 N.3     1  UNL1       -0.2934
     34 H          -5.8823  -18.0585   23.0351 H       1  UNL1        0.1236
@<TRIPOS>BOND
     1    19    20    1
     2    20    13    1
     3    13    14   ar
     4    14    15   ar
     5    15    16   ar
     6    16    17   ar
     7    17    12    1
     8    12     1    1
     9     1    23    1
    10    24    23    1
    11    24    25    1
    12    25    26    1
    13    26    27   ar
    14    27    28   ar
    15    28    29   ar
    16    29    30   ar
    17    30    31   ar
    18    31    32    1
    19    32    33    1
    20     2     1    1
    21     2     3    1
    22     3     4    1
    23     4     5    1
    24     5     6    1
    25     6     7   ar
    26     7     8   ar
    27     8     9   ar
    28     9    10   ar
    29    10    11   ar
    30    17    18   ar
    31    18    13   ar
    32    33    24    1
    33    11     2    1
    34    31    26   ar
    35    11     6   ar
    36    19    21    1
    37    19    22    1
    38    33    34    1
@<TRIPOS>MOLECULE
*****
 34 38 0 0 0
SMALL
GASTEIGER

@<TRIPOS>ATOM
      1 N          -7.7450  -18.3222   22.4119 N.3     1  UNL1       -0.2641
      2 C          -9.1485  -18.6162   22.8519 C.3     1  UNL1        0.0981
      3 C          -9.3970  -19.5887   23.9666 C.3     1  UNL1        0.0224
      4 C         -10.8006  -19.8826   24.4065 C.3     1  UNL1        0.0065
      5 C         -11.9557  -19.2042   23.7318 C.3     1  UNL1        0.0277
      6 C         -11.7072  -18.2317   22.6171 C.ar    1  UNL1       -0.0073
      7 C         -12.8624  -17.5532   21.9424 C.ar    1  UNL1       -0.0015
      8 C         -12.6140  -16.5807   20.8277 C.ar    1  UNL1        0.0203
      9 C         -11.2104  -16.2867   20.3877 C.ar    1  UNL1        0.0985
     10 N         -10.0553  -16.9652   21.0624 N.ar    1  UNL1       -0.2471
     11 C         -10.3037  -17.9377   22.1772 C.ar    1  UNL1        0.0695
     12 C          -7.2053  -16.9261   22.5093 C.3     1  UNL1        0.0994
     13 C          -7.3897  -15.6970   26.2783 C.ar    1  UNL1       -0.0069
     14 C          -5.9714  -15.2642   26.5050 C.ar    1  UNL1       -0.0030
     15 C          -4.9645  -15.3855   25.3998 C.ar    1  UNL1       -0.0006
     16 C          -5.3758  -15.9394   24.0679 C.ar    1  UNL1       -0.0029
     17 C          -6.7940  -16.3721   23.8412 C.ar    1  UNL1       -0.0064
     18 C          -7.8010  -16.2509   24.9464 C.ar    1  UNL1       -0.0058
     19 N          -8.6268  -14.2499   28.0462 N.3     1  UNL1       -0.3175
     20 C          -8.3966  -15.5757   27.3834 C.3     1  UNL1        0.0922
     21 H          -9.3391  -14.3504   28.7693 H       1  UNL1        0.1192
     22 H          -8.9407  -13.5724   27.3514 H       1  UNL1        0.1192
     23 C          -6.8810  -19.4244   21.8746 C.3     1  UNL1        0.0888
     24 C          -5.4207  -19.1821   21.6319 C.3     1  UNL1        0.0748
     25 C          -4.9452  -18.7682   20.2708 C.3     1  UNL1        0.0432
     26 C          -3.4849  -18.5259   20.0281 C.ar    1  UNL1       -0.0234
     27 C          -3.0094  -18.1120   18.6670 C.ar    1  UNL1       -0.0045
     28 C          -1.5492  -17.8697   18.4243 C.ar    1  UNL1       -0.0003
     29 C          -0.5644  -18.0414   19.5427 C.ar    1  UNL1       -0.0003
     30 C          -1.0399  -18.4553   20.9037 C.ar    1  UNL1       -0.0032
     31 C          -2.5001  -18.6976   21.1464 C.ar    1  UNL1       -0.0103
     32 C          -2.9757  -19.1115   22.5075 C.3     1  UNL1        0.0953
     33 N          -4.4359  -19.3538   22.7502 N.3     1  UNL1       -0.2934
     34 H          -4.7206  -18.7161   23.4937 H       1  UNL1        0.1236
@<TRIPOS>BOND
     1    19    20    1
     2    20    13    1
     3    13    14   ar
     4    14    15   ar
     5    15    16   ar
     6    16    17   ar
     7    17    12    1
     8    12     1    1
     9     1    23    1
    10    24    23    1
    11    24    25    1
    12    25    26    1
    13    26    27   ar
    14    27    28   ar
    15    28    29   ar
    16    29    30   ar
    17    30    31   ar
    18    31    32    1
    19    32    33    1
    20     2     1    1
    21     2     3    1
    22     3     4    1
    23     4     5    1
    24     5     6    1
    25     6     7   ar
    26     7     8   ar
    27     8     9   ar
    28     9    10   ar
    29    10    11   ar
    30    17    18   ar
    31    18    13   ar
    32    33    24    1
    33    11     2    1
    34    31    26   ar
    35    11     6   ar
    36    19    21    1
    37    19    22    1
    38    33    34    1
@<TRIPOS>MOLECULE
*****
 34 38 0 0 0
SMALL
GASTEIGER

@<TRIPOS>ATOM
      1 N          -8.6746  -17.0683   22.0211 N.3     1  UNL1       -0.2641
      2 C         -10.1468  -16.9477   21.7599 C.3     1  UNL1        0.0981
      3 C         -10.6345  -16.2615   20.5185 C.3     1  UNL1        0.0224
      4 C         -12.1066  -16.1409   20.2573 C.3     1  UNL1        0.0065
      5 C         -13.0911  -16.7066   21.2375 C.3     1  UNL1        0.0277
      6 C         -12.6033  -17.3928   22.4789 C.ar    1  UNL1       -0.0073
      7 C         -13.5878  -17.9585   23.4592 C.ar    1  UNL1       -0.0015
      8 C         -13.1001  -18.6448   24.7006 C.ar    1  UNL1        0.0203
      9 C         -11.6279  -18.7654   24.9618 C.ar    1  UNL1        0.0985
     10 N         -10.6435  -18.1997   23.9816 N.ar    1  UNL1       -0.2471
     11 C         -11.1312  -17.5134   22.7401 C.ar    1  UNL1        0.0695
     12 C          -7.8655  -15.8444   22.3330 C.3     1  UNL1        0.0994
     13 C          -7.4255  -15.5904   26.2690 C.ar    1  UNL1       -0.0069
     14 C          -5.9430  -15.3883   26.3760 C.ar    1  UNL1       -0.0030
     15 C          -5.1014  -15.3382   25.1354 C.ar    1  UNL1       -0.0006
     16 C          -5.7422  -15.4903   23.7877 C.ar    1  UNL1       -0.0029
     17 C          -7.2247  -15.6923   23.6807 C.ar    1  UNL1       -0.0064
     18 C          -8.0664  -15.7424   24.9214 C.ar    1  UNL1       -0.0058
     19 N          -8.8405  -14.3764   28.0785 N.3     1  UNL1       -0.3175
     20 C          -8.2671  -15.6404   27.5096 C.3     1  UNL1        0.0922
     21 H          -9.3813  -14.5949   28.9153 H       1  UNL1        0.1192
     22 H          -9.4475  -13.9369   27.3865 H       1  UNL1        0.1192
     23 C          -8.0115  -18.4128   21.9703 C.3     1  UNL1        0.0888
     24 C          -6.6454  -18.5530   21.3667 C.3     1  UNL1        0.0748
     25 C          -5.4309  -18.5315   22.2467 C.3     1  UNL1        0.0432
     26 C          -4.0648  -18.6717   21.6432 C.ar    1  UNL1       -0.0234
     27 C          -2.8503  -18.6502   22.5231 C.ar    1  UNL1       -0.0045
     28 C          -1.4843  -18.7904   21.9196 C.ar    1  UNL1       -0.0003
     29 C          -1.3328  -18.9522   20.4360 C.ar    1  UNL1       -0.0003
     30 C          -2.5473  -18.9738   19.5561 C.ar    1  UNL1       -0.0032
     31 C          -3.9133  -18.8335   20.1596 C.ar    1  UNL1       -0.0103
     32 C          -5.1280  -18.8551   19.2796 C.3     1  UNL1        0.0953
     33 N          -6.4940  -18.7148   19.8832 N.3     1  UNL1       -0.2934
     34 H          -7.0180  -19.5504   19.6231 H       1  UNL1        0.1236
@<TRIPOS>BOND
     1    19    20    1
     2    20    13    1
     3    13    14   ar
     4    14    15   ar
     5    15    16   ar
     6    16    17   ar
     7    17    12    1
     8    12     1    1
     9     1    23    1
    10    24    23    1
    11    24    25    1
    12    25    26    1
    13    26    27   ar
    14    27    28   ar
    15    28    29   ar
    16    29    30   ar
    17    30    31   ar
    18    31    32    1
    19    32    33    1
    20     2     1    1
    21     2     3    1
    22     3     4    1
    23     4     5    1
    24     5     6    1
    25     6     7   ar
    26     7     8   ar
    27     8     9   ar
    28     9    10   ar
    29    10    11   ar
    30    17    18   ar
    31    18    13   ar
    32    33    24    1
    33    11     2    1
    34    31    26   ar
    35    11     6   ar
    36    19    21    1
    37    19    22    1
    38    33    34    1
@<TRIPOS>MOLECULE
*****
 34 38 0 0 0
SMALL
GASTEIGER

@<TRIPOS>ATOM
      1 N          -8.2465  -19.5964   21.8871 N.3     1  UNL1       -0.2641
      2 C          -8.7383  -19.0522   23.1956 C.3     1  UNL1        0.0981
      3 C          -9.5526  -19.9189   24.1097 C.3     1  UNL1        0.0224
      4 C         -10.0445  -19.3748   25.4182 C.3     1  UNL1        0.0065
      5 C          -9.7220  -17.9640   25.8125 C.3     1  UNL1        0.0277
      6 C          -8.9077  -17.0973   24.8983 C.ar    1  UNL1       -0.0073
      7 C          -8.5851  -15.6864   25.2926 C.ar    1  UNL1       -0.0015
      8 C          -7.7708  -14.8197   24.3785 C.ar    1  UNL1        0.0203
      9 C          -7.2790  -15.3638   23.0700 C.ar    1  UNL1        0.0985
     10 N          -7.6015  -16.7746   22.6757 N.ar    1  UNL1       -0.2471
     11 C          -8.4159  -17.6414   23.5899 C.ar    1  UNL1        0.0695
     12 C          -9.0006  -19.3064   20.6233 C.3     1  UNL1        0.0994
     13 C         -12.5233  -17.7909   21.6452 C.ar    1  UNL1       -0.0069
     14 C         -12.6037  -16.6124   20.7207 C.ar    1  UNL1       -0.0030
     15 C         -11.4832  -16.3319   19.7638 C.ar    1  UNL1       -0.0006
     16 C         -10.2822  -17.2299   19.7314 C.ar    1  UNL1       -0.0029
     17 C         -10.2017  -18.4084   20.6558 C.ar    1  UNL1       -0.0064
     18 C         -11.3222  -18.6889   21.6128 C.ar    1  UNL1       -0.0058
     19 N         -13.3765  -18.1171   24.0774 N.3     1  UNL1       -0.3175
     20 C         -13.6438  -18.0714   22.6021 C.3     1  UNL1        0.0922
     21 H         -14.2444  -18.3182   24.5741 H       1  UNL1        0.1192
     22 H         -13.0098  -17.2163   24.3846 H       1  UNL1        0.1192
     23 C          -7.0006  -20.4304   21.8425 C.3     1  UNL1        0.0888
     24 C          -5.7191  -19.8378   21.3358 C.3     1  UNL1        0.0748
     25 C          -5.0241  -18.7679   22.1246 C.3     1  UNL1        0.0432
     26 C          -3.7426  -18.1753   21.6180 C.ar    1  UNL1       -0.0234
     27 C          -3.0476  -17.1054   22.4068 C.ar    1  UNL1       -0.0045
     28 C          -1.7661  -16.5129   21.9001 C.ar    1  UNL1       -0.0003
     29 C          -1.1797  -16.9903   20.6047 C.ar    1  UNL1       -0.0003
     30 C          -1.8747  -18.0602   19.8159 C.ar    1  UNL1       -0.0032
     31 C          -3.1561  -18.6527   20.3225 C.ar    1  UNL1       -0.0103
     32 C          -3.8512  -19.7226   19.5337 C.3     1  UNL1        0.0953
     33 N          -5.1327  -20.3152   20.0404 N.3     1  UNL1       -0.2934
     34 H          -4.9741  -21.3178   20.1407 H       1  UNL1        0.1236
@<TRIPOS>BOND
     1    19    20    1
     2    20    13    1
     3    13    14   ar
     4    14    15   ar
     5    15    16   ar
     6    16    17   ar
     7    17    12    1
     8    12     1    1
     9     1    23    1
    10    24    23    1
    11    24    25    1
    12    25    26    1
    13    26    27   ar
    14    27    28   ar
    15    28    29   ar
    16    29    30   ar
    17    30    31   ar
    18    31    32    1
    19    32    33    1
    20     2     1    1
    21     2     3    1
    22     3     4    1
    23     4     5    1
    24     5     6    1
    25     6     7   ar
    26     7     8   ar
    27     8     9   ar
    28     9    10   ar
    29    10    11   ar
    30    17    18   ar
    31    18    13   ar
    32    33    24    1
    33    11     2    1
    34    31    26   ar
    35    11     6   ar
    36    19    21    1
    37    19    22    1
    38    33    34    1
@<TRIPOS>MOLECULE
*****
 34 38 0 0 0
SMALL
GASTEIGER

@<TRIPOS>ATOM
      1 N          -7.3599  -19.0402   22.0240 N.3     1  UNL1       -0.2641
      2 C          -6.2366  -19.6779   21.2615 C.3     1  UNL1        0.0981
      3 C          -6.5344  -20.6750   20.1813 C.3     1  UNL1        0.0224
      4 C          -5.4110  -21.3128   19.4188 C.3     1  UNL1        0.0065
      5 C          -3.9899  -20.9533   19.7365 C.3     1  UNL1        0.0277
      6 C          -3.6920  -19.9562   20.8168 C.ar    1  UNL1       -0.0073
      7 C          -2.2708  -19.5967   21.1346 C.ar    1  UNL1       -0.0015
      8 C          -1.9730  -18.5996   22.2148 C.ar    1  UNL1        0.0203
      9 C          -3.0963  -17.9619   22.9773 C.ar    1  UNL1        0.0985
     10 N          -4.5175  -18.3213   22.6596 N.ar    1  UNL1       -0.2471
     11 C          -4.8154  -19.3185   21.5793 C.ar    1  UNL1        0.0695
     12 C          -8.3344  -19.8950   22.7787 C.3     1  UNL1        0.0994
     13 C         -11.9126  -18.2392   22.3254 C.ar    1  UNL1       -0.0069
     14 C         -12.4431  -18.3229   23.7261 C.ar    1  UNL1       -0.0030
     15 C         -11.6040  -18.9306   24.8108 C.ar    1  UNL1       -0.0006
     16 C         -10.2345  -19.4546   24.4950 C.ar    1  UNL1       -0.0029
     17 C          -9.7040  -19.3710   23.0945 C.ar    1  UNL1       -0.0064
     18 C         -10.5430  -18.7632   22.0096 C.ar    1  UNL1       -0.0058
     19 N         -12.0951  -16.9308   20.0883 N.3     1  UNL1       -0.3175
     20 C         -12.7516  -17.6315   21.2407 C.3     1  UNL1        0.0922
     21 H         -12.8105  -16.5815   19.4507 H       1  UNL1        0.1192
     22 H         -11.4886  -17.5849   19.5936 H       1  UNL1        0.1192
     23 C          -7.5088  -17.5476   22.0318 C.3     1  UNL1        0.0888
     24 C          -7.1541  -16.7649   23.2613 C.3     1  UNL1        0.0748
     25 C          -8.1456  -16.6344   24.3793 C.3     1  UNL1        0.0432
     26 C          -7.7910  -15.8517   25.6088 C.ar    1  UNL1       -0.0234
     27 C          -8.7825  -15.7211   26.7267 C.ar    1  UNL1       -0.0045
     28 C          -8.4278  -14.9384   27.9561 C.ar    1  UNL1       -0.0003
     29 C          -7.0816  -14.2863   28.0677 C.ar    1  UNL1       -0.0003
     30 C          -6.0901  -14.4169   26.9498 C.ar    1  UNL1       -0.0032
     31 C          -6.4448  -15.1996   25.7203 C.ar    1  UNL1       -0.0103
     32 C          -5.4532  -15.3302   24.6023 C.3     1  UNL1        0.0953
     33 N          -5.8079  -16.1128   23.3729 N.3     1  UNL1       -0.2934
     34 H          -5.1133  -16.8546   23.2855 H       1  UNL1        0.1236
@<TRIPOS>BOND
     1    19    20    1
     2    20    13    1
     3    13    14   ar
     4    14    15   ar
     5    15    16   ar
     6    16    17   ar
     7    17    12    1
     8    12     1    1
     9     1    23    1
    10    24    23    1
    11    24    25    1
    12    25    26    1
    13    26    27   ar
    14    27    28   ar
    15    28    29   ar
    16    29    30   ar
    17    30    31   ar
    18    31    32    1
    19    32    33    1
    20     2     1    1
    21     2     3    1
    22     3     4    1
    23     4     5    1
    24     5     6    1
    25     6     7   ar
    26     7     8   ar
    27     8     9   ar
    28     9    10   ar
    29    10    11   ar
    30    17    18   ar
    31    18    13   ar
    32    33    24    1
    33    11     2    1
    34    31    26   ar
    35    11     6   ar
    36    19    21    1
    37    19    22    1
    38    33    34    1
@<TRIPOS>MOLECULE
*****
 34 38 0 0 0
SMALL
GASTEIGER

@<TRIPOS>ATOM
      1 N         -15.0412   -5.9160   18.7995 N.3     1  UNL1       -0.2641
      2 C         -15.5617   -7.3160   18.6618 C.3     1  UNL1        0.0981
      3 C         -14.6691   -8.3993   18.1330 C.3     1  UNL1        0.0224
      4 C         -15.1896   -9.7994   17.9952 C.3     1  UNL1        0.0065
      5 C         -16.6026  -10.1161   18.3863 C.3     1  UNL1        0.0277
      6 C         -17.4952   -9.0328   18.9151 C.ar    1  UNL1       -0.0073
      7 C         -18.9083   -9.3495   19.3062 C.ar    1  UNL1       -0.0015
      8 C         -19.8008   -8.2662   19.8350 C.ar    1  UNL1        0.0203
      9 C         -19.2804   -6.8661   19.9728 C.ar    1  UNL1        0.0985
     10 N         -17.8673   -6.5494   19.5817 N.ar    1  UNL1       -0.2471
     11 C         -16.9747   -7.6327   19.0529 C.ar    1  UNL1        0.0695
     12 C         -13.9957   -5.6023   19.8283 C.3     1  UNL1        0.0994
     13 C         -10.2461   -6.4394   18.8331 C.ar    1  UNL1       -0.0069
     14 C          -9.7050   -5.0627   18.5839 C.ar    1  UNL1       -0.0030
     15 C         -10.5940   -3.8660   18.7496 C.ar    1  UNL1       -0.0006
     16 C         -12.0242   -4.0459   19.1644 C.ar    1  UNL1       -0.0029
     17 C         -12.5654   -5.4224   19.4135 C.ar    1  UNL1       -0.0064
     18 C         -11.6764   -6.6192   19.2479 C.ar    1  UNL1       -0.0058
     19 N          -9.8184   -8.8056   17.8493 N.3     1  UNL1       -0.3175
     20 C          -9.3571   -7.6361   18.6674 C.3     1  UNL1        0.0922
     21 H          -9.0941   -9.5237   17.8441 H       1  UNL1        0.1192
     22 H         -10.0018   -8.5007   16.8934 H       1  UNL1        0.1192
     23 C         -15.5662   -4.8296   17.9085 C.3     1  UNL1        0.0888
     24 C         -15.9944   -3.5180   18.4973 C.3     1  UNL1        0.0748
     25 C         -15.1617   -2.2899   18.2779 C.3     1  UNL1        0.0432
     26 C         -15.5899   -0.9783   18.8667 C.ar    1  UNL1       -0.0234
     27 C         -14.7571    0.2498   18.6473 C.ar    1  UNL1       -0.0045
     28 C         -15.1853    1.5613   19.2361 C.ar    1  UNL1       -0.0003
     29 C         -16.4462    1.6446   20.0442 C.ar    1  UNL1       -0.0003
     30 C         -17.2790    0.4164   20.2636 C.ar    1  UNL1       -0.0032
     31 C         -16.8508   -0.8950   19.6748 C.ar    1  UNL1       -0.0103
     32 C         -17.6835   -2.1233   19.8942 C.3     1  UNL1        0.0953
     33 N         -17.2553   -3.4347   19.3055 N.3     1  UNL1       -0.2934
     34 H         -18.0143   -3.7475   18.7000 H       1  UNL1        0.1236
@<TRIPOS>BOND
     1    19    20    1
     2    20    13    1
     3    13    14   ar
     4    14    15   ar
     5    15    16   ar
     6    16    17   ar
     7    17    12    1
     8    12     1    1
     9     1    23    1
    10    24    23    1
    11    24    25    1
    12    25    26    1
    13    26    27   ar
    14    27    28   ar
    15    28    29   ar
    16    29    30   ar
    17    30    31   ar
    18    31    32    1
    19    32    33    1
    20     2     1    1
    21     2     3    1
    22     3     4    1
    23     4     5    1
    24     5     6    1
    25     6     7   ar
    26     7     8   ar
    27     8     9   ar
    28     9    10   ar
    29    10    11   ar
    30    17    18   ar
    31    18    13   ar
    32    33    24    1
    33    11     2    1
    34    31    26   ar
    35    11     6   ar
    36    19    21    1
    37    19    22    1
    38    33    34    1
@<TRIPOS>MOLECULE
*****
 34 38 0 0 0
SMALL
GASTEIGER

@<TRIPOS>ATOM
      1 N          -8.3991  -17.8733   22.6611 N.3     1  UNL1       -0.2641
      2 C          -9.8788  -17.9188   22.9028 C.3     1  UNL1        0.0981
      3 C         -10.4188  -18.6050   24.1224 C.3     1  UNL1        0.0224
      4 C         -11.8985  -18.6505   24.3642 C.3     1  UNL1        0.0065
      5 C         -12.8382  -18.0098   23.3863 C.3     1  UNL1        0.0277
      6 C         -12.2982  -17.3236   22.1667 C.ar    1  UNL1       -0.0073
      7 C         -13.2380  -16.6828   21.1887 C.ar    1  UNL1       -0.0015
      8 C         -12.6981  -15.9965   19.9691 C.ar    1  UNL1        0.0203
      9 C         -11.2184  -15.9510   19.7274 C.ar    1  UNL1        0.0985
     10 N         -10.2786  -16.5918   20.7053 N.ar    1  UNL1       -0.2471
     11 C         -10.8186  -17.2781   21.9250 C.ar    1  UNL1        0.0695
     12 C          -7.6385  -16.6032   22.9024 C.3     1  UNL1        0.0994
     13 C          -5.3570  -16.1587   26.1191 C.ar    1  UNL1       -0.0069
     14 C          -6.3277  -15.5225   27.0694 C.ar    1  UNL1       -0.0030
     15 C          -7.7353  -15.2466   26.6307 C.ar    1  UNL1       -0.0006
     16 C          -8.1722  -15.6068   25.2417 C.ar    1  UNL1       -0.0029
     17 C          -7.2016  -16.2430   24.2914 C.ar    1  UNL1       -0.0064
     18 C          -5.7939  -16.5189   24.7301 C.ar    1  UNL1       -0.0058
     19 N          -3.4093  -17.8332   26.5096 N.3     1  UNL1       -0.3175
     20 C          -3.9494  -16.4346   26.5579 C.3     1  UNL1        0.0922
     21 H          -2.4447  -17.8368   26.8414 H       1  UNL1        0.1192
     22 H          -3.4399  -18.1766   25.5496 H       1  UNL1        0.1192
     23 C          -7.6801  -19.0978   22.1781 C.3     1  UNL1        0.0888
     24 C          -6.3840  -18.9625   21.4352 C.3     1  UNL1        0.0748
     25 C          -5.0865  -18.9444   22.1877 C.3     1  UNL1        0.0432
     26 C          -3.7904  -18.8090   21.4447 C.ar    1  UNL1       -0.0234
     27 C          -2.4930  -18.7910   22.1972 C.ar    1  UNL1       -0.0045
     28 C          -1.1970  -18.6556   21.4543 C.ar    1  UNL1       -0.0003
     29 C          -1.1984  -18.5383   19.9589 C.ar    1  UNL1       -0.0003
     30 C          -2.4958  -18.5564   19.2064 C.ar    1  UNL1       -0.0032
     31 C          -3.7918  -18.6917   19.9493 C.ar    1  UNL1       -0.0103
     32 C          -5.0894  -18.7098   19.1969 C.3     1  UNL1        0.0953
     33 N          -6.3854  -18.8452   19.9398 N.3     1  UNL1       -0.2934
     34 H          -6.8455  -19.6811   19.5793 H       1  UNL1        0.1236
@<TRIPOS>BOND
     1    19    20    1
     2    20    13    1
     3    13    14   ar
     4    14    15   ar
     5    15    16   ar
     6    16    17   ar
     7    17    12    1
     8    12     1    1
     9     1    23    1
    10    24    23    1
    11    24    25    1
    12    25    26    1
    13    26    27   ar
    14    27    28   ar
    15    28    29   ar
    16    29    30   ar
    17    30    31   ar
    18    31    32    1
    19    32    33    1
    20     2     1    1
    21     2     3    1
    22     3     4    1
    23     4     5    1
    24     5     6    1
    25     6     7   ar
    26     7     8   ar
    27     8     9   ar
    28     9    10   ar
    29    10    11   ar
    30    17    18   ar
    31    18    13   ar
    32    33    24    1
    33    11     2    1
    34    31    26   ar
    35    11     6   ar
    36    19    21    1
    37    19    22    1
    38    33    34    1
@<TRIPOS>MOLECULE
*****
 34 38 0 0 0
SMALL
GASTEIGER

@<TRIPOS>ATOM
      1 N         -13.5588   -4.6543   18.7655 N.3     1  UNL1       -0.2641
      2 C         -12.2227   -5.2736   18.4802 C.3     1  UNL1        0.0981
      3 C         -11.8929   -6.6306   19.0275 C.3     1  UNL1        0.0224
      4 C         -10.5568   -7.2499   18.7422 C.3     1  UNL1        0.0065
      5 C          -9.5506   -6.5121   17.9097 C.3     1  UNL1        0.0277
      6 C          -9.8805   -5.1551   17.3624 C.ar    1  UNL1       -0.0073
      7 C          -8.8742   -4.4173   16.5298 C.ar    1  UNL1       -0.0015
      8 C          -9.2041   -3.0602   15.9824 C.ar    1  UNL1        0.0203
      9 C         -10.5402   -2.4409   16.2677 C.ar    1  UNL1        0.0985
     10 N         -11.5464   -3.1787   17.1003 N.ar    1  UNL1       -0.2471
     11 C         -11.2165   -4.5358   17.6476 C.ar    1  UNL1        0.0695
     12 C         -14.7544   -5.0393   17.9455 C.3     1  UNL1        0.0994
     13 C         -16.6807   -8.0708   19.6335 C.ar    1  UNL1       -0.0069
     14 C         -18.0529   -7.4845   19.7869 C.ar    1  UNL1       -0.0030
     15 C         -18.3255   -6.0832   19.3265 C.ar    1  UNL1       -0.0006
     16 C         -17.2260   -5.2681   18.7127 C.ar    1  UNL1       -0.0029
     17 C         -15.8539   -5.8544   18.5593 C.ar    1  UNL1       -0.0064
     18 C         -15.5812   -7.2557   19.0197 C.ar    1  UNL1       -0.0058
     19 N         -17.2884  -10.5968   19.6355 N.3     1  UNL1       -0.3175
     20 C         -16.4081   -9.4721   20.0938 C.3     1  UNL1        0.0922
     21 H         -16.9603  -11.4728   20.0421 H       1  UNL1        0.1192
     22 H         -17.2560  -10.6610   18.6180 H       1  UNL1        0.1192
     23 C         -13.6994   -3.6500   19.8707 C.3     1  UNL1        0.0888
     24 C         -14.0897   -2.2365   19.5546 C.3     1  UNL1        0.0748
     25 C         -15.3827   -1.6815   20.0742 C.3     1  UNL1        0.0432
     26 C         -15.7730   -0.2680   19.7581 C.ar    1  UNL1       -0.0234
     27 C         -17.0661    0.2870   20.2776 C.ar    1  UNL1       -0.0045
     28 C         -17.4563    1.7004   19.9615 C.ar    1  UNL1       -0.0003
     29 C         -16.5536    2.5588   19.1259 C.ar    1  UNL1       -0.0003
     30 C         -15.2605    2.0037   18.6064 C.ar    1  UNL1       -0.0032
     31 C         -14.8703    0.5903   18.9225 C.ar    1  UNL1       -0.0103
     32 C         -13.5772    0.0352   18.4029 C.3     1  UNL1        0.0953
     33 N         -13.1869   -1.3782   18.7190 N.3     1  UNL1       -0.2934
     34 H         -12.2904   -1.3348   19.2036 H       1  UNL1        0.1236
@<TRIPOS>BOND
     1    19    20    1
     2    20    13    1
     3    13    14   ar
     4    14    15   ar
     5    15    16   ar
     6    16    17   ar
     7    17    12    1
     8    12     1    1
     9     1    23    1
    10    24    23    1
    11    24    25    1
    12    25    26    1
    13    26    27   ar
    14    27    28   ar
    15    28    29   ar
    16    29    30   ar
    17    30    31   ar
    18    31    32    1
    19    32    33    1
    20     2     1    1
    21     2     3    1
    22     3     4    1
    23     4     5    1
    24     5     6    1
    25     6     7   ar
    26     7     8   ar
    27     8     9   ar
    28     9    10   ar
    29    10    11   ar
    30    17    18   ar
    31    18    13   ar
    32    33    24    1
    33    11     2    1
    34    31    26   ar
    35    11     6   ar
    36    19    21    1
    37    19    22    1
    38    33    34    1
@<TRIPOS>MOLECULE
*****
 34 38 0 0 0
SMALL
GASTEIGER

@<TRIPOS>ATOM
      1 N          -8.3013  -18.8957   21.1034 N.3     1  UNL1       -0.2641
      2 C          -8.1710  -17.7789   22.0963 C.3     1  UNL1        0.0981
      3 C          -7.5127  -16.4921   21.6956 C.3     1  UNL1        0.0224
      4 C          -7.3823  -15.3753   22.6885 C.3     1  UNL1        0.0065
      5 C          -7.9104  -15.5454   24.0821 C.3     1  UNL1        0.0277
      6 C          -8.5687  -16.8322   24.4828 C.ar    1  UNL1       -0.0073
      7 C          -9.0967  -17.0023   25.8765 C.ar    1  UNL1       -0.0015
      8 C          -9.7550  -18.2891   26.2772 C.ar    1  UNL1        0.0203
      9 C          -9.8853  -19.4059   25.2843 C.ar    1  UNL1        0.0985
     10 N          -9.3573  -19.2359   23.8907 N.ar    1  UNL1       -0.2471
     11 C          -8.6990  -17.9490   23.4899 C.ar    1  UNL1        0.0695
     12 C          -9.5296  -19.0000   20.2489 C.3     1  UNL1        0.0994
     13 C         -12.8292  -17.6768   22.0131 C.ar    1  UNL1       -0.0069
     14 C         -13.1355  -16.4717   21.1740 C.ar    1  UNL1       -0.0030
     15 C         -12.2399  -16.1095   20.0266 C.ar    1  UNL1       -0.0006
     16 C         -11.0379  -16.9523   19.7182 C.ar    1  UNL1       -0.0029
     17 C         -10.7316  -18.1573   20.5573 C.ar    1  UNL1       -0.0064
     18 C         -11.6272  -18.5196   21.7048 C.ar    1  UNL1       -0.0058
     19 N         -13.1338  -18.3554   24.5024 N.3     1  UNL1       -0.3175
     20 C         -13.7248  -18.0391   23.1605 C.3     1  UNL1        0.0922
     21 H         -13.8816  -18.5782   25.1593 H       1  UNL1        0.1192
     22 H         -12.6116  -17.5480   24.8428 H       1  UNL1        0.1192
     23 C          -7.2032  -19.9081   20.9650 C.3     1  UNL1        0.0888
     24 C          -5.7703  -19.4822   21.0890 C.3     1  UNL1        0.0748
     25 C          -4.9917  -19.1037   19.8641 C.3     1  UNL1        0.0432
     26 C          -3.5587  -18.6778   19.9881 C.ar    1  UNL1       -0.0234
     27 C          -2.7801  -18.2993   18.7632 C.ar    1  UNL1       -0.0045
     28 C          -1.3472  -17.8734   18.8872 C.ar    1  UNL1       -0.0003
     29 C          -0.6930  -17.8259   20.2362 C.ar    1  UNL1       -0.0003
     30 C          -1.4716  -18.2044   21.4611 C.ar    1  UNL1       -0.0032
     31 C          -2.9045  -18.6303   21.3371 C.ar    1  UNL1       -0.0103
     32 C          -3.6832  -19.0088   22.5620 C.3     1  UNL1        0.0953
     33 N          -5.1160  -19.4347   22.4380 N.3     1  UNL1       -0.2934
     34 H          -5.6648  -18.7918   23.0089 H       1  UNL1        0.1236
@<TRIPOS>BOND
     1    19    20    1
     2    20    13    1
     3    13    14   ar
     4    14    15   ar
     5    15    16   ar
     6    16    17   ar
     7    17    12    1
     8    12     1    1
     9     1    23    1
    10    24    23    1
    11    24    25    1
    12    25    26    1
    13    26    27   ar
    14    27    28   ar
    15    28    29   ar
    16    29    30   ar
    17    30    31   ar
    18    31    32    1
    19    32    33    1
    20     2     1    1
    21     2     3    1
    22     3     4    1
    23     4     5    1
    24     5     6    1
    25     6     7   ar
    26     7     8   ar
    27     8     9   ar
    28     9    10   ar
    29    10    11   ar
    30    17    18   ar
    31    18    13   ar
    32    33    24    1
    33    11     2    1
    34    31    26   ar
    35    11     6   ar
    36    19    21    1
    37    19    22    1
    38    33    34    1
