@<TRIPOS>MOLECULE
*****
 26 28 0 0 0
SMALL
GASTEIGER

@<TRIPOS>ATOM
      1 C          -7.8238  -18.3567   21.5376 C.2     1  UNL1        0.2422
      2 O          -9.2924  -18.6369   21.4169 O.2     1  UNL1       -0.2733
      3 N          -7.3010  -17.5892   22.7157 N.am    1  UNL1       -0.2722
      4 C          -5.8324  -17.3090   22.8364 C.3     1  UNL1        0.0987
      5 C          -5.3096  -16.5416   24.0144 C.3     1  UNL1        0.0476
      6 C          -6.2554  -16.0542   25.0717 C.ar    1  UNL1       -0.0226
      7 C          -5.7327  -15.2868   26.2497 C.ar    1  UNL1       -0.0045
      8 C          -6.6785  -14.7995   27.3069 C.ar    1  UNL1       -0.0003
      9 C          -8.1472  -15.0797   27.1862 C.ar    1  UNL1       -0.0003
     10 C          -8.6700  -15.8471   26.0083 C.ar    1  UNL1       -0.0027
     11 C          -7.7241  -16.3344   24.9510 C.ar    1  UNL1       -0.0040
     12 C          -8.2469  -17.1019   23.7729 C.3     1  UNL1        0.1202
     13 C          -9.7155  -17.3821   23.6522 C.ar    1  UNL1       -0.0001
     14 C         -10.5945  -16.4525   22.8690 C.ar    1  UNL1       -0.0023
     15 C         -12.0631  -16.7327   22.7483 C.ar    1  UNL1       -0.0003
     16 C         -12.6528  -17.9424   23.4108 C.ar    1  UNL1       -0.0000
     17 C         -11.7739  -18.8719   24.1940 C.ar    1  UNL1       -0.0003
     18 C         -10.3052  -18.5917   24.3147 C.ar    1  UNL1       -0.0023
     19 C          -6.8779  -18.8440   20.4804 C.3     1  UNL1        0.1552
     20 N          -6.2075  -20.1773   20.6307 N.3     1  UNL1       -0.2878
     21 H          -6.2068  -20.3959   21.6270 H       1  UNL1        0.1238
     22 C          -4.8015  -20.3690   20.1443 C.3     1  UNL1        0.0985
     23 C          -2.8310  -19.6359   21.6705 C.3     1  UNL1        0.0332
     24 C          -3.7402  -19.3730   20.5069 C.3     1  UNL1        0.1263
     25 O          -3.5880  -18.1140   19.7057 O.3     1  UNL1       -0.3830
     26 H          -4.2488  -18.1007   18.9958 H       1  UNL1        0.2104
@<TRIPOS>BOND
     1    24    23    1
     2    24    25    1
     3    24    22    1
     4    22    20    1
     5    20    19    1
     6    19     1    1
     7     1     2    2
     8     1     3   am
     9     3     4    1
    10     4     5    1
    11     5     6    1
    12     6     7   ar
    13     7     8   ar
    14     8     9   ar
    15     9    10   ar
    16    10    11   ar
    17    11    12    1
    18    12    13    1
    19    13    14   ar
    20    14    15   ar
    21    15    16   ar
    22    16    17   ar
    23    17    18   ar
    24    12     3    1
    25    18    13   ar
    26    11     6   ar
    27    25    26    1
    28    20    21    1
@<TRIPOS>MOLECULE
*****
 26 28 0 0 0
SMALL
GASTEIGER

@<TRIPOS>ATOM
      1 C          -7.3637  -16.3167   23.8879 C.2     1  UNL1        0.2422
      2 O          -8.8259  -16.6327   23.7776 O.2     1  UNL1       -0.2733
      3 N          -6.3571  -17.1619   23.1650 N.am    1  UNL1       -0.2722
      4 C          -4.8949  -16.8460   23.2753 C.3     1  UNL1        0.0987
      5 C          -3.8884  -17.6911   22.5524 C.3     1  UNL1        0.0476
      6 C          -4.3440  -18.8523   21.7192 C.ar    1  UNL1       -0.0226
      7 C          -3.3375  -19.6974   20.9963 C.ar    1  UNL1       -0.0045
      8 C          -3.7932  -20.8585   20.1632 C.ar    1  UNL1       -0.0003
      9 C          -5.2554  -21.1745   20.0529 C.ar    1  UNL1       -0.0003
     10 C          -6.2619  -20.3293   20.7758 C.ar    1  UNL1       -0.0027
     11 C          -5.8062  -19.1682   21.6089 C.ar    1  UNL1       -0.0040
     12 C          -6.8128  -18.3230   22.3319 C.3     1  UNL1        0.1202
     13 C          -8.2750  -18.6390   22.2216 C.ar    1  UNL1       -0.0001
     14 C          -9.1056  -17.9842   21.1579 C.ar    1  UNL1       -0.0023
     15 C         -10.5678  -18.3002   21.0476 C.ar    1  UNL1       -0.0003
     16 C         -11.1994  -19.2709   22.0010 C.ar    1  UNL1       -0.0000
     17 C         -10.3687  -19.9256   23.0647 C.ar    1  UNL1       -0.0003
     18 C          -8.9065  -19.6096   23.1750 C.ar    1  UNL1       -0.0023
     19 C          -6.9080  -15.1556   24.7211 C.3     1  UNL1        0.1552
     20 N          -5.9804  -15.3810   25.8781 N.3     1  UNL1       -0.2878
     21 H          -5.4344  -16.2144   25.6597 H       1  UNL1        0.1238
     22 C          -6.5360  -15.5766   27.2577 C.3     1  UNL1        0.0985
     23 C          -8.7316  -16.9654   27.2695 C.3     1  UNL1        0.0332
     24 C          -8.0194  -15.6597   27.4641 C.3     1  UNL1        0.1263
     25 O          -8.7905  -14.4372   27.8650 O.3     1  UNL1       -0.3830
     26 H          -8.1839  -13.6848   27.9472 H       1  UNL1        0.2104
@<TRIPOS>BOND
     1    24    23    1
     2    24    25    1
     3    24    22    1
     4    22    20    1
     5    20    19    1
     6    19     1    1
     7     1     2    2
     8     1     3   am
     9     3     4    1
    10     4     5    1
    11     5     6    1
    12     6     7   ar
    13     7     8   ar
    14     8     9   ar
    15     9    10   ar
    16    10    11   ar
    17    11    12    1
    18    12    13    1
    19    13    14   ar
    20    14    15   ar
    21    15    16   ar
    22    16    17   ar
    23    17    18   ar
    24    12     3    1
    25    18    13   ar
    26    11     6   ar
    27    25    26    1
    28    20    21    1
@<TRIPOS>MOLECULE
*****
 26 28 0 0 0
SMALL
GASTEIGER

@<TRIPOS>ATOM
      1 C         -10.4538  -17.2904   21.5070 C.2     1  UNL1        0.2422
      2 O         -10.4626  -16.3905   22.7071 O.2     1  UNL1       -0.2733
      3 N          -9.2155  -18.0611   21.1566 N.am    1  UNL1       -0.2722
      4 C          -9.2066  -18.9609   19.9566 C.3     1  UNL1        0.0987
      5 C          -7.9684  -19.7316   19.6062 C.3     1  UNL1        0.0476
      6 C          -6.7390  -19.6025   20.4558 C.ar    1  UNL1       -0.0226
      7 C          -5.5008  -20.3732   20.1054 C.ar    1  UNL1       -0.0045
      8 C          -4.2714  -20.2440   20.9551 C.ar    1  UNL1       -0.0003
      9 C          -4.2803  -19.3441   22.1551 C.ar    1  UNL1       -0.0003
     10 C          -5.5185  -18.5734   22.5055 C.ar    1  UNL1       -0.0027
     11 C          -6.7478  -18.7026   21.6559 C.ar    1  UNL1       -0.0040
     12 C          -7.9861  -17.9319   22.0063 C.3     1  UNL1        0.1202
     13 C          -7.9950  -17.0320   23.2064 C.ar    1  UNL1       -0.0001
     14 C          -7.4278  -15.6467   23.1092 C.ar    1  UNL1       -0.0023
     15 C          -7.4367  -14.7468   24.3093 C.ar    1  UNL1       -0.0003
     16 C          -8.0127  -15.2323   25.6065 C.ar    1  UNL1       -0.0000
     17 C          -8.5798  -16.6175   25.7036 C.ar    1  UNL1       -0.0003
     18 C          -8.5709  -17.5174   24.5035 C.ar    1  UNL1       -0.0023
     19 C         -11.6831  -17.4195   20.6574 C.3     1  UNL1        0.1552
     20 N         -12.9783  -17.8578   21.2741 N.3     1  UNL1       -0.2878
     21 H         -13.7148  -17.6277   20.6070 H       1  UNL1        0.1238
     22 C         -13.4048  -17.2997   22.5995 C.3     1  UNL1        0.0985
     23 C         -14.3976  -18.3406   24.7629 C.3     1  UNL1        0.0332
     24 C         -13.2314  -18.1141   23.8471 C.3     1  UNL1        0.1263
     25 O         -11.8920  -18.7022   24.1788 O.3     1  UNL1       -0.3830
     26 H         -11.2538  -18.4625   23.4888 H       1  UNL1        0.2104
@<TRIPOS>BOND
     1    24    23    1
     2    24    25    1
     3    24    22    1
     4    22    20    1
     5    20    19    1
     6    19     1    1
     7     1     2    2
     8     1     3   am
     9     3     4    1
    10     4     5    1
    11     5     6    1
    12     6     7   ar
    13     7     8   ar
    14     8     9   ar
    15     9    10   ar
    16    10    11   ar
    17    11    12    1
    18    12    13    1
    19    13    14   ar
    20    14    15   ar
    21    15    16   ar
    22    16    17   ar
    23    17    18   ar
    24    12     3    1
    25    18    13   ar
    26    11     6   ar
    27    25    26    1
    28    20    21    1
@<TRIPOS>MOLECULE
*****
 26 28 0 0 0
SMALL
GASTEIGER

@<TRIPOS>ATOM
      1 C          -6.3531  -18.4921   21.9537 C.2     1  UNL1        0.2422
      2 O          -5.7949  -17.6709   23.0781 O.2     1  UNL1       -0.2733
      3 N          -7.8219  -18.4509   21.6522 N.am    1  UNL1       -0.2722
      4 C          -8.3800  -19.2721   20.5278 C.3     1  UNL1        0.0987
      5 C          -9.8488  -19.2309   20.2262 C.3     1  UNL1        0.0476
      6 C         -10.7595  -18.3684   21.0490 C.ar    1  UNL1       -0.0226
      7 C         -12.2283  -18.3272   20.7474 C.ar    1  UNL1       -0.0045
      8 C         -13.1389  -17.4647   21.5701 C.ar    1  UNL1       -0.0003
      9 C         -12.5808  -16.6435   22.6945 C.ar    1  UNL1       -0.0003
     10 C         -11.1120  -16.6848   22.9961 C.ar    1  UNL1       -0.0027
     11 C         -10.2014  -17.5472   22.1733 C.ar    1  UNL1       -0.0040
     12 C          -8.7325  -17.5885   22.4749 C.3     1  UNL1        0.1202
     13 C          -8.1744  -16.7672   23.5992 C.ar    1  UNL1       -0.0001
     14 C          -7.3540  -15.5472   23.3015 C.ar    1  UNL1       -0.0023
     15 C          -6.7959  -14.7260   24.4258 C.ar    1  UNL1       -0.0003
     16 C          -7.0581  -15.1248   25.8479 C.ar    1  UNL1       -0.0000
     17 C          -7.8785  -16.3448   26.1456 C.ar    1  UNL1       -0.0003
     18 C          -8.4366  -17.1660   25.0212 C.ar    1  UNL1       -0.0023
     19 C          -5.4424  -19.3546   21.1310 C.3     1  UNL1        0.1552
     20 N          -4.7596  -18.7853   19.9229 N.3     1  UNL1       -0.2878
     21 H          -5.1502  -19.2636   19.1111 H       1  UNL1        0.1238
     22 C          -3.2670  -18.8670   19.7968 C.3     1  UNL1        0.0985
     23 C          -2.1695  -17.6730   21.8264 C.3     1  UNL1        0.0332
     24 C          -2.4121  -18.9196   21.0282 C.3     1  UNL1        0.1263
     25 O          -1.7998  -20.2186   21.4612 O.3     1  UNL1       -0.3830
     26 H          -2.0542  -20.9189   20.8401 H       1  UNL1        0.2104
@<TRIPOS>BOND
     1    24    23    1
     2    24    25    1
     3    24    22    1
     4    22    20    1
     5    20    19    1
     6    19     1    1
     7     1     2    2
     8     1     3   am
     9     3     4    1
    10     4     5    1
    11     5     6    1
    12     6     7   ar
    13     7     8   ar
    14     8     9   ar
    15     9    10   ar
    16    10    11   ar
    17    11    12    1
    18    12    13    1
    19    13    14   ar
    20    14    15   ar
    21    15    16   ar
    22    16    17   ar
    23    17    18   ar
    24    12     3    1
    25    18    13   ar
    26    11     6   ar
    27    25    26    1
    28    20    21    1
@<TRIPOS>MOLECULE
*****
 26 28 0 0 0
SMALL
GASTEIGER

@<TRIPOS>ATOM
      1 C         -14.4178   -6.6711   18.9724 C.2     1  UNL1        0.2422
      2 O         -13.0446   -7.0899   18.5378 O.2     1  UNL1       -0.2733
      3 N         -14.7692   -5.2147   19.0470 N.am    1  UNL1       -0.2722
      4 C         -16.1424   -4.7958   19.4816 C.3     1  UNL1        0.0987
      5 C         -16.4939   -3.3395   19.5562 C.3     1  UNL1        0.0476
      6 C         -15.4721   -2.3020   19.1962 C.ar    1  UNL1       -0.0226
      7 C         -15.8236   -0.8457   19.2709 C.ar    1  UNL1       -0.0045
      8 C         -14.8018    0.1918   18.9109 C.ar    1  UNL1       -0.0003
      9 C         -13.4286   -0.2270   18.4763 C.ar    1  UNL1       -0.0003
     10 C         -13.0771   -1.6833   18.4016 C.ar    1  UNL1       -0.0027
     11 C         -14.0989   -2.7208   18.7616 C.ar    1  UNL1       -0.0040
     12 C         -13.7475   -4.1772   18.6870 C.3     1  UNL1        0.1202
     13 C         -12.3743   -4.5960   18.2524 C.ar    1  UNL1       -0.0001
     14 C         -12.0878   -4.8355   16.7996 C.ar    1  UNL1       -0.0023
     15 C         -10.7146   -5.2543   16.3650 C.ar    1  UNL1       -0.0003
     16 C          -9.6278   -5.4337   17.3832 C.ar    1  UNL1       -0.0000
     17 C          -9.9143   -5.1943   18.8360 C.ar    1  UNL1       -0.0003
     18 C         -11.2875   -4.7755   19.2706 C.ar    1  UNL1       -0.0023
     19 C         -15.4395   -7.7085   19.3324 C.3     1  UNL1        0.1552
     20 N         -15.1042   -9.1654   19.2103 N.3     1  UNL1       -0.2878
     21 H         -14.0941   -9.2253   19.0820 H       1  UNL1        0.1238
     22 C         -15.7284   -9.9902   18.1239 C.3     1  UNL1        0.0985
     23 C         -18.3046  -10.2532   17.9160 C.3     1  UNL1        0.0332
     24 C         -16.9811  -10.7681   18.3986 C.3     1  UNL1        0.1263
     25 O         -16.9103  -12.0609   19.1560 O.3     1  UNL1       -0.3830
     26 H         -15.9881  -12.2470   19.3924 H       1  UNL1        0.2104
@<TRIPOS>BOND
     1    24    23    1
     2    24    25    1
     3    24    22    1
     4    22    20    1
     5    20    19    1
     6    19     1    1
     7     1     2    2
     8     1     3   am
     9     3     4    1
    10     4     5    1
    11     5     6    1
    12     6     7   ar
    13     7     8   ar
    14     8     9   ar
    15     9    10   ar
    16    10    11   ar
    17    11    12    1
    18    12    13    1
    19    13    14   ar
    20    14    15   ar
    21    15    16   ar
    22    16    17   ar
    23    17    18   ar
    24    12     3    1
    25    18    13   ar
    26    11     6   ar
    27    25    26    1
    28    20    21    1
@<TRIPOS>MOLECULE
*****
 26 28 0 0 0
SMALL
GASTEIGER

@<TRIPOS>ATOM
      1 C          -9.4349  -18.6859   21.6600 C.2     1  UNL1        0.2422
      2 O          -9.9600  -17.7008   22.6620 O.2     1  UNL1       -0.2733
      3 N          -7.9580  -18.9211   21.5425 N.am    1  UNL1       -0.2722
      4 C          -7.4329  -19.9062   20.5405 C.3     1  UNL1        0.0987
      5 C          -5.9562  -20.1415   20.4230 C.3     1  UNL1        0.0476
      6 C          -5.0045  -19.3917   21.3075 C.ar    1  UNL1       -0.0226
      7 C          -3.5278  -19.6270   21.1899 C.ar    1  UNL1       -0.0045
      8 C          -2.5761  -18.8773   22.0743 C.ar    1  UNL1       -0.0003
      9 C          -3.1013  -17.8922   23.0763 C.ar    1  UNL1       -0.0003
     10 C          -4.5780  -17.6569   23.1939 C.ar    1  UNL1       -0.0027
     11 C          -5.5296  -18.4067   22.3094 C.ar    1  UNL1       -0.0040
     12 C          -7.0064  -18.1714   22.4269 C.3     1  UNL1        0.1202
     13 C          -7.5315  -17.1863   23.4289 C.ar    1  UNL1       -0.0001
     14 C          -7.4140  -15.7142   23.1660 C.ar    1  UNL1       -0.0023
     15 C          -7.9391  -14.7291   24.1680 C.ar    1  UNL1       -0.0003
     16 C          -8.5818  -15.2163   25.4329 C.ar    1  UNL1       -0.0000
     17 C          -8.6992  -16.6883   25.6957 C.ar    1  UNL1       -0.0003
     18 C          -8.1741  -17.6734   24.6937 C.ar    1  UNL1       -0.0023
     19 C         -10.3865  -19.4356   20.7756 C.3     1  UNL1        0.1552
     20 N         -11.1317  -18.7129   19.6929 N.3     1  UNL1       -0.2878
     21 H         -10.8716  -19.1546   18.8111 H       1  UNL1        0.1238
     22 C         -10.9431  -17.2361   19.5098 C.3     1  UNL1        0.0985
     23 C         -12.6078  -16.3220   21.2826 C.3     1  UNL1        0.0332
     24 C         -12.0383  -16.2865   19.8954 C.3     1  UNL1        0.1263
     25 O         -12.5642  -15.3015   18.8938 O.3     1  UNL1       -0.3830
     26 H         -12.0915  -15.4109   18.0538 H       1  UNL1        0.2104
@<TRIPOS>BOND
     1    24    23    1
     2    24    25    1
     3    24    22    1
     4    22    20    1
     5    20    19    1
     6    19     1    1
     7     1     2    2
     8     1     3   am
     9     3     4    1
    10     4     5    1
    11     5     6    1
    12     6     7   ar
    13     7     8   ar
    14     8     9   ar
    15     9    10   ar
    16    10    11   ar
    17    11    12    1
    18    12    13    1
    19    13    14   ar
    20    14    15   ar
    21    15    16   ar
    22    16    17   ar
    23    17    18   ar
    24    12     3    1
    25    18    13   ar
    26    11     6   ar
    27    25    26    1
    28    20    21    1
@<TRIPOS>MOLECULE
*****
 26 28 0 0 0
SMALL
GASTEIGER

@<TRIPOS>ATOM
      1 C          -5.9120  -16.5899   23.4806 C.2     1  UNL1        0.2422
      2 O          -4.5643  -17.1514   23.1364 O.2     1  UNL1       -0.2733
      3 N          -7.1333  -17.0741   22.7567 N.am    1  UNL1       -0.2722
      4 C          -8.4810  -16.5126   23.1009 C.3     1  UNL1        0.0987
      5 C          -9.7023  -16.9967   22.3770 C.3     1  UNL1        0.0476
      6 C          -9.5760  -18.0424   21.3090 C.ar    1  UNL1       -0.0226
      7 C         -10.7973  -18.5265   20.5851 C.ar    1  UNL1       -0.0045
      8 C         -10.6709  -19.5721   19.5171 C.ar    1  UNL1       -0.0003
      9 C          -9.3232  -20.1336   19.1729 C.ar    1  UNL1       -0.0003
     10 C          -8.1019  -19.6495   19.8968 C.ar    1  UNL1       -0.0027
     11 C          -8.2283  -18.6039   20.9648 C.ar    1  UNL1       -0.0040
     12 C          -7.0069  -18.1197   21.6887 C.3     1  UNL1        0.1202
     13 C          -5.6592  -18.6812   21.3445 C.ar    1  UNL1       -0.0001
     14 C          -5.0095  -18.3257   20.0400 C.ar    1  UNL1       -0.0023
     15 C          -3.6618  -18.8872   19.6959 C.ar    1  UNL1       -0.0003
     16 C          -2.9638  -19.8041   20.6562 C.ar    1  UNL1       -0.0000
     17 C          -3.6135  -20.1595   21.9606 C.ar    1  UNL1       -0.0003
     18 C          -4.9612  -19.5980   22.3048 C.ar    1  UNL1       -0.0023
     19 C          -6.0384  -15.5443   24.5486 C.3     1  UNL1        0.1552
     20 N          -5.6941  -15.8785   25.9698 N.3     1  UNL1       -0.2878
     21 H          -5.8438  -16.8813   26.0810 H       1  UNL1        0.1238
     22 C          -6.4209  -15.2047   27.0959 C.3     1  UNL1        0.0985
     23 C          -8.4618  -16.8072   26.9681 C.3     1  UNL1        0.0332
     24 C          -7.8827  -15.4659   27.3078 C.3     1  UNL1        0.1263
     25 O          -8.7653  -14.3858   27.8595 O.3     1  UNL1       -0.3830
     26 H          -8.2372  -13.5889   28.0234 H       1  UNL1        0.2104
@<TRIPOS>BOND
     1    24    23    1
     2    24    25    1
     3    24    22    1
     4    22    20    1
     5    20    19    1
     6    19     1    1
     7     1     2    2
     8     1     3   am
     9     3     4    1
    10     4     5    1
    11     5     6    1
    12     6     7   ar
    13     7     8   ar
    14     8     9   ar
    15     9    10   ar
    16    10    11   ar
    17    11    12    1
    18    12    13    1
    19    13    14   ar
    20    14    15   ar
    21    15    16   ar
    22    16    17   ar
    23    17    18   ar
    24    12     3    1
    25    18    13   ar
    26    11     6   ar
    27    25    26    1
    28    20    21    1
@<TRIPOS>MOLECULE
*****
 26 28 0 0 0
SMALL
GASTEIGER

@<TRIPOS>ATOM
      1 C          -8.2251  -16.9240   22.8072 C.2     1  UNL1        0.2422
      2 O          -9.5725  -16.2668   22.7573 O.2     1  UNL1       -0.2733
      3 N          -7.9042  -18.0490   21.8683 N.am    1  UNL1       -0.2722
      4 C          -6.5568  -18.7063   21.9182 C.3     1  UNL1        0.0987
      5 C          -6.2359  -19.8313   20.9793 C.3     1  UNL1        0.0476
      6 C          -7.2623  -20.2990   19.9906 C.ar    1  UNL1       -0.0226
      7 C          -6.9414  -21.4239   19.0517 C.ar    1  UNL1       -0.0045
      8 C          -7.9679  -21.8916   18.0630 C.ar    1  UNL1       -0.0003
      9 C          -9.3153  -21.2343   18.0131 C.ar    1  UNL1       -0.0003
     10 C          -9.6362  -20.1094   18.9520 C.ar    1  UNL1       -0.0027
     11 C          -8.6098  -19.6417   19.9407 C.ar    1  UNL1       -0.0040
     12 C          -8.9307  -18.5167   20.8796 C.3     1  UNL1        0.1202
     13 C         -10.2781  -17.8595   20.8297 C.ar    1  UNL1       -0.0001
     14 C         -10.4987  -16.6671   19.9467 C.ar    1  UNL1       -0.0023
     15 C         -11.8461  -16.0098   19.8968 C.ar    1  UNL1       -0.0003
     16 C         -12.9729  -16.5449   20.7299 C.ar    1  UNL1       -0.0000
     17 C         -12.7523  -17.7372   21.6129 C.ar    1  UNL1       -0.0003
     18 C         -11.4049  -18.3945   21.6628 C.ar    1  UNL1       -0.0023
     19 C          -7.1987  -16.4564   23.7959 C.3     1  UNL1        0.1552
     20 N          -6.2885  -15.3156   23.4491 N.3     1  UNL1       -0.2878
     21 H          -6.2973  -15.2304   22.4327 H       1  UNL1        0.1238
     22 C          -4.8486  -15.3509   23.8682 C.3     1  UNL1        0.0985
     23 C          -3.7064  -17.6726   23.6341 C.3     1  UNL1        0.0332
     24 C          -3.8846  -16.2592   23.1643 C.3     1  UNL1        0.1263
     25 O          -3.0988  -15.7543   21.9906 O.3     1  UNL1       -0.3830
     26 H          -3.3315  -14.8282   21.8201 H       1  UNL1        0.2104
@<TRIPOS>BOND
     1    24    23    1
     2    24    25    1
     3    24    22    1
     4    22    20    1
     5    20    19    1
     6    19     1    1
     7     1     2    2
     8     1     3   am
     9     3     4    1
    10     4     5    1
    11     5     6    1
    12     6     7   ar
    13     7     8   ar
    14     8     9   ar
    15     9    10   ar
    16    10    11   ar
    17    11    12    1
    18    12    13    1
    19    13    14   ar
    20    14    15   ar
    21    15    16   ar
    22    16    17   ar
    23    17    18   ar
    24    12     3    1
    25    18    13   ar
    26    11     6   ar
    27    25    26    1
    28    20    21    1
@<TRIPOS>MOLECULE
*****
 26 28 0 0 0
SMALL
GASTEIGER

@<TRIPOS>ATOM
      1 C         -16.3252   -5.7495   18.3952 C.2     1  UNL1        0.2422
      2 O         -16.8181   -4.3345   18.4646 O.2     1  UNL1       -0.2733
      3 N         -14.8557   -6.0371   18.4848 N.am    1  UNL1       -0.2722
      4 C         -14.3628   -7.4521   18.4154 C.3     1  UNL1        0.0987
      5 C         -12.8934   -7.7397   18.5049 C.3     1  UNL1        0.0476
      6 C         -11.9168   -6.6122   18.6639 C.ar    1  UNL1       -0.0226
      7 C         -10.4474   -6.8998   18.7535 C.ar    1  UNL1       -0.0045
      8 C          -9.4709   -5.7724   18.9125 C.ar    1  UNL1       -0.0003
      9 C          -9.9638   -4.3574   18.9819 C.ar    1  UNL1       -0.0003
     10 C         -11.4332   -4.0698   18.8923 C.ar    1  UNL1       -0.0027
     11 C         -12.4097   -5.1972   18.7333 C.ar    1  UNL1       -0.0040
     12 C         -13.8792   -4.9097   18.6438 C.3     1  UNL1        0.1202
     13 C         -14.3721   -3.4947   18.7132 C.ar    1  UNL1       -0.0001
     14 C         -14.5038   -2.6839   17.4580 C.ar    1  UNL1       -0.0023
     15 C         -14.9967   -1.2689   17.5274 C.ar    1  UNL1       -0.0003
     16 C         -15.3579   -0.6647   18.8520 C.ar    1  UNL1       -0.0000
     17 C         -15.2262   -1.4754   20.1071 C.ar    1  UNL1       -0.0003
     18 C         -14.7333   -2.8904   20.0377 C.ar    1  UNL1       -0.0023
     19 C         -17.3017   -6.8769   18.2362 C.3     1  UNL1        0.1552
     20 N         -18.1132   -7.3374   19.4106 N.3     1  UNL1       -0.2878
     21 H         -17.6743   -6.9453   20.2437 H       1  UNL1        0.1238
     22 C         -18.2961   -8.8040   19.6671 C.3     1  UNL1        0.0985
     23 C         -17.0903  -10.8462   18.6063 C.3     1  UNL1        0.0332
     24 C         -17.1167   -9.7288   19.6067 C.3     1  UNL1        0.1263
     25 O         -15.9637   -9.5362   20.5466 O.3     1  UNL1       -0.3830
     26 H         -16.1396   -8.7758   21.1226 H       1  UNL1        0.2104
@<TRIPOS>BOND
     1    24    23    1
     2    24    25    1
     3    24    22    1
     4    22    20    1
     5    20    19    1
     6    19     1    1
     7     1     2    2
     8     1     3   am
     9     3     4    1
    10     4     5    1
    11     5     6    1
    12     6     7   ar
    13     7     8   ar
    14     8     9   ar
    15     9    10   ar
    16    10    11   ar
    17    11    12    1
    18    12    13    1
    19    13    14   ar
    20    14    15   ar
    21    15    16   ar
    22    16    17   ar
    23    17    18   ar
    24    12     3    1
    25    18    13   ar
    26    11     6   ar
    27    25    26    1
    28    20    21    1
