@<TRIPOS>MOLECULE
*****
 16 18 0 0 0
SMALL
GASTEIGER

@<TRIPOS>ATOM
      1 C          -3.1947  -19.6513   20.9261 C.2     1  UNL1        0.1223
      2 C          -3.9606  -20.6885   20.1596 C.2     1  UNL1        0.0343
      3 C          -5.4570  -20.7365   20.2520 C.2     1  UNL1        0.0232
      4 C          -6.1875  -19.7473   21.1109 C.2     1  UNL1        0.0975
      5 N          -7.6469  -19.5510   21.3965 N.2     1  UNL1       -0.2200
      6 C          -7.7830  -18.3924   22.3395 C.2     1  UNL1        0.1898
      7 N          -6.4077  -17.8727   22.6368 N.2     1  UNL1       -0.2236
      8 C          -5.4216  -18.7101   21.8775 C.2     1  UNL1        0.0863
      9 C          -3.9252  -18.6621   21.7851 C.3     1  UNL1        0.1112
     10 C          -1.0304  -18.5215   20.0379 C.3     1  UNL1        0.2520
     11 O          -1.6983  -19.6033   20.8337 O.2     1  UNL1       -0.4753
     12 S          -9.0687  -17.8490   22.8888 S.3     1  UNL1       -0.0757
     13 C         -10.2701  -18.7395   23.0057 C.3     1  UNL1        0.0651
     14 C         -11.6336  -18.2061   22.6797 C.3     1  UNL1        0.0112
     15 C         -12.9852  -17.7343   23.1276 C.3     1  UNL1        0.0009
     16 C         -12.6437  -17.7541   21.6671 C.3     1  UNL1        0.0009
@<TRIPOS>BOND
     1    10    11    1
     2    11     1    1
     3     1     2    2
     4     2     3    1
     5     3     4    2
     6     4     5    1
     7     5     6    2
     8     6    12    1
     9    12    13    1
    10    13    14    1
    11    14    15    1
    12    15    16    1
    13     6     7    1
    14     7     8    2
    15     8     9    1
    16     9     1    1
    17     8     4    1
    18    16    14    1
@<TRIPOS>MOLECULE
*****
 16 18 0 0 0
SMALL
GASTEIGER

@<TRIPOS>ATOM
      1 C          -5.5283  -19.3464   22.0428 C.2     1  UNL1        0.1223
      2 C          -5.8073  -20.2623   20.8882 C.2     1  UNL1        0.0343
      3 C          -7.1003  -20.1489   20.1363 C.2     1  UNL1        0.0232
      4 C          -8.1143  -19.1195   20.5391 C.2     1  UNL1        0.0975
      5 N          -9.4672  -18.7750   19.9907 N.2     1  UNL1       -0.2200
      6 C         -10.0243  -17.6461   20.8064 C.2     1  UNL1        0.1898
      7 N          -9.0157  -17.2929   21.8589 N.2     1  UNL1       -0.2236
      8 C          -7.8352  -18.2036   21.6937 C.2     1  UNL1        0.0863
      9 C          -6.5422  -18.3170   22.4456 C.3     1  UNL1        0.1112
     10 C          -2.9303  -19.3449   22.0640 C.3     1  UNL1        0.2520
     11 O          -4.2352  -19.4599   22.7946 O.2     1  UNL1       -0.4753
     12 S         -11.3563  -16.9863   20.6048 S.3     1  UNL1       -0.0757
     13 C         -12.5917  -17.5928   21.2015 C.3     1  UNL1        0.0651
     14 C         -12.6409  -17.9047   22.6678 C.3     1  UNL1        0.0112
     15 C         -13.4191  -18.0286   23.9442 C.3     1  UNL1        0.0009
     16 C         -11.9480  -18.3212   23.9313 C.3     1  UNL1        0.0009
@<TRIPOS>BOND
     1    10    11    1
     2    11     1    1
     3     1     2    2
     4     2     3    1
     5     3     4    2
     6     4     5    1
     7     5     6    2
     8     6    12    1
     9    12    13    1
    10    13    14    1
    11    14    15    1
    12    15    16    1
    13     6     7    1
    14     7     8    2
    15     8     9    1
    16     9     1    1
    17     8     4    1
    18    16    14    1
@<TRIPOS>MOLECULE
*****
 16 18 0 0 0
SMALL
GASTEIGER

@<TRIPOS>ATOM
      1 C         -12.5242  -17.9768   22.8531 C.2     1  UNL1        0.1223
      2 C         -12.3657  -17.3626   21.4938 C.2     1  UNL1        0.0343
      3 C         -11.0820  -17.5361   20.7375 C.2     1  UNL1        0.0232
      4 C          -9.9569  -18.3238   21.3403 C.2     1  UNL1        0.0975
      5 N          -8.5852  -18.6618   20.8361 N.2     1  UNL1       -0.2200
      6 C          -7.8960  -19.4849   21.8836 C.2     1  UNL1        0.1898
      7 N          -8.8417  -19.6557   23.0354 N.2     1  UNL1       -0.2236
      8 C         -10.1154  -18.9380   22.6996 C.2     1  UNL1        0.0863
      9 C         -11.3991  -18.7645   23.4559 C.3     1  UNL1        0.1112
     10 C         -13.9668  -18.4185   24.9682 C.3     1  UNL1        0.2520
     11 O         -13.8079  -17.8033   23.6094 O.2     1  UNL1       -0.4753
     12 S          -6.5052  -20.0399   21.7950 S.3     1  UNL1       -0.0757
     13 C          -5.3240  -19.1418   22.0144 C.3     1  UNL1        0.0651
     14 C          -4.0584  -19.3648   21.2408 C.3     1  UNL1        0.0112
     15 C          -2.6068  -19.7410   21.2053 C.3     1  UNL1        0.0009
     16 C          -3.3178  -19.3746   19.9364 C.3     1  UNL1        0.0009
@<TRIPOS>BOND
     1    10    11    1
     2    11     1    1
     3     1     2    2
     4     2     3    1
     5     3     4    2
     6     4     5    1
     7     5     6    2
     8     6    12    1
     9    12    13    1
    10    13    14    1
    11    14    15    1
    12    15    16    1
    13     6     7    1
    14     7     8    2
    15     8     9    1
    16     9     1    1
    17     8     4    1
    18    16    14    1
@<TRIPOS>MOLECULE
*****
 16 18 0 0 0
SMALL
GASTEIGER

@<TRIPOS>ATOM
      1 C         -10.1411  -18.3579   20.6431 C.2     1  UNL1        0.1223
      2 C          -9.8238  -19.2725   19.4973 C.2     1  UNL1        0.0343
      3 C          -8.4278  -19.7902   19.3153 C.2     1  UNL1        0.0232
      4 C          -7.3491  -19.3934   20.2790 C.2     1  UNL1        0.0975
      5 N          -5.8922  -19.7424   20.3542 N.2     1  UNL1       -0.2200
      6 C          -5.3090  -19.0435   21.5464 C.2     1  UNL1        0.1898
      7 N          -6.4055  -18.2626   22.2082 N.2     1  UNL1       -0.2236
      8 C          -7.6664  -18.4788   21.4248 C.2     1  UNL1        0.0863
      9 C          -9.0624  -17.9611   21.6069 C.3     1  UNL1        0.1112
     10 C         -11.8560  -16.4117   20.4970 C.3     1  UNL1        0.2520
     11 O         -11.5371  -17.8402   20.8252 O.2     1  UNL1       -0.4753
     12 S          -3.8802  -19.1133   21.9977 S.3     1  UNL1       -0.0757
     13 C          -2.8369  -19.7035   21.0960 C.3     1  UNL1        0.0651
     14 C          -2.0660  -18.8190   20.1615 C.3     1  UNL1        0.0112
     15 C          -1.9866  -18.0313   18.8874 C.3     1  UNL1        0.0009
     16 C          -0.8101  -18.0748   19.8168 C.3     1  UNL1        0.0009
@<TRIPOS>BOND
     1    10    11    1
     2    11     1    1
     3     1     2    2
     4     2     3    1
     5     3     4    2
     6     4     5    1
     7     5     6    2
     8     6    12    1
     9    12    13    1
    10    13    14    1
    11    14    15    1
    12    15    16    1
    13     6     7    1
    14     7     8    2
    15     8     9    1
    16     9     1    1
    17     8     4    1
    18    16    14    1
@<TRIPOS>MOLECULE
*****
 16 18 0 0 0
SMALL
GASTEIGER

@<TRIPOS>ATOM
      1 C          -3.4956  -18.9935   20.4567 C.2     1  UNL1        0.1223
      2 C          -3.6046  -18.9591   21.9523 C.2     1  UNL1        0.0343
      3 C          -4.9545  -18.9656   22.6063 C.2     1  UNL1        0.0232
      4 C          -6.1954  -19.0065   21.7646 C.2     1  UNL1        0.0975
      5 N          -7.6517  -19.0219   22.1237 N.2     1  UNL1       -0.2200
      6 C          -8.4428  -19.0658   20.8500 C.2     1  UNL1        0.1898
      7 N          -7.4754  -19.0776   19.7037 N.2     1  UNL1       -0.2236
      8 C          -6.0864  -19.0409   20.2690 C.2     1  UNL1        0.0863
      9 C          -4.7365  -19.0344   19.6150 C.3     1  UNL1        0.1112
     10 C          -1.7426  -17.8386   18.9260 C.3     1  UNL1        0.2520
     11 O          -2.1457  -18.9870   19.8027 O.2     1  UNL1       -0.4753
     12 S          -9.9387  -19.0932   20.7416 S.3     1  UNL1       -0.0757
     13 C         -10.7481  -19.8774   21.7316 C.3     1  UNL1        0.0651
     14 C         -11.2858  -19.2059   22.9603 C.3     1  UNL1        0.0112
     15 C         -11.2392  -18.9786   24.4423 C.3     1  UNL1        0.0009
     16 C         -12.2637  -18.2700   23.6067 C.3     1  UNL1        0.0009
@<TRIPOS>BOND
     1    10    11    1
     2    11     1    1
     3     1     2    2
     4     2     3    1
     5     3     4    2
     6     4     5    1
     7     5     6    2
     8     6    12    1
     9    12    13    1
    10    13    14    1
    11    14    15    1
    12    15    16    1
    13     6     7    1
    14     7     8    2
    15     8     9    1
    16     9     1    1
    17     8     4    1
    18    16    14    1
@<TRIPOS>MOLECULE
*****
 16 18 0 0 0
SMALL
GASTEIGER

@<TRIPOS>ATOM
      1 C         -10.5995  -18.4564   23.3834 C.2     1  UNL1        0.1223
      2 C         -10.1318  -17.0366   23.5066 C.2     1  UNL1        0.0343
      3 C          -8.7171  -16.6800   23.1581 C.2     1  UNL1        0.0232
      4 C          -7.7701  -17.7433   22.6863 C.2     1  UNL1        0.0975
      5 N          -6.3288  -17.6926   22.2740 N.2     1  UNL1       -0.2200
      6 C          -5.9057  -19.0811   21.8959 C.2     1  UNL1        0.1898
      7 N          -7.0855  -19.9900   22.0746 N.2     1  UNL1       -0.2236
      8 C          -8.2378  -19.1631   22.5631 C.2     1  UNL1        0.0863
      9 C          -9.6525  -19.5197   22.9117 C.3     1  UNL1        0.1112
     10 C         -13.1428  -17.9374   23.2746 C.3     1  UNL1        0.2520
     11 O         -12.0142  -18.8130   23.7320 O.2     1  UNL1       -0.4753
     12 S          -4.5421  -19.4891   21.4223 S.3     1  UNL1       -0.0757
     13 C          -4.1757  -19.3422   19.9751 C.3     1  UNL1        0.0651
     14 C          -2.9440  -18.5793   19.5870 C.3     1  UNL1        0.0112
     15 C          -2.2901  -17.4787   18.8052 C.3     1  UNL1        0.0009
     16 C          -1.4645  -18.3582   19.6966 C.3     1  UNL1        0.0009
@<TRIPOS>BOND
     1    10    11    1
     2    11     1    1
     3     1     2    2
     4     2     3    1
     5     3     4    2
     6     4     5    1
     7     5     6    2
     8     6    12    1
     9    12    13    1
    10    13    14    1
    11    14    15    1
    12    15    16    1
    13     6     7    1
    14     7     8    2
    15     8     9    1
    16     9     1    1
    17     8     4    1
    18    16    14    1
@<TRIPOS>MOLECULE
*****
 16 18 0 0 0
SMALL
GASTEIGER

@<TRIPOS>ATOM
      1 C          -8.0047  -15.6842   25.6658 C.2     1  UNL1        0.1223
      2 C          -6.8926  -15.1683   24.8016 C.2     1  UNL1        0.0343
      3 C          -6.7574  -15.6486   23.3871 C.2     1  UNL1        0.0232
      4 C          -7.7344  -16.6449   22.8367 C.2     1  UNL1        0.0975
      5 N          -7.8529  -17.2963   21.4907 N.2     1  UNL1       -0.2200
      6 C          -9.0384  -18.2148   21.5231 C.2     1  UNL1        0.1898
      7 N          -9.6525  -18.1311   22.8890 N.2     1  UNL1       -0.2236
      8 C          -8.8465  -17.1608   23.7009 C.2     1  UNL1        0.0863
      9 C          -8.9817  -16.6805   25.1155 C.3     1  UNL1        0.1112
     10 C          -6.9138  -14.9176   27.8956 C.3     1  UNL1        0.2520
     11 O          -8.1399  -15.2039   27.0804 O.2     1  UNL1       -0.4753
     12 S          -9.5244  -19.0673   20.3885 S.3     1  UNL1       -0.0757
     13 C         -10.7525  -18.6699   19.6244 C.3     1  UNL1        0.0651
     14 C         -11.4141  -17.3524   19.9006 C.3     1  UNL1        0.0112
     15 C         -12.3384  -16.5116   20.7305 C.3     1  UNL1        0.0009
     16 C         -11.6357  -15.9111   19.5492 C.3     1  UNL1        0.0009
@<TRIPOS>BOND
     1    10    11    1
     2    11     1    1
     3     1     2    2
     4     2     3    1
     5     3     4    2
     6     4     5    1
     7     5     6    2
     8     6    12    1
     9    12    13    1
    10    13    14    1
    11    14    15    1
    12    15    16    1
    13     6     7    1
    14     7     8    2
    15     8     9    1
    16     9     1    1
    17     8     4    1
    18    16    14    1
@<TRIPOS>MOLECULE
*****
 16 18 0 0 0
SMALL
GASTEIGER

@<TRIPOS>ATOM
      1 C          -8.7556  -17.2676   23.5672 C.2     1  UNL1        0.1223
      2 C          -9.4772  -18.5520   23.2851 C.2     1  UNL1        0.0343
      3 C          -8.7937  -19.6428   22.5151 C.2     1  UNL1        0.0232
      4 C          -7.3886  -19.4493   22.0272 C.2     1  UNL1        0.0975
      5 N          -6.4647  -20.3388   21.2493 N.2     1  UNL1       -0.2200
      6 C          -5.1721  -19.6042   21.0506 C.2     1  UNL1        0.1898
      7 N          -5.2970  -18.2606   21.7057 N.2     1  UNL1       -0.2236
      8 C          -6.6670  -18.1649   22.3093 C.2     1  UNL1        0.0863
      9 C          -7.3505  -17.0741   23.0793 C.3     1  UNL1        0.1112
     10 C          -8.6756  -15.3893   25.3604 C.3     1  UNL1        0.2520
     11 O          -9.4391  -16.1768   24.3372 O.2     1  UNL1       -0.4753
     12 S          -3.9661  -20.1223   20.3243 S.3     1  UNL1       -0.0757
     13 C          -3.2895  -19.2706   19.2914 C.3     1  UNL1        0.0651
     14 C          -2.1187  -18.4149   19.6747 C.3     1  UNL1        0.0112
     15 C          -1.5736  -17.1359   20.2377 C.3     1  UNL1        0.0009
     16 C          -0.6360  -18.2118   19.7758 C.3     1  UNL1        0.0009
@<TRIPOS>BOND
     1    10    11    1
     2    11     1    1
     3     1     2    2
     4     2     3    1
     5     3     4    2
     6     4     5    1
     7     5     6    2
     8     6    12    1
     9    12    13    1
    10    13    14    1
    11    14    15    1
    12    15    16    1
    13     6     7    1
    14     7     8    2
    15     8     9    1
    16     9     1    1
    17     8     4    1
    18    16    14    1
@<TRIPOS>MOLECULE
*****
 16 18 0 0 0
SMALL
GASTEIGER

@<TRIPOS>ATOM
      1 C          -7.1495  -15.3494   24.6395 C.2     1  UNL1        0.1223
      2 C          -8.0864  -15.9884   25.6212 C.2     1  UNL1        0.0343
      3 C          -9.2981  -16.7246   25.1315 C.2     1  UNL1        0.0232
      4 C          -9.5729  -16.8218   23.6602 C.2     1  UNL1        0.0975
      5 N         -10.6786  -17.4768   22.8867 N.2     1  UNL1       -0.2200
      6 C         -10.4250  -17.2427   21.4269 C.2     1  UNL1        0.1898
      7 N          -9.1626  -16.4429   21.2982 N.2     1  UNL1       -0.2236
      8 C          -8.6359  -16.1828   22.6785 C.2     1  UNL1        0.0863
      9 C          -7.4242  -15.4466   23.1681 C.3     1  UNL1        0.1112
     10 C          -4.9164  -15.3235   25.9672 C.3     1  UNL1        0.2520
     11 O          -5.9378  -14.6132   25.1292 O.2     1  UNL1       -0.4753
     12 S         -11.2833  -17.7239   20.2946 S.3     1  UNL1       -0.0757
     13 C         -11.1304  -19.1247   19.7806 C.3     1  UNL1        0.0651
     14 C          -9.7836  -19.6211   19.3453 C.3     1  UNL1        0.0112
     15 C          -8.2892  -19.6051   19.4744 C.3     1  UNL1        0.0009
     16 C          -8.9450  -20.4970   18.4623 C.3     1  UNL1        0.0009
@<TRIPOS>BOND
     1    10    11    1
     2    11     1    1
     3     1     2    2
     4     2     3    1
     5     3     4    2
     6     4     5    1
     7     5     6    2
     8     6    12    1
     9    12    13    1
    10    13    14    1
    11    14    15    1
    12    15    16    1
    13     6     7    1
    14     7     8    2
    15     8     9    1
    16     9     1    1
    17     8     4    1
    18    16    14    1
