@<TRIPOS>MOLECULE
*****
 25 28 0 0 0
SMALL
GASTEIGER

@<TRIPOS>ATOM
      1 C          -9.1728  -17.0257   22.2876 C.3     1  UNL1        0.0286
      2 C         -10.2247  -16.1854   21.6261 C.3     1  UNL1        0.0216
      3 C         -10.9192  -16.6857   20.3943 C.3     1  UNL1        0.0689
      4 N         -10.5618  -18.0263   19.8240 N.3     1  UNL1       -0.2973
      5 C          -9.5099  -18.8665   20.4855 C.3     1  UNL1        0.0726
      6 C          -8.8154  -18.3662   21.7173 C.3     1  UNL1        0.0635
      7 H         -10.2506  -17.8653   18.8660 H       1  UNL1        0.1232
      8 F          -6.3948  -15.0246   27.2148 F       1  UNL1       -0.2042
      9 C          -7.0892  -15.5248   25.9831 C.ar    1  UNL1        0.1401
     10 C          -6.4684  -15.3137   24.6340 C.ar    1  UNL1        0.0293
     11 C          -7.1629  -15.8140   23.4022 C.ar    1  UNL1       -0.0020
     12 C          -8.4783  -16.5254   23.5194 C.ar    1  UNL1       -0.0222
     13 C          -9.0992  -16.7365   24.8685 C.ar    1  UNL1       -0.0020
     14 C          -8.4047  -16.2362   26.1003 C.ar    1  UNL1        0.0293
     15 C          -7.7635  -19.2064   22.3788 C.3     1  UNL1        0.2070
     16 O          -6.7023  -19.8686   21.5509 O.3     1  UNL1       -0.4753
     17 C          -5.3384  -19.2527   21.4477 C.ar    1  UNL1        0.1418
     18 C          -4.7341  -18.5652   22.6360 C.ar    1  UNL1        0.0402
     19 C          -3.3703  -17.9494   22.5329 C.ar    1  UNL1        0.0433
     20 C          -2.6107  -18.0211   21.2414 C.ar    1  UNL1        0.1766
     21 C          -3.2150  -18.7086   20.0531 C.ar    1  UNL1        0.1794
     22 C          -4.5788  -19.3244   20.1562 C.ar    1  UNL1        0.0770
     23 O          -2.2358  -18.6223   18.9201 O.3     1  UNL1       -0.4345
     24 C          -1.0263  -17.8815   19.4082 C.3     1  UNL1        0.4294
     25 O          -1.2580  -17.5099   20.8429 O.3     1  UNL1       -0.4346
@<TRIPOS>BOND
     1     8     9    1
     2     9    10   ar
     3    10    11   ar
     4    11    12   ar
     5     1    12    1
     6     1     2    1
     7     2     3    1
     8     3     4    1
     9     4     5    1
    10     5     6    1
    11     6    15    1
    12    15    16    1
    13    16    17    1
    14    17    18   ar
    15    18    19   ar
    16    19    20   ar
    17    20    21   ar
    18    21    22   ar
    19    21    23    1
    20    23    24    1
    21    24    25    1
    22    12    13   ar
    23    13    14   ar
    24    14     9   ar
    25     6     1    1
    26    22    17   ar
    27    25    20    1
    28     4     7    1
@<TRIPOS>MOLECULE
*****
 25 28 0 0 0
SMALL
GASTEIGER

@<TRIPOS>ATOM
      1 C          -9.8919  -17.0226   22.9747 C.3     1  UNL1        0.0286
      2 C         -11.1243  -16.2059   22.7213 C.3     1  UNL1        0.0216
      3 C         -12.2547  -16.7823   21.9213 C.3     1  UNL1        0.0689
      4 N         -12.1527  -18.1755   21.3748 N.3     1  UNL1       -0.2973
      5 C         -10.9204  -18.9922   21.6282 C.3     1  UNL1        0.0726
      6 C          -9.7900  -18.4158   22.4282 C.3     1  UNL1        0.0635
      7 H         -12.2548  -18.1029   20.3625 H       1  UNL1        0.1232
      8 F          -5.3702  -14.7171   26.1743 F       1  UNL1       -0.2042
      9 C          -6.5006  -15.2934   25.3745 C.ar    1  UNL1        0.1401
     10 C          -7.7250  -15.8096   26.0704 C.ar    1  UNL1        0.0293
     11 C          -8.8555  -16.3860   25.2705 C.ar    1  UNL1       -0.0020
     12 C          -8.7614  -16.4462   23.7746 C.ar    1  UNL1       -0.0222
     13 C          -7.5370  -15.9300   23.0787 C.ar    1  UNL1       -0.0020
     14 C          -6.4066  -15.3536   23.8786 C.ar    1  UNL1        0.0293
     15 C          -8.5576  -19.2326   22.6815 C.3     1  UNL1        0.2070
     16 O          -7.9097  -19.9818   21.5551 O.3     1  UNL1       -0.4753
     17 C          -6.4229  -19.9161   21.3678 C.ar    1  UNL1        0.1418
     18 C          -5.7625  -20.7507   20.3109 C.ar    1  UNL1        0.0402
     19 C          -4.2757  -20.6850   20.1237 C.ar    1  UNL1        0.0433
     20 C          -3.4493  -19.7846   20.9933 C.ar    1  UNL1        0.1766
     21 C          -4.1097  -18.9500   22.0503 C.ar    1  UNL1        0.1794
     22 C          -5.5965  -19.0157   22.2376 C.ar    1  UNL1        0.0770
     23 O          -3.0436  -18.1615   22.7517 O.3     1  UNL1       -0.4345
     24 C          -1.7244  -18.5090   22.1281 C.3     1  UNL1        0.4294
     25 O          -1.9750  -19.5121   21.0414 O.3     1  UNL1       -0.4346
@<TRIPOS>BOND
     1     8     9    1
     2     9    10   ar
     3    10    11   ar
     4    11    12   ar
     5     1    12    1
     6     1     2    1
     7     2     3    1
     8     3     4    1
     9     4     5    1
    10     5     6    1
    11     6    15    1
    12    15    16    1
    13    16    17    1
    14    17    18   ar
    15    18    19   ar
    16    19    20   ar
    17    20    21   ar
    18    21    22   ar
    19    21    23    1
    20    23    24    1
    21    24    25    1
    22    12    13   ar
    23    13    14   ar
    24    14     9   ar
    25     6     1    1
    26    22    17   ar
    27    25    20    1
    28     4     7    1
@<TRIPOS>MOLECULE
*****
 25 28 0 0 0
SMALL
GASTEIGER

@<TRIPOS>ATOM
      1 C          -8.1588  -16.1488   25.1756 C.3     1  UNL1        0.0286
      2 C          -8.8596  -15.7769   26.4487 C.3     1  UNL1        0.0216
      3 C          -8.1038  -15.0915   27.5483 C.3     1  UNL1        0.0689
      4 N          -6.6472  -14.7780   27.3748 N.3     1  UNL1       -0.2973
      5 C          -5.9465  -15.1499   26.1018 C.3     1  UNL1        0.0726
      6 C          -6.7022  -15.8353   25.0022 C.3     1  UNL1        0.0635
      7 H          -6.1523  -15.2495   28.1319 H       1  UNL1        0.1232
      8 F         -11.1818  -18.8901   20.7773 F       1  UNL1       -0.2042
      9 C         -10.4261  -18.2048   21.8768 C.ar    1  UNL1        0.1401
     10 C         -10.1963  -18.9093   23.1810 C.ar    1  UNL1        0.0293
     11 C          -9.4405  -18.2239   24.2806 C.ar    1  UNL1       -0.0020
     12 C          -8.9146  -16.8341   24.0760 C.ar    1  UNL1       -0.0222
     13 C          -9.1444  -16.1296   22.7718 C.ar    1  UNL1       -0.0020
     14 C          -9.9002  -16.8149   21.6722 C.ar    1  UNL1        0.0293
     15 C          -6.0014  -16.2071   23.7292 C.3     1  UNL1        0.2070
     16 O          -4.5716  -15.8069   23.5157 O.3     1  UNL1       -0.4753
     17 C          -3.6495  -16.7026   22.7426 C.ar    1  UNL1        0.1418
     18 C          -3.8288  -18.1908   22.7976 C.ar    1  UNL1        0.0402
     19 C          -2.9067  -19.0864   22.0246 C.ar    1  UNL1        0.0433
     20 C          -1.8054  -18.4938   21.1964 C.ar    1  UNL1        0.1766
     21 C          -1.6261  -17.0056   21.1413 C.ar    1  UNL1        0.1794
     22 C          -2.5481  -16.1099   21.9144 C.ar    1  UNL1        0.0770
     23 O          -0.4596  -16.7121   20.2451 O.3     1  UNL1       -0.4345
     24 C           0.0819  -18.0189   19.7463 C.3     1  UNL1        0.4294
     25 O          -0.7498  -19.1201   20.3342 O.3     1  UNL1       -0.4346
@<TRIPOS>BOND
     1     8     9    1
     2     9    10   ar
     3    10    11   ar
     4    11    12   ar
     5     1    12    1
     6     1     2    1
     7     2     3    1
     8     3     4    1
     9     4     5    1
    10     5     6    1
    11     6    15    1
    12    15    16    1
    13    16    17    1
    14    17    18   ar
    15    18    19   ar
    16    19    20   ar
    17    20    21   ar
    18    21    22   ar
    19    21    23    1
    20    23    24    1
    21    24    25    1
    22    12    13   ar
    23    13    14   ar
    24    14     9   ar
    25     6     1    1
    26    22    17   ar
    27    25    20    1
    28     4     7    1
@<TRIPOS>MOLECULE
*****
 25 28 0 0 0
SMALL
GASTEIGER

@<TRIPOS>ATOM
      1 C          -8.4000  -16.3565   23.8929 C.3     1  UNL1        0.0286
      2 C          -8.3973  -15.3280   24.9848 C.3     1  UNL1        0.0216
      3 C          -7.0998  -14.8783   25.5885 C.3     1  UNL1        0.0689
      4 N          -5.8050  -15.4572   25.1002 N.3     1  UNL1       -0.2973
      5 C          -5.8077  -16.4856   24.0083 C.3     1  UNL1        0.0726
      6 C          -7.1052  -16.9353   23.4047 C.3     1  UNL1        0.0635
      7 H          -5.3511  -15.8855   25.9070 H       1  UNL1        0.1232
      8 F         -13.5898  -18.1550   21.4783 F       1  UNL1       -0.2042
      9 C         -12.2924  -17.7055   22.0820 C.ar    1  UNL1        0.1401
     10 C         -11.8180  -18.3049   23.3726 C.ar    1  UNL1        0.0293
     11 C         -10.5205  -17.8553   23.9762 C.ar    1  UNL1       -0.0020
     12 C          -9.6975  -16.8061   23.2893 C.ar    1  UNL1       -0.0222
     13 C         -10.1718  -16.2066   21.9986 C.ar    1  UNL1       -0.0020
     14 C         -11.4693  -16.6563   21.3950 C.ar    1  UNL1        0.0293
     15 C          -7.1078  -17.9638   22.3128 C.3     1  UNL1        0.2070
     16 O          -6.1027  -19.0771   22.3288 O.3     1  UNL1       -0.4753
     17 C          -4.8754  -18.9920   21.4705 C.ar    1  UNL1        0.1418
     18 C          -4.8072  -19.7557   20.1814 C.ar    1  UNL1        0.0402
     19 C          -3.5800  -19.6706   19.3231 C.ar    1  UNL1        0.0433
     20 C          -2.4209  -18.8216   19.7540 C.ar    1  UNL1        0.1766
     21 C          -2.4890  -18.0578   21.0432 C.ar    1  UNL1        0.1794
     22 C          -3.7162  -18.1429   21.9014 C.ar    1  UNL1        0.0770
     23 O          -1.1997  -17.3088   21.2070 O.3     1  UNL1       -0.4345
     24 C          -0.3348  -17.6098   20.0190 C.3     1  UNL1        0.4294
     25 O          -1.0895  -18.5447   19.1210 O.3     1  UNL1       -0.4346
@<TRIPOS>BOND
     1     8     9    1
     2     9    10   ar
     3    10    11   ar
     4    11    12   ar
     5     1    12    1
     6     1     2    1
     7     2     3    1
     8     3     4    1
     9     4     5    1
    10     5     6    1
    11     6    15    1
    12    15    16    1
    13    16    17    1
    14    17    18   ar
    15    18    19   ar
    16    19    20   ar
    17    20    21   ar
    18    21    22   ar
    19    21    23    1
    20    23    24    1
    21    24    25    1
    22    12    13   ar
    23    13    14   ar
    24    14     9   ar
    25     6     1    1
    26    22    17   ar
    27    25    20    1
    28     4     7    1
@<TRIPOS>MOLECULE
*****
 25 28 0 0 0
SMALL
GASTEIGER

@<TRIPOS>ATOM
      1 C          -4.8967  -19.1601   21.6209 C.3     1  UNL1        0.0286
      2 C          -3.9327  -19.9272   20.7652 C.3     1  UNL1        0.0216
      3 C          -2.4554  -19.7458   20.9520 C.3     1  UNL1        0.0689
      4 N          -1.9422  -18.7973   21.9945 N.3     1  UNL1       -0.2973
      5 C          -2.9062  -18.0302   22.8502 C.3     1  UNL1        0.0726
      6 C          -4.3834  -18.2116   22.6635 C.3     1  UNL1        0.0635
      7 H          -1.3674  -18.1088   21.5088 H       1  UNL1        0.1232
      8 F         -10.8056  -19.8857   20.8739 F       1  UNL1       -0.2042
      9 C          -9.3284  -19.7043   21.0606 C.ar    1  UNL1        0.1401
     10 C          -8.4767  -19.2544   19.9107 C.ar    1  UNL1        0.0293
     11 C          -6.9995  -19.0730   20.0975 C.ar    1  UNL1       -0.0020
     12 C          -6.3740  -19.3415   21.4341 C.ar    1  UNL1       -0.0222
     13 C          -7.2256  -19.7914   22.5841 C.ar    1  UNL1       -0.0020
     14 C          -8.7028  -19.9728   22.3973 C.ar    1  UNL1        0.0293
     15 C          -5.3474  -17.4445   23.5192 C.3     1  UNL1        0.2070
     16 O          -6.1690  -16.3418   22.9199 O.3     1  UNL1       -0.4753
     17 C          -7.6667  -16.4191   22.9537 C.ar    1  UNL1        0.1418
     18 C          -8.3700  -16.7910   24.2252 C.ar    1  UNL1        0.0402
     19 C          -9.8676  -16.8683   24.2590 C.ar    1  UNL1        0.0433
     20 C         -10.6619  -16.5737   23.0211 C.ar    1  UNL1        0.1766
     21 C          -9.9586  -16.2017   21.7495 C.ar    1  UNL1        0.1794
     22 C          -8.4610  -16.1244   21.7158 C.ar    1  UNL1        0.0770
     23 O         -10.9997  -15.9674   20.6954 O.3     1  UNL1       -0.4345
     24 C         -12.3464  -16.1946   21.3155 C.3     1  UNL1        0.4294
     25 O         -12.1377  -16.5693   22.7529 O.3     1  UNL1       -0.4346
@<TRIPOS>BOND
     1     8     9    1
     2     9    10   ar
     3    10    11   ar
     4    11    12   ar
     5     1    12    1
     6     1     2    1
     7     2     3    1
     8     3     4    1
     9     4     5    1
    10     5     6    1
    11     6    15    1
    12    15    16    1
    13    16    17    1
    14    17    18   ar
    15    18    19   ar
    16    19    20   ar
    17    20    21   ar
    18    21    22   ar
    19    21    23    1
    20    23    24    1
    21    24    25    1
    22    12    13   ar
    23    13    14   ar
    24    14     9   ar
    25     6     1    1
    26    22    17   ar
    27    25    20    1
    28     4     7    1
@<TRIPOS>MOLECULE
*****
 25 28 0 0 0
SMALL
GASTEIGER

@<TRIPOS>ATOM
      1 C         -10.7893   -5.6900   18.2755 C.3     1  UNL1        0.0286
      2 C          -9.6446   -6.1971   19.1018 C.3     1  UNL1        0.0216
      3 C          -9.2002   -7.6238   18.9723 C.3     1  UNL1        0.0689
      4 N          -9.9005   -8.5436   18.0165 N.3     1  UNL1       -0.2973
      5 C         -11.0451   -8.0366   17.1902 C.3     1  UNL1        0.0726
      6 C         -11.4895   -6.6098   17.3197 C.3     1  UNL1        0.0635
      7 H         -10.2581   -9.3241   18.5674 H       1  UNL1        0.1232
      8 F         -12.5669    0.0171   18.7935 F       1  UNL1       -0.2042
      9 C         -12.1224   -1.4096   18.6639 C.ar    1  UNL1        0.1401
     10 C         -11.0527   -1.7755   17.6781 C.ar    1  UNL1        0.0293
     11 C         -10.6083   -3.2023   17.5486 C.ar    1  UNL1       -0.0020
     12 C         -11.2337   -4.2632   18.4050 C.ar    1  UNL1       -0.0222
     13 C         -12.3034   -3.8974   19.3909 C.ar    1  UNL1       -0.0020
     14 C         -12.7478   -2.4706   19.5203 C.ar    1  UNL1        0.0293
     15 C         -12.6342   -6.1029   16.4934 C.3     1  UNL1        0.2070
     16 O         -13.9485   -5.7894   17.1448 O.3     1  UNL1       -0.4753
     17 C         -14.7176   -6.8728   17.8413 C.ar    1  UNL1        0.1418
     18 C         -15.6065   -6.5345   19.0011 C.ar    1  UNL1        0.0402
     19 C         -16.3756   -7.6177   19.6976 C.ar    1  UNL1        0.0433
     20 C         -16.2557   -9.0393   19.2342 C.ar    1  UNL1        0.1766
     21 C         -15.3668   -9.3776   18.0743 C.ar    1  UNL1        0.1794
     22 C         -14.5977   -8.2944   17.3778 C.ar    1  UNL1        0.0770
     23 O         -15.4486  -10.8575   17.8438 O.3     1  UNL1       -0.4345
     24 C         -16.3881  -11.4338   18.8612 C.3     1  UNL1        0.4294
     25 O         -16.8869  -10.3101   19.7206 O.3     1  UNL1       -0.4346
@<TRIPOS>BOND
     1     8     9    1
     2     9    10   ar
     3    10    11   ar
     4    11    12   ar
     5     1    12    1
     6     1     2    1
     7     2     3    1
     8     3     4    1
     9     4     5    1
    10     5     6    1
    11     6    15    1
    12    15    16    1
    13    16    17    1
    14    17    18   ar
    15    18    19   ar
    16    19    20   ar
    17    20    21   ar
    18    21    22   ar
    19    21    23    1
    20    23    24    1
    21    24    25    1
    22    12    13   ar
    23    13    14   ar
    24    14     9   ar
    25     6     1    1
    26    22    17   ar
    27    25    20    1
    28     4     7    1
@<TRIPOS>MOLECULE
*****
 25 28 0 0 0
SMALL
GASTEIGER

@<TRIPOS>ATOM
      1 C          -5.4525  -16.2104   24.3205 C.3     1  UNL1        0.0286
      2 C          -5.0942  -15.8750   25.7380 C.3     1  UNL1        0.0216
      3 C          -6.1173  -15.2564   26.6439 C.3     1  UNL1        0.0689
      4 N          -7.4986  -14.9732   26.1323 N.3     1  UNL1       -0.2973
      5 C          -7.8569  -15.3085   24.7149 C.3     1  UNL1        0.0726
      6 C          -6.8338  -15.9271   23.8090 C.3     1  UNL1        0.0635
      7 H          -7.6554  -13.9718   26.2466 H       1  UNL1        0.1232
      8 F          -1.3604  -18.6848   20.6968 F       1  UNL1       -0.2042
      9 C          -2.3833  -18.0662   21.6027 C.ar    1  UNL1        0.1401
     10 C          -2.3759  -16.5854   21.8418 C.ar    1  UNL1        0.0293
     11 C          -3.3990  -15.9668   22.7477 C.ar    1  UNL1       -0.0020
     12 C          -4.4294  -16.8290   23.4146 C.ar    1  UNL1       -0.0222
     13 C          -4.4369  -18.3098   23.1755 C.ar    1  UNL1       -0.0020
     14 C          -3.4139  -18.9284   22.2696 C.ar    1  UNL1        0.0293
     15 C          -7.1921  -16.2624   22.3915 C.3     1  UNL1        0.2070
     16 O          -8.0141  -17.4814   22.0940 O.3     1  UNL1       -0.4753
     17 C          -9.4847  -17.4849   22.3896 C.ar    1  UNL1        0.1418
     18 C         -10.4357  -16.7745   21.4726 C.ar    1  UNL1        0.0402
     19 C         -11.9062  -16.7779   21.7681 C.ar    1  UNL1        0.0433
     20 C         -12.4259  -17.4918   22.9807 C.ar    1  UNL1        0.1766
     21 C         -11.4749  -18.2022   23.8978 C.ar    1  UNL1        0.1794
     22 C         -10.0043  -18.1988   23.6022 C.ar    1  UNL1        0.0770
     23 O         -12.2738  -18.8156   25.0093 O.3     1  UNL1       -0.4345
     24 C         -13.7185  -18.4843   24.7792 C.3     1  UNL1        0.4294
     25 O         -13.8125  -17.6661   23.5255 O.3     1  UNL1       -0.4346
@<TRIPOS>BOND
     1     8     9    1
     2     9    10   ar
     3    10    11   ar
     4    11    12   ar
     5     1    12    1
     6     1     2    1
     7     2     3    1
     8     3     4    1
     9     4     5    1
    10     5     6    1
    11     6    15    1
    12    15    16    1
    13    16    17    1
    14    17    18   ar
    15    18    19   ar
    16    19    20   ar
    17    20    21   ar
    18    21    22   ar
    19    21    23    1
    20    23    24    1
    21    24    25    1
    22    12    13   ar
    23    13    14   ar
    24    14     9   ar
    25     6     1    1
    26    22    17   ar
    27    25    20    1
    28     4     7    1
@<TRIPOS>MOLECULE
*****
 25 28 0 0 0
SMALL
GASTEIGER

@<TRIPOS>ATOM
      1 C          -8.2386  -16.0883   25.4465 C.3     1  UNL1        0.0286
      2 C          -8.5742  -15.7564   26.8703 C.3     1  UNL1        0.0216
      3 C          -7.5510  -15.0993   27.7486 C.3     1  UNL1        0.0689
      4 N          -6.1921  -14.7742   27.2030 N.3     1  UNL1       -0.2973
      5 C          -5.8565  -15.1060   25.7792 C.3     1  UNL1        0.0726
      6 C          -6.8796  -15.7631   24.9010 C.3     1  UNL1        0.0635
      7 H          -5.5151  -15.2649   27.7872 H       1  UNL1        0.1232
      8 F         -12.3313  -18.7164   21.9335 F       1  UNL1       -0.2042
      9 C         -11.3082  -18.0595   22.8118 C.ar    1  UNL1        0.1401
     10 C         -10.5827  -18.8639   23.8493 C.ar    1  UNL1        0.0293
     11 C          -9.5595  -18.2068   24.7276 C.ar    1  UNL1       -0.0020
     12 C          -9.2618  -16.7454   24.5682 C.ar    1  UNL1       -0.0222
     13 C          -9.9872  -15.9408   23.5307 C.ar    1  UNL1       -0.0020
     14 C         -11.0104  -16.5979   22.6524 C.ar    1  UNL1        0.0293
     15 C          -6.5439  -16.0950   23.4772 C.3     1  UNL1        0.2070
     16 O          -5.8353  -17.3767   23.1529 O.3     1  UNL1       -0.4753
     17 C          -6.3691  -18.2778   22.0790 C.ar    1  UNL1        0.1418
     18 C          -5.5380  -19.4214   21.5778 C.ar    1  UNL1        0.0402
     19 C          -6.0717  -20.3225   20.5040 C.ar    1  UNL1        0.0433
     20 C          -7.4368  -20.0800   19.9314 C.ar    1  UNL1        0.1766
     21 C          -8.2680  -18.9364   20.4326 C.ar    1  UNL1        0.1794
     22 C          -7.7343  -18.0353   21.5064 C.ar    1  UNL1        0.0770
     23 O          -9.5675  -18.9446   19.6835 O.3     1  UNL1       -0.4345
     24 C          -9.5394  -20.0933   18.7193 C.3     1  UNL1        0.4294
     25 O          -8.2225  -20.7950   18.8725 O.3     1  UNL1       -0.4346
@<TRIPOS>BOND
     1     8     9    1
     2     9    10   ar
     3    10    11   ar
     4    11    12   ar
     5     1    12    1
     6     1     2    1
     7     2     3    1
     8     3     4    1
     9     4     5    1
    10     5     6    1
    11     6    15    1
    12    15    16    1
    13    16    17    1
    14    17    18   ar
    15    18    19   ar
    16    19    20   ar
    17    20    21   ar
    18    21    22   ar
    19    21    23    1
    20    23    24    1
    21    24    25    1
    22    12    13   ar
    23    13    14   ar
    24    14     9   ar
    25     6     1    1
    26    22    17   ar
    27    25    20    1
    28     4     7    1
@<TRIPOS>MOLECULE
*****
 25 28 0 0 0
SMALL
GASTEIGER

@<TRIPOS>ATOM
      1 C          -3.7498  -17.7427   22.6600 C.3     1  UNL1        0.0286
      2 C          -2.3232  -17.4489   22.3011 C.3     1  UNL1        0.0216
      3 C          -1.6713  -18.1757   21.1624 C.3     1  UNL1        0.0689
      4 N          -2.4459  -19.1964   20.3825 N.3     1  UNL1       -0.2973
      5 C          -3.8724  -19.4902   20.7414 C.3     1  UNL1        0.0726
      6 C          -4.5243  -18.7634   21.8801 C.3     1  UNL1        0.0635
      7 H          -1.9355  -20.0761   20.4605 H       1  UNL1        0.1232
      8 F          -6.3575  -14.8355   27.2149 F       1  UNL1       -0.2042
      9 C          -5.7056  -15.5623   26.0762 C.ar    1  UNL1        0.1401
     10 C          -6.0577  -15.2095   24.6614 C.ar    1  UNL1        0.0293
     11 C          -5.4058  -15.9363   23.5227 C.ar    1  UNL1       -0.0020
     12 C          -4.4017  -17.0159   23.7987 C.ar    1  UNL1       -0.0222
     13 C          -4.0495  -17.3688   25.2135 C.ar    1  UNL1       -0.0020
     14 C          -4.7015  -16.6420   26.3522 C.ar    1  UNL1        0.0293
     15 C          -5.9508  -19.0573   22.2389 C.3     1  UNL1        0.2070
     16 O          -6.8542  -19.7191   21.2409 O.3     1  UNL1       -0.4753
     17 C          -8.2125  -19.1463   20.9632 C.ar    1  UNL1        0.1418
     18 C          -8.9984  -19.6210   19.7771 C.ar    1  UNL1        0.0402
     19 C         -10.3566  -19.0482   19.4994 C.ar    1  UNL1        0.0433
     20 C         -10.9289  -18.0007   20.4078 C.ar    1  UNL1        0.1766
     21 C         -10.1429  -17.5260   21.5939 C.ar    1  UNL1        0.1794
     22 C          -8.7847  -18.0988   21.8716 C.ar    1  UNL1        0.0770
     23 O         -10.9600  -16.4896   22.3068 O.3     1  UNL1       -0.4345
     24 C         -12.2510  -16.3238   21.5612 C.3     1  UNL1        0.4294
     25 O         -12.2318  -17.2577   20.3875 O.3     1  UNL1       -0.4346
@<TRIPOS>BOND
     1     8     9    1
     2     9    10   ar
     3    10    11   ar
     4    11    12   ar
     5     1    12    1
     6     1     2    1
     7     2     3    1
     8     3     4    1
     9     4     5    1
    10     5     6    1
    11     6    15    1
    12    15    16    1
    13    16    17    1
    14    17    18   ar
    15    18    19   ar
    16    19    20   ar
    17    20    21   ar
    18    21    22   ar
    19    21    23    1
    20    23    24    1
    21    24    25    1
    22    12    13   ar
    23    13    14   ar
    24    14     9   ar
    25     6     1    1
    26    22    17   ar
    27    25    20    1
    28     4     7    1
