@<TRIPOS>MOLECULE
*****
 31 35 0 0 0
SMALL
GASTEIGER

@<TRIPOS>ATOM
      1 C         -15.1173   -3.6493   19.5063 C.3     1  UNL1        0.0749
      2 C         -13.8124   -4.1432   18.9557 C.3     1  UNL1        0.0444
      3 C         -12.7874   -3.1646   18.4642 C.ar    1  UNL1       -0.0101
      4 C         -13.0673   -1.6922   18.5232 C.ar    1  UNL1       -0.0091
      5 C         -12.0422   -0.7136   18.0315 C.ar    1  UNL1       -0.0032
      6 C         -10.7373   -1.2074   17.4810 C.ar    1  UNL1        0.0010
      7 C         -10.4573   -2.6799   17.4220 C.ar    1  UNL1        0.0142
      8 C         -11.4823   -3.6585   17.9135 C.ar    1  UNL1        0.0436
      9 C         -14.3722   -1.1983   19.0737 C.3     1  UNL1        0.0954
     10 N         -15.3972   -2.1769   19.5653 N.3     1  UNL1       -0.2934
     11 H         -16.2436   -2.0159   19.0193 H       1  UNL1        0.1236
     12 N         -11.2024   -5.1310   17.8545 N.pl3   1  UNL1       -0.3049
     13 C         -11.7881   -5.9621   16.7517 C.3     1  UNL1        0.1079
     14 C         -11.5082   -7.4346   16.6927 C.3     1  UNL1        0.0903
     15 N         -10.6425   -8.0759   17.7365 N.3     1  UNL1       -0.2946
     16 C         -10.0569   -7.2447   18.8393 C.3     1  UNL1        0.0903
     17 C         -10.3368   -5.7722   18.8983 C.3     1  UNL1        0.1079
     18 H          -9.8596   -8.5073   17.2453 H       1  UNL1        0.1233
     19 C         -16.1424   -4.6279   19.9980 C.3     1  UNL1        0.0886
     20 C         -17.6190   -4.3581   17.8774 C.3     1  UNL1        0.0899
     21 N         -17.1709   -5.1749   19.0530 N.3     1  UNL1       -0.2667
     22 C         -17.7513   -6.5387   19.2837 C.3     1  UNL1        0.0978
     23 C         -19.0981   -6.6813   19.9284 C.3     1  UNL1        0.0224
     24 C         -19.6786   -8.0451   20.1590 C.3     1  UNL1        0.0065
     25 C         -18.9122   -9.2662   19.7449 C.3     1  UNL1        0.0277
     26 C         -17.5653   -9.1236   19.1001 C.ar    1  UNL1       -0.0073
     27 C         -16.7990  -10.3447   18.6860 C.ar    1  UNL1       -0.0015
     28 C         -15.4522  -10.2020   18.0413 C.ar    1  UNL1        0.0203
     29 C         -14.8717   -8.8383   17.8107 C.ar    1  UNL1        0.0985
     30 N         -15.6381   -7.6171   18.2248 N.ar    1  UNL1       -0.2471
     31 C         -16.9849   -7.7598   18.8695 C.ar    1  UNL1        0.0695
@<TRIPOS>BOND
     1    20    21    1
     2    21    19    1
     3     1    19    1
     4     1     2    1
     5     2     3    1
     6     3     4   ar
     7     4     5   ar
     8     5     6   ar
     9     6     7   ar
    10     7     8   ar
    11     8    12    1
    12    12    13    1
    13    13    14    1
    14    14    15    1
    15    15    16    1
    16    16    17    1
    17     4     9    1
    18     9    10    1
    19    22    21    1
    20    22    23    1
    21    23    24    1
    22    24    25    1
    23    25    26    1
    24    26    27   ar
    25    27    28   ar
    26    28    29   ar
    27    29    30   ar
    28    30    31   ar
    29    10     1    1
    30    31    22    1
    31     8     3   ar
    32    17    12    1
    33    31    26   ar
    34    15    18    1
    35    10    11    1
@<TRIPOS>MOLECULE
*****
 31 35 0 0 0
SMALL
GASTEIGER

@<TRIPOS>ATOM
      1 C         -14.2056   -7.7450   18.3148 C.3     1  UNL1        0.0749
      2 C         -15.2753   -6.6983   18.4149 C.3     1  UNL1        0.0444
      3 C         -16.6098   -7.0439   19.0062 C.ar    1  UNL1       -0.0101
      4 C         -16.8746   -8.4363   19.4973 C.ar    1  UNL1       -0.0091
      5 C         -18.2092   -8.7819   20.0886 C.ar    1  UNL1       -0.0032
      6 C         -19.2788   -7.7351   20.1887 C.ar    1  UNL1        0.0010
      7 C         -19.0140   -6.3427   19.6976 C.ar    1  UNL1        0.0142
      8 C         -17.6795   -5.9971   19.1064 C.ar    1  UNL1        0.0436
      9 C         -15.8049   -9.4830   19.3971 C.3     1  UNL1        0.0954
     10 N         -14.4704   -9.1374   18.8059 N.3     1  UNL1       -0.2934
     11 H         -14.3298   -9.7615   18.0115 H       1  UNL1        0.1236
     12 N         -17.4147   -4.6047   18.6153 N.pl3   1  UNL1       -0.3049
     13 C         -17.6168   -4.2690   17.1673 C.3     1  UNL1        0.1079
     14 C         -17.3520   -2.8767   16.6762 C.3     1  UNL1        0.0903
     15 N         -16.8850   -1.8200   17.6331 N.3     1  UNL1       -0.2946
     16 C         -16.6829   -2.1558   19.0810 C.3     1  UNL1        0.0903
     17 C         -16.9478   -3.5481   19.5721 C.3     1  UNL1        0.1079
     18 H         -17.5722   -1.0670   17.5986 H       1  UNL1        0.1233
     19 C         -12.8710   -7.3995   17.7235 C.3     1  UNL1        0.0886
     20 C         -10.5966   -7.2509   18.9705 C.3     1  UNL1        0.0899
     21 N         -11.8776   -6.6107   18.5240 N.3     1  UNL1       -0.2667
     22 C         -12.1651   -5.1817   18.8782 C.3     1  UNL1        0.0978
     23 C         -13.0785   -4.8622   20.0243 C.3     1  UNL1        0.0224
     24 C         -13.3660   -3.4333   20.3784 C.3     1  UNL1        0.0065
     25 C         -12.7401   -2.3238   19.5864 C.3     1  UNL1        0.0277
     26 C         -11.8267   -2.6432   18.4402 C.ar    1  UNL1       -0.0073
     27 C         -11.2009   -1.5338   17.6482 C.ar    1  UNL1       -0.0015
     28 C         -10.2875   -1.8533   16.5020 C.ar    1  UNL1        0.0203
     29 C         -10.0000   -3.2822   16.1479 C.ar    1  UNL1        0.0985
     30 N         -10.6259   -4.3917   16.9399 N.ar    1  UNL1       -0.2471
     31 C         -11.5392   -4.0722   18.0861 C.ar    1  UNL1        0.0695
@<TRIPOS>BOND
     1    20    21    1
     2    21    19    1
     3     1    19    1
     4     1     2    1
     5     2     3    1
     6     3     4   ar
     7     4     5   ar
     8     5     6   ar
     9     6     7   ar
    10     7     8   ar
    11     8    12    1
    12    12    13    1
    13    13    14    1
    14    14    15    1
    15    15    16    1
    16    16    17    1
    17     4     9    1
    18     9    10    1
    19    22    21    1
    20    22    23    1
    21    23    24    1
    22    24    25    1
    23    25    26    1
    24    26    27   ar
    25    27    28   ar
    26    28    29   ar
    27    29    30   ar
    28    30    31   ar
    29    10     1    1
    30    31    22    1
    31     8     3   ar
    32    17    12    1
    33    31    26   ar
    34    15    18    1
    35    10    11    1
@<TRIPOS>MOLECULE
*****
 31 35 0 0 0
SMALL
GASTEIGER

@<TRIPOS>ATOM
      1 C         -14.5955   -7.4079   19.0023 C.3     1  UNL1        0.0749
      2 C         -15.6745   -6.3660   19.0022 C.3     1  UNL1        0.0444
      3 C         -17.0821   -6.7441   19.3568 C.ar    1  UNL1       -0.0101
      4 C         -17.4106   -8.1641   19.7115 C.ar    1  UNL1       -0.0091
      5 C         -18.8183   -8.5421   20.0661 C.ar    1  UNL1       -0.0032
      6 C         -19.8973   -7.5002   20.0660 C.ar    1  UNL1        0.0010
      7 C         -19.5688   -6.0803   19.7112 C.ar    1  UNL1        0.0142
      8 C         -18.1613   -5.7022   19.3567 C.ar    1  UNL1        0.0436
      9 C         -16.3315   -9.2059   19.7116 C.3     1  UNL1        0.0954
     10 N         -14.9240   -8.8279   19.3570 N.3     1  UNL1       -0.2934
     11 H         -14.6582   -9.4005   18.5559 H       1  UNL1        0.1236
     12 N         -17.8328   -4.2822   19.0020 N.pl3   1  UNL1       -0.3049
     13 C         -17.5957   -3.2738   20.0869 C.3     1  UNL1        0.1079
     14 C         -17.2673   -1.8538   19.7322 C.3     1  UNL1        0.0903
     15 N         -17.1758   -1.4423   18.2926 N.3     1  UNL1       -0.2946
     16 C         -17.4128   -2.4508   17.2078 C.3     1  UNL1        0.0903
     17 C         -17.7413   -3.8707   17.5625 C.3     1  UNL1        0.1079
     18 H         -16.2355   -1.0731   18.1510 H       1  UNL1        0.1233
     19 C         -13.1878   -7.0299   18.6477 C.3     1  UNL1        0.0886
     20 C         -13.7068   -6.6703   16.1275 C.3     1  UNL1        0.0899
     21 N         -12.9020   -6.3366   17.3486 N.3     1  UNL1       -0.2667
     22 C         -11.8114   -5.3097   17.2706 C.3     1  UNL1        0.0978
     23 C         -10.4585   -5.6908   16.7470 C.3     1  UNL1        0.0224
     24 C          -9.3679   -4.6639   16.6689 C.3     1  UNL1        0.0065
     25 C          -9.6303   -3.2559   17.1144 C.3     1  UNL1        0.0277
     26 C         -10.9833   -2.8747   17.6380 C.ar    1  UNL1       -0.0073
     27 C         -11.2457   -1.4666   18.0835 C.ar    1  UNL1       -0.0015
     28 C         -12.5987   -1.0855   18.6070 C.ar    1  UNL1        0.0203
     29 C         -13.6893   -2.1124   18.6851 C.ar    1  UNL1        0.0985
     30 N         -13.4269   -3.5205   18.2396 N.ar    1  UNL1       -0.2471
     31 C         -12.0739   -3.9016   17.7161 C.ar    1  UNL1        0.0695
@<TRIPOS>BOND
     1    20    21    1
     2    21    19    1
     3     1    19    1
     4     1     2    1
     5     2     3    1
     6     3     4   ar
     7     4     5   ar
     8     5     6   ar
     9     6     7   ar
    10     7     8   ar
    11     8    12    1
    12    12    13    1
    13    13    14    1
    14    14    15    1
    15    15    16    1
    16    16    17    1
    17     4     9    1
    18     9    10    1
    19    22    21    1
    20    22    23    1
    21    23    24    1
    22    24    25    1
    23    25    26    1
    24    26    27   ar
    25    27    28   ar
    26    28    29   ar
    27    29    30   ar
    28    30    31   ar
    29    10     1    1
    30    31    22    1
    31     8     3   ar
    32    17    12    1
    33    31    26   ar
    34    15    18    1
    35    10    11    1
@<TRIPOS>MOLECULE
*****
 31 35 0 0 0
SMALL
GASTEIGER

@<TRIPOS>ATOM
      1 C           4.1874   -1.7581   24.2072 C.3     1  UNL1        0.0749
      2 C           3.6205   -1.2565   22.9122 C.3     1  UNL1        0.0444
      3 C           3.9150   -1.9829   21.6333 C.ar    1  UNL1       -0.0101
      4 C           4.7764   -3.2108   21.6494 C.ar    1  UNL1       -0.0091
      5 C           5.0708   -3.9372   20.3704 C.ar    1  UNL1       -0.0032
      6 C           4.5040   -3.4356   19.0754 C.ar    1  UNL1        0.0010
      7 C           3.6426   -2.2077   19.0593 C.ar    1  UNL1        0.0142
      8 C           3.3481   -1.4813   20.3382 C.ar    1  UNL1        0.0436
      9 C           5.3432   -3.7124   22.9444 C.3     1  UNL1        0.0954
     10 N           5.0487   -2.9860   24.2233 N.3     1  UNL1       -0.2934
     11 H           5.9475   -2.7100   24.6189 H       1  UNL1        0.1236
     12 N           2.4868   -0.2534   20.3221 N.pl3   1  UNL1       -0.3049
     13 C           3.1145    1.1012   20.1763 C.3     1  UNL1        0.1079
     14 C           2.2531    2.3291   20.1602 C.3     1  UNL1        0.0903
     15 N           0.7640    2.2025   20.2900 N.3     1  UNL1       -0.2946
     16 C           0.1364    0.8479   20.4357 C.3     1  UNL1        0.0903
     17 C           0.9978   -0.3800   20.4518 C.3     1  UNL1        0.1079
     18 H           0.3587    2.6265   19.4556 H       1  UNL1        0.1233
     19 C           3.8929   -1.0317   25.4862 C.3     1  UNL1        0.0886
     20 C           4.7689    1.4143   25.4841 C.3     1  UNL1        0.0899
     21 N           3.6250    0.4440   25.4660 N.3     1  UNL1       -0.2667
     22 C           2.2133    0.9496   25.4278 C.3     1  UNL1        0.0978
     23 C           1.6584    1.5294   24.1607 C.3     1  UNL1        0.0224
     24 C           0.2467    2.0350   24.1224 C.3     1  UNL1        0.0065
     25 C          -0.6101    1.9608   25.3514 C.3     1  UNL1        0.0277
     26 C          -0.0551    1.3809   26.6187 C.ar    1  UNL1       -0.0073
     27 C          -0.9119    1.3067   27.8477 C.ar    1  UNL1       -0.0015
     28 C          -0.3569    0.7269   29.1148 C.ar    1  UNL1        0.0203
     29 C           1.0548    0.2214   29.1531 C.ar    1  UNL1        0.0985
     30 N           1.9115    0.2956   27.9241 N.ar    1  UNL1       -0.2471
     31 C           1.3566    0.8754   26.6569 C.ar    1  UNL1        0.0695
@<TRIPOS>BOND
     1    20    21    1
     2    21    19    1
     3     1    19    1
     4     1     2    1
     5     2     3    1
     6     3     4   ar
     7     4     5   ar
     8     5     6   ar
     9     6     7   ar
    10     7     8   ar
    11     8    12    1
    12    12    13    1
    13    13    14    1
    14    14    15    1
    15    15    16    1
    16    16    17    1
    17     4     9    1
    18     9    10    1
    19    22    21    1
    20    22    23    1
    21    23    24    1
    22    24    25    1
    23    25    26    1
    24    26    27   ar
    25    27    28   ar
    26    28    29   ar
    27    29    30   ar
    28    30    31   ar
    29    10     1    1
    30    31    22    1
    31     8     3   ar
    32    17    12    1
    33    31    26   ar
    34    15    18    1
    35    10    11    1
@<TRIPOS>MOLECULE
*****
 31 35 0 0 0
SMALL
GASTEIGER

@<TRIPOS>ATOM
      1 C         -14.1868   -5.9044   16.8317 C.3     1  UNL1        0.0749
      2 C         -13.1621   -4.8732   17.2011 C.3     1  UNL1        0.0444
      3 C         -11.8907   -5.2888   17.8797 C.ar    1  UNL1       -0.0101
      4 C         -11.6439   -6.7357   18.1889 C.ar    1  UNL1       -0.0091
      5 C         -10.3723   -7.1514   18.8675 C.ar    1  UNL1       -0.0032
      6 C          -9.3477   -6.1201   19.2370 C.ar    1  UNL1        0.0010
      7 C          -9.5944   -4.6732   18.9278 C.ar    1  UNL1        0.0142
      8 C         -10.8659   -4.2576   18.2492 C.ar    1  UNL1        0.0436
      9 C         -12.6686   -7.7670   17.8195 C.3     1  UNL1        0.0954
     10 N         -13.9400   -7.3513   17.1409 N.3     1  UNL1       -0.2934
     11 H         -14.7071   -7.6597   17.7383 H       1  UNL1        0.1236
     12 N         -11.1127   -2.8107   17.9401 N.pl3   1  UNL1       -0.3049
     13 C         -11.9486   -1.9778   18.8662 C.3     1  UNL1        0.1079
     14 C         -12.1954   -0.5309   18.5570 C.3     1  UNL1        0.0903
     15 N         -11.6063    0.0831   17.3217 N.3     1  UNL1       -0.2946
     16 C         -10.7704   -0.7497   16.3957 C.3     1  UNL1        0.0903
     17 C         -10.5236   -2.1966   16.7048 C.3     1  UNL1        0.1079
     18 H         -11.0204    0.8593   17.6294 H       1  UNL1        0.1233
     19 C         -15.4584   -5.4888   16.1531 C.3     1  UNL1        0.0886
     20 C         -16.9508   -4.0969   17.7610 C.3     1  UNL1        0.0899
     21 N         -16.7196   -5.3380   16.9508 N.3     1  UNL1       -0.2667
     22 C         -17.7498   -6.4282   16.9385 C.3     1  UNL1        0.0978
     23 C         -18.9221   -6.3418   16.0068 C.3     1  UNL1        0.0224
     24 C         -19.9523   -7.4321   15.9945 C.3     1  UNL1        0.0065
     25 C         -19.8101   -8.6087   16.9138 C.3     1  UNL1        0.0277
     26 C         -18.6377   -8.6952   17.8455 C.ar    1  UNL1       -0.0073
     27 C         -18.4954   -9.8718   18.7648 C.ar    1  UNL1       -0.0015
     28 C         -17.3231   -9.9583   19.6965 C.ar    1  UNL1        0.0203
     29 C         -16.2929   -8.8680   19.7088 C.ar    1  UNL1        0.0985
     30 N         -16.4351   -7.6913   18.7895 N.ar    1  UNL1       -0.2471
     31 C         -17.6075   -7.6049   17.8579 C.ar    1  UNL1        0.0695
@<TRIPOS>BOND
     1    20    21    1
     2    21    19    1
     3     1    19    1
     4     1     2    1
     5     2     3    1
     6     3     4   ar
     7     4     5   ar
     8     5     6   ar
     9     6     7   ar
    10     7     8   ar
    11     8    12    1
    12    12    13    1
    13    13    14    1
    14    14    15    1
    15    15    16    1
    16    16    17    1
    17     4     9    1
    18     9    10    1
    19    22    21    1
    20    22    23    1
    21    23    24    1
    22    24    25    1
    23    25    26    1
    24    26    27   ar
    25    27    28   ar
    26    28    29   ar
    27    29    30   ar
    28    30    31   ar
    29    10     1    1
    30    31    22    1
    31     8     3   ar
    32    17    12    1
    33    31    26   ar
    34    15    18    1
    35    10    11    1
@<TRIPOS>MOLECULE
*****
 31 35 0 0 0
SMALL
GASTEIGER

@<TRIPOS>ATOM
      1 C         -17.2011   -3.8496   18.6162 C.3     1  UNL1        0.0749
      2 C         -16.1747   -4.9423   18.5669 C.3     1  UNL1        0.0444
      3 C         -16.5263   -6.3233   19.0351 C.ar    1  UNL1       -0.0101
      4 C         -17.9044   -6.6116   19.5526 C.ar    1  UNL1       -0.0091
      5 C         -18.2560   -7.9926   20.0208 C.ar    1  UNL1       -0.0032
      6 C         -17.2295   -9.0853   19.9714 C.ar    1  UNL1        0.0010
      7 C         -15.8515   -8.7970   19.4539 C.ar    1  UNL1        0.0142
      8 C         -15.4998   -7.4160   18.9857 C.ar    1  UNL1        0.0436
      9 C         -18.9308   -5.5189   19.6019 C.3     1  UNL1        0.0954
     10 N         -18.5791   -4.1379   19.1337 N.3     1  UNL1       -0.2934
     11 H         -18.7343   -3.5110   19.9232 H       1  UNL1        0.1236
     12 N         -14.1218   -7.1277   18.4682 N.pl3   1  UNL1       -0.3049
     13 C         -13.7303   -7.5712   17.0897 C.3     1  UNL1        0.1079
     14 C         -12.3522   -7.2829   16.5722 C.3     1  UNL1        0.0903
     15 N         -11.3656   -6.5511   17.4332 N.3     1  UNL1       -0.2946
     16 C         -11.7571   -6.1076   18.8116 C.3     1  UNL1        0.0903
     17 C         -13.1352   -6.3960   19.3291 C.3     1  UNL1        0.1079
     18 H         -11.0926   -5.7126   16.9206 H       1  UNL1        0.1233
     19 C         -16.8495   -2.4686   18.1480 C.3     1  UNL1        0.0886
     20 C         -16.7812   -0.6896   20.0403 C.3     1  UNL1        0.0899
     21 N         -16.0678   -1.5505   19.0403 N.3     1  UNL1       -0.2667
     22 C         -14.5728   -1.4932   18.9325 C.3     1  UNL1        0.0978
     23 C         -13.7297   -2.5027   19.6536 C.3     1  UNL1        0.0224
     24 C         -12.2346   -2.4454   19.5458 C.3     1  UNL1        0.0065
     25 C         -11.5828   -1.3787   18.7170 C.3     1  UNL1        0.0277
     26 C         -12.4259   -0.3691   17.9958 C.ar    1  UNL1       -0.0073
     27 C         -11.7740    0.6977   17.1670 C.ar    1  UNL1       -0.0015
     28 C         -12.6172    1.7072   16.4459 C.ar    1  UNL1        0.0203
     29 C         -14.1122    1.6499   16.5537 C.ar    1  UNL1        0.0985
     30 N         -14.7641    0.5831   17.3825 N.ar    1  UNL1       -0.2471
     31 C         -13.9209   -0.4264   18.1036 C.ar    1  UNL1        0.0695
@<TRIPOS>BOND
     1    20    21    1
     2    21    19    1
     3     1    19    1
     4     1     2    1
     5     2     3    1
     6     3     4   ar
     7     4     5   ar
     8     5     6   ar
     9     6     7   ar
    10     7     8   ar
    11     8    12    1
    12    12    13    1
    13    13    14    1
    14    14    15    1
    15    15    16    1
    16    16    17    1
    17     4     9    1
    18     9    10    1
    19    22    21    1
    20    22    23    1
    21    23    24    1
    22    24    25    1
    23    25    26    1
    24    26    27   ar
    25    27    28   ar
    26    28    29   ar
    27    29    30   ar
    28    30    31   ar
    29    10     1    1
    30    31    22    1
    31     8     3   ar
    32    17    12    1
    33    31    26   ar
    34    15    18    1
    35    10    11    1
@<TRIPOS>MOLECULE
*****
 31 35 0 0 0
SMALL
GASTEIGER

@<TRIPOS>ATOM
      1 C         -16.3791   -3.0090   19.5291 C.3     1  UNL1        0.0749
      2 C         -16.4062   -4.4162   19.0105 C.3     1  UNL1        0.0444
      3 C         -17.6766   -5.2117   19.0662 C.ar    1  UNL1       -0.0101
      4 C         -18.9200   -4.5999   19.6404 C.ar    1  UNL1       -0.0091
      5 C         -20.1905   -5.3955   19.6960 C.ar    1  UNL1       -0.0032
      6 C         -20.2176   -6.8027   19.1775 C.ar    1  UNL1        0.0010
      7 C         -18.9742   -7.4145   18.6033 C.ar    1  UNL1        0.0142
      8 C         -17.7037   -6.6190   18.5476 C.ar    1  UNL1        0.0436
      9 C         -18.8930   -3.1927   20.1589 C.3     1  UNL1        0.0954
     10 N         -17.6225   -2.3973   20.1033 N.3     1  UNL1       -0.2934
     11 H         -17.4021   -2.1270   21.0618 H       1  UNL1        0.1236
     12 N         -16.4604   -7.2308   17.9734 N.pl3   1  UNL1       -0.3049
     13 C         -16.0655   -6.9370   16.5564 C.3     1  UNL1        0.1079
     14 C         -14.8221   -7.5488   15.9821 C.3     1  UNL1        0.0903
     15 N         -13.9736   -8.4543   16.8249 N.3     1  UNL1       -0.2946
     16 C         -14.3685   -8.7480   18.2419 C.3     1  UNL1        0.0903
     17 C         -15.6119   -8.1362   18.8161 C.3     1  UNL1        0.1079
     18 H         -13.0429   -8.0384   16.8589 H       1  UNL1        0.1233
     19 C         -15.1086   -2.2135   19.4734 C.3     1  UNL1        0.0886
     20 C         -13.7399   -3.5053   21.2645 C.3     1  UNL1        0.0899
     21 N         -13.8182   -2.8283   19.9282 N.3     1  UNL1       -0.2667
     22 C         -12.6061   -2.7661   19.0468 C.3     1  UNL1        0.0978
     23 C         -12.1551   -1.4512   18.4834 C.3     1  UNL1        0.0224
     24 C         -10.9429   -1.3890   17.6020 C.3     1  UNL1        0.0065
     25 C         -10.1819   -2.6418   17.2839 C.3     1  UNL1        0.0277
     26 C         -10.6329   -3.9569   17.8473 C.ar    1  UNL1       -0.0073
     27 C          -9.8719   -5.2097   17.5292 C.ar    1  UNL1       -0.0015
     28 C         -10.3229   -6.5246   18.0925 C.ar    1  UNL1        0.0203
     29 C         -11.5351   -6.5868   18.9739 C.ar    1  UNL1        0.0985
     30 N         -12.2961   -5.3340   19.2920 N.ar    1  UNL1       -0.2471
     31 C         -11.8451   -4.0190   18.7287 C.ar    1  UNL1        0.0695
@<TRIPOS>BOND
     1    20    21    1
     2    21    19    1
     3     1    19    1
     4     1     2    1
     5     2     3    1
     6     3     4   ar
     7     4     5   ar
     8     5     6   ar
     9     6     7   ar
    10     7     8   ar
    11     8    12    1
    12    12    13    1
    13    13    14    1
    14    14    15    1
    15    15    16    1
    16    16    17    1
    17     4     9    1
    18     9    10    1
    19    22    21    1
    20    22    23    1
    21    23    24    1
    22    24    25    1
    23    25    26    1
    24    26    27   ar
    25    27    28   ar
    26    28    29   ar
    27    29    30   ar
    28    30    31   ar
    29    10     1    1
    30    31    22    1
    31     8     3   ar
    32    17    12    1
    33    31    26   ar
    34    15    18    1
    35    10    11    1
@<TRIPOS>MOLECULE
*****
 31 35 0 0 0
SMALL
GASTEIGER

@<TRIPOS>ATOM
      1 C           5.5464   -3.0135   24.3892 C.3     1  UNL1        0.0749
      2 C           5.0806   -2.6073   23.0225 C.3     1  UNL1        0.0444
      3 C           4.0264   -1.5509   22.8727 C.ar    1  UNL1       -0.0101
      4 C           3.4381   -0.9005   24.0897 C.ar    1  UNL1       -0.0091
      5 C           2.3838    0.1560   23.9398 C.ar    1  UNL1       -0.0032
      6 C           1.9180    0.5622   22.5731 C.ar    1  UNL1        0.0010
      7 C           2.5064   -0.0881   21.3562 C.ar    1  UNL1        0.0142
      8 C           3.5605   -1.1446   21.5059 C.ar    1  UNL1        0.0436
      9 C           3.9039   -1.3067   25.4564 C.3     1  UNL1        0.0954
     10 N           4.9581   -2.3632   25.6062 N.3     1  UNL1       -0.2934
     11 H           4.5498   -3.1087   26.1701 H       1  UNL1        0.1236
     12 N           4.1489   -1.7949   20.2890 N.pl3   1  UNL1       -0.3049
     13 C           5.2231   -1.0953   19.5101 C.3     1  UNL1        0.1079
     14 C           5.8115   -1.7456   18.2931 C.3     1  UNL1        0.0903
     15 N           5.3256   -3.0955   17.8551 N.3     1  UNL1       -0.2946
     16 C           4.2514   -3.7950   18.6340 C.3     1  UNL1        0.0903
     17 C           3.6631   -3.1447   19.8510 C.3     1  UNL1        0.1079
     18 H           6.1369   -3.7137   17.8519 H       1  UNL1        0.1233
     19 C           6.6007   -4.0701   24.5391 C.3     1  UNL1        0.0886
     20 C           8.8529   -2.9746   25.2301 C.3     1  UNL1        0.0899
     21 N           7.7056   -3.8908   25.5375 N.3     1  UNL1       -0.2667
     22 C           7.6633   -4.6276   26.8434 C.3     1  UNL1        0.0978
     23 C           8.1055   -6.0593   26.9113 C.3     1  UNL1        0.0224
     24 C           8.0632   -6.7962   28.2172 C.3     1  UNL1        0.0065
     25 C           7.5788   -6.1013   29.4551 C.3     1  UNL1        0.0277
     26 C           7.1365   -4.6696   29.3872 C.ar    1  UNL1       -0.0073
     27 C           6.6521   -3.9747   30.6251 C.ar    1  UNL1       -0.0015
     28 C           6.2099   -2.5430   30.5571 C.ar    1  UNL1        0.0203
     29 C           6.2522   -1.8062   29.2513 C.ar    1  UNL1        0.0985
     30 N           6.7366   -2.5010   28.0134 N.ar    1  UNL1       -0.2471
     31 C           7.1788   -3.9327   28.0813 C.ar    1  UNL1        0.0695
@<TRIPOS>BOND
     1    20    21    1
     2    21    19    1
     3     1    19    1
     4     1     2    1
     5     2     3    1
     6     3     4   ar
     7     4     5   ar
     8     5     6   ar
     9     6     7   ar
    10     7     8   ar
    11     8    12    1
    12    12    13    1
    13    13    14    1
    14    14    15    1
    15    15    16    1
    16    16    17    1
    17     4     9    1
    18     9    10    1
    19    22    21    1
    20    22    23    1
    21    23    24    1
    22    24    25    1
    23    25    26    1
    24    26    27   ar
    25    27    28   ar
    26    28    29   ar
    27    29    30   ar
    28    30    31   ar
    29    10     1    1
    30    31    22    1
    31     8     3   ar
    32    17    12    1
    33    31    26   ar
    34    15    18    1
    35    10    11    1
@<TRIPOS>MOLECULE
*****
 31 35 0 0 0
SMALL
GASTEIGER

@<TRIPOS>ATOM
      1 C           3.3734   -0.9265   23.9266 C.3     1  UNL1        0.0749
      2 C           3.3725   -1.1119   22.4381 C.3     1  UNL1        0.0444
      3 C           2.3838   -0.3680   21.5903 C.ar    1  UNL1       -0.0101
      4 C           1.3958    0.5613   22.2309 C.ar    1  UNL1       -0.0091
      5 C           0.4070    1.3052   21.3830 C.ar    1  UNL1       -0.0032
      6 C           0.4062    1.1198   19.8945 C.ar    1  UNL1        0.0010
      7 C           1.3941    0.1905   19.2539 C.ar    1  UNL1        0.0142
      8 C           2.3829   -0.5534   20.1017 C.ar    1  UNL1        0.0436
      9 C           1.3967    0.7467   23.7194 C.3     1  UNL1        0.0954
     10 N           2.3855    0.0028   24.5672 N.3     1  UNL1       -0.2934
     11 H           1.8453   -0.5532   25.2302 H       1  UNL1        0.1236
     12 N           3.3708   -1.4827   19.4611 N.pl3   1  UNL1       -0.3049
     13 C           4.5838   -0.9297   18.7734 C.3     1  UNL1        0.1079
     14 C           5.5717   -1.8591   18.1328 C.3     1  UNL1        0.0903
     15 N           5.3466   -3.3414   18.1799 N.3     1  UNL1       -0.2946
     16 C           4.1336   -3.8943   18.8675 C.3     1  UNL1        0.0903
     17 C           3.1457   -2.9650   19.5082 C.3     1  UNL1        0.1079
     18 H           6.1590   -3.7480   18.6436 H       1  UNL1        0.1233
     19 C           4.3622   -1.6705   24.7745 C.3     1  UNL1        0.0886
     20 C           6.6043   -0.4031   25.1162 C.3     1  UNL1        0.0899
     21 N           5.8318   -1.5351   24.5064 N.3     1  UNL1       -0.2667
     22 C           6.5289   -2.5316   23.6284 C.3     1  UNL1        0.0978
     23 C           6.8087   -2.1998   22.1926 C.3     1  UNL1        0.0224
     24 C           7.5059   -3.1964   21.3146 C.3     1  UNL1        0.0065
     25 C           7.9232   -4.5248   21.8725 C.3     1  UNL1        0.0277
     26 C           7.6434   -4.8567   23.3083 C.ar    1  UNL1       -0.0073
     27 C           8.0607   -6.1850   23.8662 C.ar    1  UNL1       -0.0015
     28 C           7.7809   -6.5168   25.3019 C.ar    1  UNL1        0.0203
     29 C           7.0837   -5.5203   26.1799 C.ar    1  UNL1        0.0985
     30 N           6.6664   -4.1919   25.6221 N.ar    1  UNL1       -0.2471
     31 C           6.9462   -3.8601   24.1863 C.ar    1  UNL1        0.0695
@<TRIPOS>BOND
     1    20    21    1
     2    21    19    1
     3     1    19    1
     4     1     2    1
     5     2     3    1
     6     3     4   ar
     7     4     5   ar
     8     5     6   ar
     9     6     7   ar
    10     7     8   ar
    11     8    12    1
    12    12    13    1
    13    13    14    1
    14    14    15    1
    15    15    16    1
    16    16    17    1
    17     4     9    1
    18     9    10    1
    19    22    21    1
    20    22    23    1
    21    23    24    1
    22    24    25    1
    23    25    26    1
    24    26    27   ar
    25    27    28   ar
    26    28    29   ar
    27    29    30   ar
    28    30    31   ar
    29    10     1    1
    30    31    22    1
    31     8     3   ar
    32    17    12    1
    33    31    26   ar
    34    15    18    1
    35    10    11    1
