@<TRIPOS>MOLECULE
*****
 32 35 0 0 0
SMALL
GASTEIGER

@<TRIPOS>ATOM
      1 C          -8.9765  -16.3639   24.9040 C.ar    1  UNL1        0.0930
      2 C          -9.4704  -15.9964   26.2718 C.ar    1  UNL1        0.1067
      3 N          -8.2923  -15.5483   27.0850 N.ar    1  UNL1       -0.2252
      4 C          -7.0703  -15.6389   26.2198 C.ar    1  UNL1        0.1586
      5 N          -5.6272  -15.3276   26.4852 N.ar    1  UNL1       -0.3349
      6 C          -4.6070  -15.5203   25.4026 C.ar    1  UNL1        0.0945
      7 C          -5.0299  -16.0245   24.0547 C.ar    1  UNL1        0.1177
      8 N          -6.4730  -16.3358   23.7893 N.ar    1  UNL1       -0.2390
      9 C          -7.4932  -16.1431   24.8718 C.ar    1  UNL1        0.1210
     10 H          -5.3497  -14.9967   27.3699 H       1  UNL1        0.1675
     11 C          -4.0096  -16.2172   22.9721 C.2     1  UNL1        0.1230
     12 N          -3.2206  -15.1323   22.3009 N.2     1  UNL1       -0.1467
     13 N          -2.3226  -15.7732   21.2846 N.2     1  UNL1       -0.1519
     14 C          -2.5566  -17.2543   21.3278 C.2     1  UNL1        0.0880
     15 C          -1.9550  -18.3885   20.5522 C.3     1  UNL1        0.0885
     16 C          -2.3959  -19.7970   20.8194 C.2     1  UNL1       -0.0181
     17 C          -3.4386  -20.0714   21.8624 C.2     1  UNL1       -0.0040
     18 C          -4.0402  -18.9372   22.6380 C.2     1  UNL1        0.0025
     19 C          -3.5992  -17.5286   22.3707 C.2     1  UNL1        0.0366
     20 C          -0.9123  -18.1141   19.5092 C.3     1  UNL1        0.0974
     21 C          -1.9838  -18.0135   18.4644 C.3     1  UNL1        0.0300
     22 C           0.1592  -18.2147   20.5541 C.3     1  UNL1        0.0300
     23 O           0.1304  -17.8397   18.4664 O.3     1  UNL1       -0.3860
     24 H          -0.2981  -17.7192   17.6046 H       1  UNL1        0.2103
     25 N         -10.8223  -15.9567   23.1214 N.am    1  UNL1       -0.3039
     26 C          -9.8182  -16.8645   23.7678 C.2     1  UNL1        0.2488
     27 O          -9.6558  -18.2729   23.2778 O.2     1  UNL1       -0.2700
     28 H         -10.9289  -15.0323   23.4430 H       1  UNL1        0.1496
     29 C         -10.6624  -15.9196   21.0065 C.3     1  UNL1        0.0196
     30 C         -11.6640  -16.4573   21.9852 C.3     1  UNL1        0.0572
     31 C         -12.6655  -16.9949   22.9640 C.3     1  UNL1        0.0196
     32 C         -12.5056  -16.9579   20.8490 C.3     1  UNL1        0.0196
@<TRIPOS>BOND
     1    29    30    1
     2    30    31    1
     3    30    32    1
     4    30    25    1
     5    25    26   am
     6    26    27    2
     7    26     1    1
     8     1     2   ar
     9     2     3   ar
    10     3     4   ar
    11     4     5   ar
    12     5     6   ar
    13     6     7   ar
    14     7    11    1
    15    11    12    2
    16    12    13    1
    17    13    14    2
    18    14    15    1
    19    15    20    1
    20    20    21    1
    21    20    22    1
    22    20    23    1
    23    15    16    1
    24    16    17    2
    25    17    18    1
    26    18    19    2
    27     7     8   ar
    28     8     9   ar
    29     9     1   ar
    30     9     4    1
    31    19    11    1
    32    19    14    1
    33    25    28    1
    34     5    10    1
    35    23    24    1
@<TRIPOS>MOLECULE
*****
 32 35 0 0 0
SMALL
GASTEIGER

@<TRIPOS>ATOM
      1 C          -9.8344  -17.9377   24.4052 C.ar    1  UNL1        0.0930
      2 C         -11.3075  -18.2091   24.3248 C.ar    1  UNL1        0.1067
      3 N         -11.5934  -18.8218   22.9858 N.ar    1  UNL1       -0.2252
      4 C         -10.2971  -18.9290   22.2388 C.ar    1  UNL1        0.1586
      5 N          -9.9662  -19.4537   20.8731 N.ar    1  UNL1       -0.3349
      6 C          -8.5482  -19.4319   20.3846 C.ar    1  UNL1        0.0945
      7 C          -7.4610  -18.8854   21.2618 C.ar    1  UNL1        0.1177
      8 N          -7.7920  -18.3608   22.6276 N.ar    1  UNL1       -0.2390
      9 C          -9.2100  -18.3826   23.1160 C.ar    1  UNL1        0.1210
     10 H         -10.6797  -19.8123   20.2973 H       1  UNL1        0.1675
     11 C          -6.0429  -18.8637   20.7733 C.2     1  UNL1        0.1230
     12 N          -5.5813  -19.2170   19.3905 N.2     1  UNL1       -0.1467
     13 N          -4.0906  -19.0564   19.3444 N.2     1  UNL1       -0.1519
     14 C          -3.6310  -18.6039   20.6987 C.2     1  UNL1        0.0880
     15 C          -2.2697  -18.2849   21.2418 C.3     1  UNL1        0.0885
     16 C          -2.1149  -17.8468   22.6679 C.2     1  UNL1       -0.0181
     17 C          -3.3216  -17.7277   23.5511 C.2     1  UNL1       -0.0040
     18 C          -4.6829  -18.0467   23.0080 C.2     1  UNL1        0.0025
     19 C          -4.8376  -18.4848   21.5818 C.2     1  UNL1        0.0366
     20 C          -1.0630  -18.4041   20.3586 C.3     1  UNL1        0.0974
     21 C          -1.1837  -19.8987   20.3953 C.3     1  UNL1        0.0300
     22 C          -0.9424  -16.9094   20.3219 C.3     1  UNL1        0.0300
     23 O           0.1435  -18.5231   19.4755 O.3     1  UNL1       -0.3860
     24 H           0.3301  -19.4601   19.3074 H       1  UNL1        0.2103
     25 N          -8.2492  -16.1183   25.3682 N.am    1  UNL1       -0.3039
     26 C          -9.1125  -17.3283   25.5704 C.2     1  UNL1        0.2488
     27 O          -9.2538  -17.9287   26.9376 O.2     1  UNL1       -0.2700
     28 H          -8.1565  -15.7241   24.4708 H       1  UNL1        0.1496
     29 C          -6.2125  -15.8396   25.8915 C.3     1  UNL1        0.0196
     30 C          -7.5273  -15.5089   26.5333 C.3     1  UNL1        0.0572
     31 C          -8.8422  -15.1782   27.1751 C.3     1  UNL1        0.0196
     32 C          -6.8055  -14.8995   27.6984 C.3     1  UNL1        0.0196
@<TRIPOS>BOND
     1    29    30    1
     2    30    31    1
     3    30    32    1
     4    30    25    1
     5    25    26   am
     6    26    27    2
     7    26     1    1
     8     1     2   ar
     9     2     3   ar
    10     3     4   ar
    11     4     5   ar
    12     5     6   ar
    13     6     7   ar
    14     7    11    1
    15    11    12    2
    16    12    13    1
    17    13    14    2
    18    14    15    1
    19    15    20    1
    20    20    21    1
    21    20    22    1
    22    20    23    1
    23    15    16    1
    24    16    17    2
    25    17    18    1
    26    18    19    2
    27     7     8   ar
    28     8     9   ar
    29     9     1   ar
    30     9     4    1
    31    19    11    1
    32    19    14    1
    33    25    28    1
    34     5    10    1
    35    23    24    1
@<TRIPOS>MOLECULE
*****
 32 35 0 0 0
SMALL
GASTEIGER

@<TRIPOS>ATOM
      1 C           5.1893    1.0413   37.1595 C.ar    1  UNL1        0.0930
      2 C           6.6083    0.7104   37.5157 C.ar    1  UNL1        0.1067
      3 N           7.3291    0.3412   36.2531 N.ar    1  UNL1       -0.2252
      4 C           6.3556    0.4440   35.1166 C.ar    1  UNL1        0.1586
      5 N           6.5025    0.1995   33.6440 N.ar    1  UNL1       -0.3349
      6 C           5.3269    0.3876   32.7315 C.ar    1  UNL1        0.0945
      7 C           4.0044    0.8203   33.2917 C.ar    1  UNL1        0.1177
      8 N           3.8575    1.0649   34.7643 N.ar    1  UNL1       -0.2390
      9 C           5.0331    0.8767   35.6767 C.ar    1  UNL1        0.1210
     10 H           7.3705   -0.0845   33.2763 H       1  UNL1        0.1675
     11 C           2.8288    1.0085   32.3792 C.2     1  UNL1        0.1230
     12 N           1.5855    1.7872   32.6922 N.2     1  UNL1       -0.1467
     13 N           0.6784    1.7110   31.5000 N.2     1  UNL1       -0.1519
     14 C           1.3611    0.8852   30.4502 C.2     1  UNL1        0.0880
     15 C           0.9443    0.4725   29.0696 C.3     1  UNL1        0.0885
     16 C           1.8564   -0.3744   28.2325 C.2     1  UNL1       -0.0181
     17 C           3.1855   -0.8085   28.7759 C.2     1  UNL1       -0.0040
     18 C           3.6023   -0.3958   30.1564 C.2     1  UNL1        0.0025
     19 C           2.6901    0.4510   30.9936 C.2     1  UNL1        0.0366
     20 C          -0.3848    0.9066   28.5263 C.3     1  UNL1        0.0974
     21 C          -1.0040   -0.3657   29.0240 C.3     1  UNL1        0.0300
     22 C           0.2345    2.1790   28.0285 C.3     1  UNL1        0.0300
     23 O          -1.7137    1.3409   27.9829 O.3     1  UNL1       -0.3860
     24 H          -2.3777    0.6588   28.1692 H       1  UNL1        0.2103
     25 N           2.6722    1.3548   37.7218 N.am    1  UNL1       -0.3039
     26 C           4.1150    1.4629   38.1177 C.2     1  UNL1        0.2488
     27 O           4.4834    1.9925   39.4718 O.2     1  UNL1       -0.2700
     28 H           2.4303    1.0072   36.8331 H       1  UNL1        0.1496
     29 C           1.6529    3.1702   38.1284 C.3     1  UNL1        0.0196
     30 C           1.5979    1.7764   38.6801 C.3     1  UNL1        0.0572
     31 C           1.5430    0.3826   39.2317 C.3     1  UNL1        0.0196
     32 C           0.5237    2.1980   39.6383 C.3     1  UNL1        0.0196
@<TRIPOS>BOND
     1    29    30    1
     2    30    31    1
     3    30    32    1
     4    30    25    1
     5    25    26   am
     6    26    27    2
     7    26     1    1
     8     1     2   ar
     9     2     3   ar
    10     3     4   ar
    11     4     5   ar
    12     5     6   ar
    13     6     7   ar
    14     7    11    1
    15    11    12    2
    16    12    13    1
    17    13    14    2
    18    14    15    1
    19    15    20    1
    20    20    21    1
    21    20    22    1
    22    20    23    1
    23    15    16    1
    24    16    17    2
    25    17    18    1
    26    18    19    2
    27     7     8   ar
    28     8     9   ar
    29     9     1   ar
    30     9     4    1
    31    19    11    1
    32    19    14    1
    33    25    28    1
    34     5    10    1
    35    23    24    1
@<TRIPOS>MOLECULE
*****
 32 35 0 0 0
SMALL
GASTEIGER

@<TRIPOS>ATOM
      1 C           5.9519   -2.4846   28.5928 C.ar    1  UNL1        0.0930
      2 C           6.5433   -3.1081   29.8222 C.ar    1  UNL1        0.1067
      3 N           7.3469   -4.3009   29.3962 N.ar    1  UNL1       -0.2252
      4 C           7.2521   -4.4146   27.9035 C.ar    1  UNL1        0.1586
      5 N           7.8394   -5.3953   26.9323 N.ar    1  UNL1       -0.3349
      6 C           7.5646   -5.2534   25.4646 C.ar    1  UNL1        0.0945
      7 C           6.7024   -4.1308   24.9681 C.ar    1  UNL1        0.1177
      8 N           6.1151   -3.1501   25.9393 N.ar    1  UNL1       -0.2390
      9 C           6.3899   -3.2921   27.4070 C.ar    1  UNL1        0.1210
     10 H           8.4053   -6.1321   27.2582 H       1  UNL1        0.1675
     11 C           6.4276   -3.9889   23.5002 C.2     1  UNL1        0.1230
     12 N           7.1551   -4.6951   22.3947 N.2     1  UNL1       -0.1467
     13 N           6.5542   -4.2586   21.0915 N.2     1  UNL1       -0.1519
     14 C           5.4553   -3.2827   21.3916 C.2     1  UNL1        0.0880
     15 C           4.5158   -2.5242   20.5016 C.3     1  UNL1        0.0885
     16 C           3.4981   -1.5992   21.1002 C.2     1  UNL1       -0.0181
     17 C           3.4199   -1.4324   22.5890 C.2     1  UNL1       -0.0040
     18 C           4.3594   -2.1909   23.4789 C.2     1  UNL1        0.0025
     19 C           5.3771   -3.1160   22.8802 C.2     1  UNL1        0.0366
     20 C           4.5941   -2.6909   19.0129 C.3     1  UNL1        0.0974
     21 C           3.6316   -3.8387   19.0908 C.3     1  UNL1        0.0300
     22 C           5.5566   -1.5431   18.9351 C.3     1  UNL1        0.0300
     23 O           4.6724   -2.8576   17.5243 O.3     1  UNL1       -0.3860
     24 H           4.1025   -3.5933   17.2508 H       1  UNL1        0.2103
     25 N           3.8695   -1.2383   27.6650 N.am    1  UNL1       -0.3039
     26 C           5.0762   -1.2673   28.5557 C.2     1  UNL1        0.2488
     27 O           5.4070   -0.0791   29.4092 O.2     1  UNL1       -0.2700
     28 H           3.6523   -2.0182   27.1048 H       1  UNL1        0.1496
     29 C           2.2129   -0.5474   28.7956 C.3     1  UNL1        0.0196
     30 C           2.9938   -0.0211   27.6279 C.3     1  UNL1        0.0572
     31 C           3.7747    0.5052   26.4603 C.3     1  UNL1        0.0196
     32 C           2.1181    1.1961   27.5909 C.3     1  UNL1        0.0196
@<TRIPOS>BOND
     1    29    30    1
     2    30    31    1
     3    30    32    1
     4    30    25    1
     5    25    26   am
     6    26    27    2
     7    26     1    1
     8     1     2   ar
     9     2     3   ar
    10     3     4   ar
    11     4     5   ar
    12     5     6   ar
    13     6     7   ar
    14     7    11    1
    15    11    12    2
    16    12    13    1
    17    13    14    2
    18    14    15    1
    19    15    20    1
    20    20    21    1
    21    20    22    1
    22    20    23    1
    23    15    16    1
    24    16    17    2
    25    17    18    1
    26    18    19    2
    27     7     8   ar
    28     8     9   ar
    29     9     1   ar
    30     9     4    1
    31    19    11    1
    32    19    14    1
    33    25    28    1
    34     5    10    1
    35    23    24    1
@<TRIPOS>MOLECULE
*****
 32 35 0 0 0
SMALL
GASTEIGER

@<TRIPOS>ATOM
      1 C           5.8108   -1.7170   28.9900 C.ar    1  UNL1        0.0930
      2 C           5.2700   -0.6823   29.9318 C.ar    1  UNL1        0.1067
      3 N           4.3051    0.1779   29.1709 N.ar    1  UNL1       -0.2252
      4 C           4.2495   -0.3251   27.7588 C.ar    1  UNL1        0.1586
      5 N           3.4718    0.1319   26.5604 N.ar    1  UNL1       -0.3349
      6 C           3.6247   -0.5821   25.2502 C.ar    1  UNL1        0.0945
      7 C           4.5553   -1.7532   25.1384 C.ar    1  UNL1        0.1177
      8 N           5.3330   -2.2103   26.3368 N.ar    1  UNL1       -0.2390
      9 C           5.1801   -1.4962   27.6470 C.ar    1  UNL1        0.1210
     10 H           2.8610    0.9006   26.6338 H       1  UNL1        0.1675
     11 C           4.7081   -2.4673   23.8281 C.2     1  UNL1        0.1230
     12 N           5.5754   -3.6641   23.5721 N.2     1  UNL1       -0.1467
     13 N           5.4239   -4.0464   22.1296 N.2     1  UNL1       -0.1519
     14 C           4.4629   -3.0858   21.4940 C.2     1  UNL1        0.0880
     15 C           3.9335   -2.9738   20.0951 C.3     1  UNL1        0.0885
     16 C           2.9618   -1.8858   19.7458 C.2     1  UNL1       -0.0181
     17 C           2.5194   -0.9098   20.7955 C.2     1  UNL1       -0.0040
     18 C           3.0488   -1.0219   22.1945 C.2     1  UNL1        0.0025
     19 C           4.0206   -2.1099   22.5437 C.2     1  UNL1        0.0366
     20 C           4.3759   -3.9497   19.0453 C.3     1  UNL1        0.0974
     21 C           3.2742   -4.8840   19.4496 C.3     1  UNL1        0.0300
     22 C           5.4776   -3.0155   18.6411 C.3     1  UNL1        0.0300
     23 O           4.8183   -4.9256   17.9956 O.3     1  UNL1       -0.3860
     24 H           4.2420   -5.7056   18.0158 H       1  UNL1        0.2103
     25 N           6.6408   -4.1700   28.7797 N.am    1  UNL1       -0.3039
     26 C           6.8073   -2.7849   29.3312 C.2     1  UNL1        0.2488
     27 O           7.9703   -2.4680   30.2237 O.2     1  UNL1       -0.2700
     28 H           5.8774   -4.3781   28.1939 H       1  UNL1        0.1496
     29 C           6.8462   -5.5842   30.3475 C.3     1  UNL1        0.0196
     30 C           7.6373   -5.2380   29.1209 C.3     1  UNL1        0.0572
     31 C           8.4283   -4.8917   27.8944 C.3     1  UNL1        0.0196
     32 C           8.6337   -6.3058   29.4621 C.3     1  UNL1        0.0196
@<TRIPOS>BOND
     1    29    30    1
     2    30    31    1
     3    30    32    1
     4    30    25    1
     5    25    26   am
     6    26    27    2
     7    26     1    1
     8     1     2   ar
     9     2     3   ar
    10     3     4   ar
    11     4     5   ar
    12     5     6   ar
    13     6     7   ar
    14     7    11    1
    15    11    12    2
    16    12    13    1
    17    13    14    2
    18    14    15    1
    19    15    20    1
    20    20    21    1
    21    20    22    1
    22    20    23    1
    23    15    16    1
    24    16    17    2
    25    17    18    1
    26    18    19    2
    27     7     8   ar
    28     8     9   ar
    29     9     1   ar
    30     9     4    1
    31    19    11    1
    32    19    14    1
    33    25    28    1
    34     5    10    1
    35    23    24    1
@<TRIPOS>MOLECULE
*****
 32 35 0 0 0
SMALL
GASTEIGER

@<TRIPOS>ATOM
      1 C           3.0411    0.4187   28.0315 C.ar    1  UNL1        0.0930
      2 C           3.3896    0.4112   29.4904 C.ar    1  UNL1        0.1067
      3 N           4.4663   -0.6110   29.7045 N.ar    1  UNL1       -0.2252
      4 C           4.7832   -1.2353   28.3778 C.ar    1  UNL1        0.1586
      5 N           5.7600   -2.3010   27.9778 N.ar    1  UNL1       -0.3349
      6 C           5.8560   -2.7302   26.5438 C.ar    1  UNL1        0.0945
      7 C           4.9751   -2.0939   25.5098 C.ar    1  UNL1        0.1177
      8 N           3.9983   -1.0282   25.9099 N.ar    1  UNL1       -0.2390
      9 C           3.9024   -0.5989   27.3439 C.ar    1  UNL1        0.1210
     10 H           6.3382   -2.7186   28.6564 H       1  UNL1        0.1675
     11 C           5.0711   -2.5232   24.0757 C.2     1  UNL1        0.1230
     12 N           6.0199   -3.5452   23.5229 N.2     1  UNL1       -0.1467
     13 N           5.7704   -3.6596   22.0483 N.2     1  UNL1       -0.1519
     14 C           4.6674   -2.7083   21.6897 C.2     1  UNL1        0.0880
     15 C           4.0007   -2.3908   20.3840 C.3     1  UNL1        0.0885
     16 C           2.9019   -1.3711   20.3314 C.2     1  UNL1       -0.0181
     17 C           2.4697   -0.6688   21.5844 C.2     1  UNL1       -0.0040
     18 C           3.1364   -0.9863   22.8900 C.2     1  UNL1        0.0025
     19 C           4.2352   -2.0060   22.9427 C.2     1  UNL1        0.0366
     20 C           4.4329   -3.0932   19.1310 C.3     1  UNL1        0.0974
     21 C           3.4145   -4.1658   19.3809 C.3     1  UNL1        0.0300
     22 C           5.4512   -2.0205   18.8811 C.3     1  UNL1        0.0300
     23 O           4.8651   -3.7954   17.8780 O.3     1  UNL1       -0.3860
     24 H           4.3374   -4.6008   17.7603 H       1  UNL1        0.2103
     25 N           0.7782    0.6779   26.7816 N.am    1  UNL1       -0.3039
     26 C           2.0119    1.2906   27.3754 C.2     1  UNL1        0.2488
     27 O           2.2164    2.7752   27.3129 O.2     1  UNL1       -0.2700
     28 H           0.6439   -0.2966   26.8225 H       1  UNL1        0.1496
     29 C           0.4238    1.3493   24.8008 C.3     1  UNL1        0.0196
     30 C          -0.2510    1.5498   26.1254 C.3     1  UNL1        0.0572
     31 C          -0.9257    1.7503   27.4501 C.3     1  UNL1        0.0196
     32 C          -1.2801    2.4217   25.4693 C.3     1  UNL1        0.0196
@<TRIPOS>BOND
     1    29    30    1
     2    30    31    1
     3    30    32    1
     4    30    25    1
     5    25    26   am
     6    26    27    2
     7    26     1    1
     8     1     2   ar
     9     2     3   ar
    10     3     4   ar
    11     4     5   ar
    12     5     6   ar
    13     6     7   ar
    14     7    11    1
    15    11    12    2
    16    12    13    1
    17    13    14    2
    18    14    15    1
    19    15    20    1
    20    20    21    1
    21    20    22    1
    22    20    23    1
    23    15    16    1
    24    16    17    2
    25    17    18    1
    26    18    19    2
    27     7     8   ar
    28     8     9   ar
    29     9     1   ar
    30     9     4    1
    31    19    11    1
    32    19    14    1
    33    25    28    1
    34     5    10    1
    35    23    24    1
@<TRIPOS>MOLECULE
*****
 32 35 0 0 0
SMALL
GASTEIGER

@<TRIPOS>ATOM
      1 C           4.7345    0.6489   36.6584 C.ar    1  UNL1        0.0930
      2 C           5.9906    0.4027   37.4404 C.ar    1  UNL1        0.1067
      3 N           7.0208   -0.1499   36.5005 N.ar    1  UNL1       -0.2252
      4 C           6.4014   -0.2452   35.1377 C.ar    1  UNL1        0.1586
      5 N           6.9415   -0.7177   33.8205 N.ar    1  UNL1       -0.3349
      6 C           6.0685   -0.6965   32.6010 C.ar    1  UNL1        0.0945
      7 C           4.6554   -0.2028   32.6986 C.ar    1  UNL1        0.1177
      8 N           4.1154    0.2697   34.0157 N.ar    1  UNL1       -0.2390
      9 C           4.9883    0.2485   35.2353 C.ar    1  UNL1        0.1210
     10 H           7.8689   -1.0417   33.7565 H       1  UNL1        0.1675
     11 C           3.7825   -0.1817   31.4789 C.2     1  UNL1        0.1230
     12 N           3.9760   -1.0075   30.2417 N.2     1  UNL1       -0.1467
     13 N           2.8759   -0.6672   29.2804 N.2     1  UNL1       -0.1519
     14 C           2.0024    0.3689   29.9236 C.2     1  UNL1        0.0880
     15 C           0.7693    1.0779   29.4476 C.3     1  UNL1        0.0885
     16 C           0.0964    2.0869   30.3302 C.2     1  UNL1       -0.0181
     17 C           0.6567    2.3870   31.6889 C.2     1  UNL1       -0.0040
     18 C           1.8899    1.6780   32.1649 C.2     1  UNL1        0.0025
     19 C           2.5627    0.6690   31.2823 C.2     1  UNL1        0.0366
     20 C           0.2090    0.7778   28.0888 C.3     1  UNL1        0.0974
     21 C          -0.6810   -0.2709   28.6874 C.3     1  UNL1        0.0300
     22 C           1.0990    1.8264   27.4903 C.3     1  UNL1        0.0300
     23 O          -0.3512    0.4777   26.7301 O.3     1  UNL1       -0.3860
     24 H          -1.0146   -0.2263   26.8022 H       1  UNL1        0.2103
     25 N           3.1037    1.0018   38.6500 N.am    1  UNL1       -0.3039
     26 C           3.4499    1.1990   37.2038 C.2     1  UNL1        0.2488
     27 O           2.5117    1.9461   36.3032 O.2     1  UNL1       -0.2700
     28 H           3.7195    0.5114   39.2412 H       1  UNL1        0.1496
     29 C           2.4079    2.9315   39.1904 C.3     1  UNL1        0.0196
     30 C           1.8192    1.5518   39.1954 C.3     1  UNL1        0.0572
     31 C           1.2305    0.1722   39.2003 C.3     1  UNL1        0.0196
     32 C           0.5347    2.1019   39.7407 C.3     1  UNL1        0.0196
@<TRIPOS>BOND
     1    29    30    1
     2    30    31    1
     3    30    32    1
     4    30    25    1
     5    25    26   am
     6    26    27    2
     7    26     1    1
     8     1     2   ar
     9     2     3   ar
    10     3     4   ar
    11     4     5   ar
    12     5     6   ar
    13     6     7   ar
    14     7    11    1
    15    11    12    2
    16    12    13    1
    17    13    14    2
    18    14    15    1
    19    15    20    1
    20    20    21    1
    21    20    22    1
    22    20    23    1
    23    15    16    1
    24    16    17    2
    25    17    18    1
    26    18    19    2
    27     7     8   ar
    28     8     9   ar
    29     9     1   ar
    30     9     4    1
    31    19    11    1
    32    19    14    1
    33    25    28    1
    34     5    10    1
    35    23    24    1
@<TRIPOS>MOLECULE
*****
 32 35 0 0 0
SMALL
GASTEIGER

@<TRIPOS>ATOM
      1 C           7.2652   -4.0278   27.2098 C.ar    1  UNL1        0.0930
      2 C           7.4024   -4.0865   28.7024 C.ar    1  UNL1        0.1067
      3 N           6.4406   -3.1000   29.2953 N.ar    1  UNL1       -0.2252
      4 C           5.7089   -2.4316   28.1693 C.ar    1  UNL1        0.1586
      5 N           4.6445   -1.3749   28.1511 N.ar    1  UNL1       -0.3349
      6 C           4.0897   -0.8917   26.8439 C.ar    1  UNL1        0.0945
      7 C           4.5994   -1.4652   25.5550 C.ar    1  UNL1        0.1177
      8 N           5.6639   -2.5218   25.5732 N.ar    1  UNL1       -0.2390
      9 C           6.2186   -3.0050   26.8803 C.ar    1  UNL1        0.1210
     10 H           4.3100   -0.9986   28.9970 H       1  UNL1        0.1675
     11 C           4.0446   -0.9819   24.2478 C.2     1  UNL1        0.1230
     12 N           3.4141    0.3561   23.9983 N.2     1  UNL1       -0.1467
     13 N           3.0027    0.4132   22.5569 N.2     1  UNL1       -0.1519
     14 C           3.3790   -0.8896   21.9156 C.2     1  UNL1        0.0880
     15 C           3.2185   -1.4021   20.5151 C.3     1  UNL1        0.0885
     16 C           3.7018   -2.7768   20.1595 C.2     1  UNL1       -0.0181
     17 C           4.3458   -3.6391   21.2045 C.2     1  UNL1       -0.0040
     18 C           4.5063   -3.1265   22.6050 C.2     1  UNL1        0.0025
     19 C           4.0229   -1.7517   22.9606 C.2     1  UNL1        0.0366
     20 C           2.5745   -0.5399   19.4701 C.3     1  UNL1        0.0974
     21 C           3.9232   -0.2410   18.8855 C.3     1  UNL1        0.0300
     22 C           1.2258   -0.8387   20.0547 C.3     1  UNL1        0.0300
     23 O           1.9305    0.3224   18.4252 O.3     1  UNL1       -0.3860
     24 H           2.6140    0.6904   17.8435 H       1  UNL1        0.2103
     25 N           7.3183   -5.5834   25.1295 N.am    1  UNL1       -0.3039
     26 C           8.0389   -4.8479   26.2204 C.2     1  UNL1        0.2488
     27 O           9.5330   -4.9326   26.3217 O.2     1  UNL1       -0.2700
     28 H           6.3376   -5.5278   25.0629 H       1  UNL1        0.1496
     29 C           8.1679   -5.2213   23.2198 C.3     1  UNL1        0.0196
     30 C           8.0919   -6.4035   24.1401 C.3     1  UNL1        0.0572
     31 C           8.0158   -7.5855   25.0604 C.3     1  UNL1        0.0196
     32 C           8.8655   -7.2235   23.1507 C.3     1  UNL1        0.0196
@<TRIPOS>BOND
     1    29    30    1
     2    30    31    1
     3    30    32    1
     4    30    25    1
     5    25    26   am
     6    26    27    2
     7    26     1    1
     8     1     2   ar
     9     2     3   ar
    10     3     4   ar
    11     4     5   ar
    12     5     6   ar
    13     6     7   ar
    14     7    11    1
    15    11    12    2
    16    12    13    1
    17    13    14    2
    18    14    15    1
    19    15    20    1
    20    20    21    1
    21    20    22    1
    22    20    23    1
    23    15    16    1
    24    16    17    2
    25    17    18    1
    26    18    19    2
    27     7     8   ar
    28     8     9   ar
    29     9     1   ar
    30     9     4    1
    31    19    11    1
    32    19    14    1
    33    25    28    1
    34     5    10    1
    35    23    24    1
@<TRIPOS>MOLECULE
*****
 32 35 0 0 0
SMALL
GASTEIGER

@<TRIPOS>ATOM
      1 C           2.8735   -0.2341   19.3639 C.ar    1  UNL1        0.0930
      2 C           2.6599    0.4460   18.0441 C.ar    1  UNL1        0.1067
      3 N           1.9250    1.7288   18.2974 N.ar    1  UNL1       -0.2252
      4 C           1.6844    1.8416   19.7737 C.ar    1  UNL1        0.1586
      5 N           1.0073    2.8922   20.6029 N.ar    1  UNL1       -0.3349
      6 C           0.9165    2.7297   22.0913 C.ar    1  UNL1        0.0945
      7 C           1.5028    1.5165   22.7504 C.ar    1  UNL1        0.1177
      8 N           2.1799    0.4659   21.9212 N.ar    1  UNL1       -0.2390
      9 C           2.2707    0.6284   20.4328 C.ar    1  UNL1        0.1210
     10 H           0.6225    3.6885   20.1703 H       1  UNL1        0.1675
     11 C           1.4119    1.3540   24.2389 C.2     1  UNL1        0.1230
     12 N           2.4191    0.6687   25.1141 N.2     1  UNL1       -0.1467
     13 N           1.9277    0.7394   26.5295 N.2     1  UNL1       -0.1519
     14 C           0.6167    1.4684   26.5291 C.2     1  UNL1        0.0880
     15 C          -0.3280    1.8354   27.6349 C.3     1  UNL1        0.0885
     16 C          -1.5913    2.5822   27.3251 C.2     1  UNL1       -0.0181
     17 C          -1.9101    2.9621   25.9093 C.2     1  UNL1       -0.0040
     18 C          -0.9654    2.5951   24.8035 C.2     1  UNL1        0.0025
     19 C           0.2980    1.8482   25.1134 C.2     1  UNL1        0.0366
     20 C          -0.0092    1.4556   29.0506 C.3     1  UNL1        0.0974
     21 C          -0.7166    0.1468   28.8588 C.3     1  UNL1        0.0300
     22 C           0.6982    2.7643   29.2424 C.3     1  UNL1        0.0300
     23 O           0.3096    1.0758   30.4663 O.3     1  UNL1       -0.3860
     24 H          -0.0530    0.1960   30.6545 H       1  UNL1        0.2103
     25 N           3.6710   -2.5324   18.4515 N.am    1  UNL1       -0.3039
     26 C           3.5681   -1.5464   19.5773 C.2     1  UNL1        0.2488
     27 O           4.1598   -1.8727   20.9164 O.2     1  UNL1       -0.2700
     28 H           3.2827   -2.3182   17.5725 H       1  UNL1        0.1496
     29 C           5.6706   -3.2175   18.2728 C.3     1  UNL1        0.0196
     30 C           4.3656   -3.8446   18.6649 C.3     1  UNL1        0.0572
     31 C           3.0606   -4.4716   19.0570 C.3     1  UNL1        0.0196
     32 C           5.0602   -5.1568   18.8783 C.3     1  UNL1        0.0196
@<TRIPOS>BOND
     1    29    30    1
     2    30    31    1
     3    30    32    1
     4    30    25    1
     5    25    26   am
     6    26    27    2
     7    26     1    1
     8     1     2   ar
     9     2     3   ar
    10     3     4   ar
    11     4     5   ar
    12     5     6   ar
    13     6     7   ar
    14     7    11    1
    15    11    12    2
    16    12    13    1
    17    13    14    2
    18    14    15    1
    19    15    20    1
    20    20    21    1
    21    20    22    1
    22    20    23    1
    23    15    16    1
    24    16    17    2
    25    17    18    1
    26    18    19    2
    27     7     8   ar
    28     8     9   ar
    29     9     1   ar
    30     9     4    1
    31    19    11    1
    32    19    14    1
    33    25    28    1
    34     5    10    1
    35    23    24    1
