@<TRIPOS>MOLECULE
*****
 37 42 0 0 0
SMALL
GASTEIGER

@<TRIPOS>ATOM
      1 C           7.1590   -4.2242   26.8036 C.2     1  UNL1        0.0866
      2 N           7.0363   -3.1515   27.8448 N.2     1  UNL1       -0.1523
      3 N           6.2928   -1.9988   27.2375 N.2     1  UNL1       -0.1523
      4 C           5.9560   -2.3594   25.8209 C.2     1  UNL1        0.0858
      5 C           6.4913   -3.7347   25.5528 C.3     1  UNL1        0.0883
      6 C           6.1545   -4.0952   24.1363 C.3     1  UNL1        0.0384
      7 C           5.4110   -2.9426   23.5289 C.ar    1  UNL1       -0.0205
      8 C           4.8298   -2.7314   22.1623 C.ar    1  UNL1       -0.0071
      9 C           4.1260   -1.4474   21.8369 C.ar    1  UNL1       -0.0065
     10 C           4.0033   -0.3746   22.8781 C.ar    1  UNL1       -0.0029
     11 C           4.5845   -0.5858   24.2447 C.ar    1  UNL1        0.0006
     12 C           5.2883   -1.8698   24.5701 C.ar    1  UNL1        0.0117
     13 C           8.1969   -7.9241   27.3509 C.ar    1  UNL1        0.0710
     14 C           7.1440   -6.8614   27.2398 C.ar    1  UNL1        0.0165
     15 C           7.8313   -5.5532   26.9819 C.ar    1  UNL1        0.0233
     16 C           9.3088   -5.8074   26.9337 C.ar    1  UNL1        0.0373
     17 S           9.5347   -7.2727   27.1617 S.2     1  UNL1       -0.0780
     18 C           7.7119  -10.8402   27.8619 C.1     1  UNL1       -0.0388
     19 C           7.9544   -9.3821   27.6064 C.1     1  UNL1       -0.0543
     20 C           7.4694  -12.2983   28.1173 C.3     1  UNL1        0.2814
     21 O           6.3251  -12.9973   27.4450 O.3     1  UNL1       -0.4612
     22 C           0.9452  -13.1774   30.0953 C.3     1  UNL1        0.0307
     23 C           2.2902  -13.1324   29.4327 C.ar    1  UNL1       -0.0256
     24 C           3.2719  -12.0597   29.8006 C.ar    1  UNL1       -0.0015
     25 C           4.6169  -12.0147   29.1380 C.ar    1  UNL1        0.0366
     26 C           4.9801  -13.0423   28.1075 C.ar    1  UNL1        0.1397
     27 C           3.9983  -14.1151   27.7396 C.ar    1  UNL1        0.0324
     28 C           2.6533  -14.1601   28.4022 C.ar    1  UNL1       -0.0228
     29 C           1.6716  -15.2328   28.0343 C.3     1  UNL1        0.0308
     30 C           3.5448   -1.2362   20.4702 C.3     1  UNL1        0.0992
     31 N           4.3012   -0.4400   19.4485 N.3     1  UNL1       -0.2665
     32 C           4.3791    1.0532   19.5687 C.3     1  UNL1        0.0899
     33 C           5.1355    1.8494   18.5470 C.3     1  UNL1        0.0897
     34 N           5.8139    1.1524   17.4050 N.3     1  UNL1       -0.2691
     35 C           6.5702    1.9486   16.3832 C.3     1  UNL1        0.0897
     36 C           5.7359   -0.3407   17.2848 C.3     1  UNL1        0.0897
     37 C           4.9795   -1.1369   18.3065 C.3     1  UNL1        0.0899
@<TRIPOS>BOND
     1    22    23    1
     2    23    24   ar
     3    24    25   ar
     4    25    26   ar
     5    26    21    1
     6    21    20    1
     7    20    18    1
     8    18    19    3
     9    19    13    1
    10    13    14   ar
    11    14    15   ar
    12    15     1    1
    13     1     2    2
    14     2     3    1
    15     3     4    2
    16     4     5    1
    17     5     6    1
    18     6     7    1
    19     7     8   ar
    20     8     9   ar
    21     9    30    1
    22    30    31    1
    23    31    32    1
    24    32    33    1
    25    33    34    1
    26    34    35    1
    27    34    36    1
    28    36    37    1
    29     9    10   ar
    30    10    11   ar
    31    11    12   ar
    32    15    16   ar
    33    16    17   ar
    34    26    27   ar
    35    27    28   ar
    36    28    29    1
    37    28    23   ar
    38    17    13   ar
    39     5     1    1
    40    12     7   ar
    41    12     4    1
    42    37    31    1
@<TRIPOS>MOLECULE
*****
 37 42 0 0 0
SMALL
GASTEIGER

@<TRIPOS>ATOM
      1 C           8.3309   -4.9966   23.3100 C.2     1  UNL1        0.0866
      2 N           9.4707   -4.8695   22.3432 N.2     1  UNL1       -0.1523
      3 N           8.9946   -4.0682   21.1680 N.2     1  UNL1       -0.1523
      4 C           7.5605   -3.7000   21.4084 C.2     1  UNL1        0.0858
      5 C           7.1503   -4.2738   22.7323 C.3     1  UNL1        0.0883
      6 C           5.7162   -3.9056   22.9727 C.3     1  UNL1        0.0384
      7 C           5.2401   -3.1042   21.7975 C.ar    1  UNL1       -0.0205
      8 C           3.9159   -2.4738   21.4828 C.ar    1  UNL1       -0.0071
      9 C           3.7316   -1.7163   20.2013 C.ar    1  UNL1       -0.0065
     10 C           4.8714   -1.5892   19.2345 C.ar    1  UNL1       -0.0029
     11 C           6.1956   -2.2197   19.5492 C.ar    1  UNL1        0.0006
     12 C           6.3799   -2.9771   20.8307 C.ar    1  UNL1        0.0117
     13 C           8.1594   -7.4515   26.3116 C.ar    1  UNL1        0.0710
     14 C           7.9661   -7.1468   24.8556 C.ar    1  UNL1        0.0165
     15 C           8.3655   -5.7196   24.6238 C.ar    1  UNL1        0.0233
     16 C           8.8056   -5.1423   25.9365 C.ar    1  UNL1        0.0373
     17 S           8.6782   -6.2128   26.9796 S.2     1  UNL1       -0.0780
     18 C           7.6055  -10.0776   27.6521 C.1     1  UNL1       -0.0388
     19 C           7.8824   -8.7646   26.9818 C.1     1  UNL1       -0.0543
     20 C           7.3285  -11.3907   28.3223 C.3     1  UNL1        0.2814
     21 O           6.7498  -12.5279   27.5337 O.3     1  UNL1       -0.4612
     22 C           0.9288  -13.8853   28.0565 C.3     1  UNL1        0.0307
     23 C           2.3841  -13.5460   27.9258 C.ar    1  UNL1       -0.0256
     24 C           3.1378  -13.9392   26.6900 C.ar    1  UNL1       -0.0015
     25 C           4.5931  -13.5999   26.5593 C.ar    1  UNL1        0.0366
     26 C           5.2946  -12.8673   27.6644 C.ar    1  UNL1        0.1397
     27 C           4.5408  -12.4740   28.9002 C.ar    1  UNL1        0.0324
     28 C           3.0855  -12.8133   29.0309 C.ar    1  UNL1       -0.0228
     29 C           2.3318  -12.4201   30.2667 C.3     1  UNL1        0.0308
     30 C           2.4073   -1.0858   19.8865 C.3     1  UNL1        0.0992
     31 N           2.2677    0.4076   19.8914 N.3     1  UNL1       -0.2665
     32 C           1.9449    1.1348   18.6197 C.3     1  UNL1        0.0899
     33 C           1.8053    2.6283   18.6245 C.3     1  UNL1        0.0897
     34 N           1.9884    3.3946   19.9010 N.3     1  UNL1       -0.2691
     35 C           1.8487    4.8881   19.9058 C.3     1  UNL1        0.0897
     36 C           2.3111    2.6674   21.1726 C.3     1  UNL1        0.0897
     37 C           2.4507    1.1739   21.1678 C.3     1  UNL1        0.0899
@<TRIPOS>BOND
     1    22    23    1
     2    23    24   ar
     3    24    25   ar
     4    25    26   ar
     5    26    21    1
     6    21    20    1
     7    20    18    1
     8    18    19    3
     9    19    13    1
    10    13    14   ar
    11    14    15   ar
    12    15     1    1
    13     1     2    2
    14     2     3    1
    15     3     4    2
    16     4     5    1
    17     5     6    1
    18     6     7    1
    19     7     8   ar
    20     8     9   ar
    21     9    30    1
    22    30    31    1
    23    31    32    1
    24    32    33    1
    25    33    34    1
    26    34    35    1
    27    34    36    1
    28    36    37    1
    29     9    10   ar
    30    10    11   ar
    31    11    12   ar
    32    15    16   ar
    33    16    17   ar
    34    26    27   ar
    35    27    28   ar
    36    28    29    1
    37    28    23   ar
    38    17    13   ar
    39     5     1    1
    40    12     7   ar
    41    12     4    1
    42    37    31    1
@<TRIPOS>MOLECULE
*****
 37 42 0 0 0
SMALL
GASTEIGER

@<TRIPOS>ATOM
      1 C           3.8130   -1.4670   22.5130 C.2     1  UNL1        0.0866
      2 N           4.1549   -2.4261   21.4116 N.2     1  UNL1       -0.1523
      3 N           3.5058   -1.9354   20.1514 N.2     1  UNL1       -0.1523
      4 C           2.7626   -0.6729   20.4742 C.2     1  UNL1        0.0858
      5 C           2.9525   -0.3835   21.9337 C.3     1  UNL1        0.0883
      6 C           2.2094    0.8789   22.2563 C.3     1  UNL1        0.0384
      7 C           1.5602    1.3697   20.9963 C.ar    1  UNL1       -0.0205
      8 C           0.7020    2.5659   20.7095 C.ar    1  UNL1       -0.0071
      9 C           0.1856    2.8031   19.3214 C.ar    1  UNL1       -0.0065
     10 C           0.5276    1.8440   18.2199 C.ar    1  UNL1       -0.0029
     11 C           1.3858    0.6477   18.5066 C.ar    1  UNL1        0.0006
     12 C           1.9022    0.4106   19.8948 C.ar    1  UNL1        0.0117
     13 C           4.3139   -1.3720   26.3608 C.ar    1  UNL1        0.0710
     14 C           3.5120   -1.0467   25.1356 C.ar    1  UNL1        0.0165
     15 C           4.2540   -1.5728   23.9428 C.ar    1  UNL1        0.0233
     16 C           5.5145   -2.2232   24.4308 C.ar    1  UNL1        0.0373
     17 S           5.5515   -2.0991   25.9252 S.2     1  UNL1       -0.0780
     18 C           3.5727   -0.6885   29.1863 C.1     1  UNL1       -0.0388
     19 C           3.9433   -1.0303   27.7736 C.1     1  UNL1       -0.0543
     20 C           3.2020   -0.3467   30.5990 C.3     1  UNL1        0.2814
     21 O           1.8347    0.1877   30.9074 O.3     1  UNL1       -0.4612
     22 C          -1.4377    2.7368   26.5723 C.3     1  UNL1        0.0307
     23 C          -0.6196    2.0995   27.6561 C.ar    1  UNL1       -0.0256
     24 C          -0.7799    0.6386   27.9560 C.ar    1  UNL1       -0.0015
     25 C           0.0382    0.0013   29.0398 C.ar    1  UNL1        0.0366
     26 C           1.0166    0.8249   29.8236 C.ar    1  UNL1        0.1397
     27 C           1.1769    2.2859   29.5236 C.ar    1  UNL1        0.0324
     28 C           0.3588    2.9232   28.4399 C.ar    1  UNL1       -0.0228
     29 C           0.5191    4.3841   28.1399 C.3     1  UNL1        0.0308
     30 C          -0.6727    3.9994   19.0346 C.3     1  UNL1        0.0992
     31 N          -2.1649    3.8566   18.9819 N.3     1  UNL1       -0.2665
     32 C          -2.9303    3.5169   20.2265 C.3     1  UNL1        0.0899
     33 C          -4.4225    3.3740   20.1738 C.3     1  UNL1        0.0897
     34 N          -5.1494    3.5708   18.8765 N.3     1  UNL1       -0.2691
     35 C          -6.6417    3.4279   18.8238 C.3     1  UNL1        0.0897
     36 C          -4.3841    3.9105   17.6320 C.3     1  UNL1        0.0897
     37 C          -2.8919    4.0534   17.6847 C.3     1  UNL1        0.0899
@<TRIPOS>BOND
     1    22    23    1
     2    23    24   ar
     3    24    25   ar
     4    25    26   ar
     5    26    21    1
     6    21    20    1
     7    20    18    1
     8    18    19    3
     9    19    13    1
    10    13    14   ar
    11    14    15   ar
    12    15     1    1
    13     1     2    2
    14     2     3    1
    15     3     4    2
    16     4     5    1
    17     5     6    1
    18     6     7    1
    19     7     8   ar
    20     8     9   ar
    21     9    30    1
    22    30    31    1
    23    31    32    1
    24    32    33    1
    25    33    34    1
    26    34    35    1
    27    34    36    1
    28    36    37    1
    29     9    10   ar
    30    10    11   ar
    31    11    12   ar
    32    15    16   ar
    33    16    17   ar
    34    26    27   ar
    35    27    28   ar
    36    28    29    1
    37    28    23   ar
    38    17    13   ar
    39     5     1    1
    40    12     7   ar
    41    12     4    1
    42    37    31    1
@<TRIPOS>MOLECULE
*****
 37 42 0 0 0
SMALL
GASTEIGER

@<TRIPOS>ATOM
      1 C           2.7644   -0.1921   19.4242 C.2     1  UNL1        0.0866
      2 N           2.0609    0.5640   18.3364 N.2     1  UNL1       -0.1523
      3 N           1.0583    1.4759   18.9793 N.2     1  UNL1       -0.1523
      4 C           1.1422    1.2834   20.4646 C.2     1  UNL1        0.0858
      5 C           2.1966    0.2525   20.7395 C.3     1  UNL1        0.0883
      6 C           2.2805    0.0600   22.2247 C.3     1  UNL1        0.0384
      7 C           1.2779    0.9719   22.8677 C.ar    1  UNL1       -0.0205
      8 C           0.9148    1.2114   24.3032 C.ar    1  UNL1       -0.0071
      9 C          -0.1519    2.2070   24.6509 C.ar    1  UNL1       -0.0065
     10 C          -0.8554    2.9631   23.5630 C.ar    1  UNL1       -0.0029
     11 C          -0.4922    2.7236   22.1275 C.ar    1  UNL1        0.0006
     12 C           0.5745    1.7280   21.7799 C.ar    1  UNL1        0.0117
     13 C           5.6433   -2.7837   19.6712 C.ar    1  UNL1        0.0710
     14 C           4.6974   -1.8112   20.3113 C.ar    1  UNL1        0.0165
     15 C           3.8457   -1.2135   19.2308 C.ar    1  UNL1        0.0233
     16 C           4.2653   -1.8165   17.9230 C.ar    1  UNL1        0.0373
     17 S           5.3763   -2.7869   18.1952 S.2     1  UNL1       -0.0780
     18 C           7.7070   -4.4325   21.0935 C.1     1  UNL1       -0.0388
     19 C           6.6752   -3.6081   20.3823 C.1     1  UNL1       -0.0543
     20 C           8.7388   -5.2569   21.8046 C.3     1  UNL1        0.2814
     21 O           8.3253   -6.4794   22.5693 O.3     1  UNL1       -0.4612
     22 C           7.3027   -6.1231   28.4707 C.3     1  UNL1        0.0307
     23 C           7.5584   -6.2122   26.9954 C.ar    1  UNL1       -0.0256
     24 C           7.3953   -4.9971   26.1312 C.ar    1  UNL1       -0.0015
     25 C           7.6509   -5.0861   24.6559 C.ar    1  UNL1        0.0366
     26 C           8.0697   -6.3903   24.0446 C.ar    1  UNL1        0.1397
     27 C           8.2328   -7.6056   24.9088 C.ar    1  UNL1        0.0324
     28 C           7.9772   -7.5165   26.3842 C.ar    1  UNL1       -0.0228
     29 C           8.1403   -8.7316   27.2483 C.3     1  UNL1        0.0308
     30 C          -0.5151    2.4466   26.0864 C.3     1  UNL1        0.0992
     31 N           0.2130    1.7169   27.1761 N.3     1  UNL1       -0.2665
     32 C           1.5783    2.1710   27.6002 C.3     1  UNL1        0.0899
     33 C           2.3064    1.4413   28.6899 C.3     1  UNL1        0.0897
     34 N           1.6692    0.2576   29.3555 N.3     1  UNL1       -0.2691
     35 C           2.3973   -0.4721   30.4451 C.3     1  UNL1        0.0897
     36 C           0.3040   -0.1964   28.9313 C.3     1  UNL1        0.0897
     37 C          -0.4242    0.5333   27.8416 C.3     1  UNL1        0.0899
@<TRIPOS>BOND
     1    22    23    1
     2    23    24   ar
     3    24    25   ar
     4    25    26   ar
     5    26    21    1
     6    21    20    1
     7    20    18    1
     8    18    19    3
     9    19    13    1
    10    13    14   ar
    11    14    15   ar
    12    15     1    1
    13     1     2    2
    14     2     3    1
    15     3     4    2
    16     4     5    1
    17     5     6    1
    18     6     7    1
    19     7     8   ar
    20     8     9   ar
    21     9    30    1
    22    30    31    1
    23    31    32    1
    24    32    33    1
    25    33    34    1
    26    34    35    1
    27    34    36    1
    28    36    37    1
    29     9    10   ar
    30    10    11   ar
    31    11    12   ar
    32    15    16   ar
    33    16    17   ar
    34    26    27   ar
    35    27    28   ar
    36    28    29    1
    37    28    23   ar
    38    17    13   ar
    39     5     1    1
    40    12     7   ar
    41    12     4    1
    42    37    31    1
@<TRIPOS>MOLECULE
*****
 37 42 0 0 0
SMALL
GASTEIGER

@<TRIPOS>ATOM
      1 C           4.3025   -1.7063   19.2225 C.2     1  UNL1        0.0866
      2 N           5.0774   -1.9299   17.9578 N.2     1  UNL1       -0.1523
      3 N           6.2547   -2.8007   18.2833 N.2     1  UNL1       -0.1523
      4 C           6.2073   -3.1152   19.7493 C.2     1  UNL1        0.0858
      5 C           5.0008   -2.4388   20.3297 C.3     1  UNL1        0.0883
      6 C           4.9534   -2.7534   21.7955 C.3     1  UNL1        0.0384
      7 C           6.1307   -3.6241   22.1211 C.ar    1  UNL1       -0.0205
      8 C           6.5971   -4.2422   23.4057 C.ar    1  UNL1       -0.0071
      9 C           7.8385   -5.0839   23.4257 C.ar    1  UNL1       -0.0065
     10 C           8.6134   -5.3076   22.1610 C.ar    1  UNL1       -0.0029
     11 C           8.1470   -4.6894   20.8763 C.ar    1  UNL1        0.0006
     12 C           6.9056   -3.8477   20.8564 C.ar    1  UNL1        0.0117
     13 C           1.3279    0.7747   18.9742 C.ar    1  UNL1        0.0710
     14 C           2.6478    0.2584   18.4829 C.ar    1  UNL1        0.0165
     15 C           3.0493   -0.8930   19.3566 C.ar    1  UNL1        0.0233
     16 C           1.9775   -1.0882   20.3877 C.ar    1  UNL1        0.0373
     17 S           0.9137   -0.0575   20.1514 S.2     1  UNL1       -0.0780
     18 C          -0.2129    3.0691   17.8071 C.1     1  UNL1       -0.0388
     19 C           0.5575    1.9219   18.3906 C.1     1  UNL1       -0.0543
     20 C          -0.9833    4.2162   17.2235 C.3     1  UNL1        0.2814
     21 O          -1.7444    5.1438   18.1239 O.3     1  UNL1       -0.4612
     22 C          -4.9931    2.9301   22.6565 C.3     1  UNL1        0.0307
     23 C          -4.1809    3.4835   21.5234 C.ar    1  UNL1       -0.0256
     24 C          -4.7365    3.4788   20.1301 C.ar    1  UNL1       -0.0015
     25 C          -3.9243    4.0322   18.9969 C.ar    1  UNL1        0.0366
     26 C          -2.5566    4.5903   19.2570 C.ar    1  UNL1        0.1397
     27 C          -2.0009    4.5951   20.6504 C.ar    1  UNL1        0.0324
     28 C          -2.8131    4.0416   21.7835 C.ar    1  UNL1       -0.0228
     29 C          -2.2575    4.0463   23.1768 C.3     1  UNL1        0.0308
     30 C           8.3050   -5.7021   24.7103 C.3     1  UNL1        0.0992
     31 N           7.8635   -5.1266   26.0233 N.3     1  UNL1       -0.2665
     32 C           6.7491   -5.7753   26.7898 C.3     1  UNL1        0.0899
     33 C           6.3076   -5.1998   28.1028 C.3     1  UNL1        0.0897
     34 N           6.9805   -3.9755   28.6492 N.3     1  UNL1       -0.2691
     35 C           6.5390   -3.4000   29.9622 C.3     1  UNL1        0.0897
     36 C           8.0947   -3.3269   27.8827 C.3     1  UNL1        0.0897
     37 C           8.5362   -3.9024   26.5698 C.3     1  UNL1        0.0899
@<TRIPOS>BOND
     1    22    23    1
     2    23    24   ar
     3    24    25   ar
     4    25    26   ar
     5    26    21    1
     6    21    20    1
     7    20    18    1
     8    18    19    3
     9    19    13    1
    10    13    14   ar
    11    14    15   ar
    12    15     1    1
    13     1     2    2
    14     2     3    1
    15     3     4    2
    16     4     5    1
    17     5     6    1
    18     6     7    1
    19     7     8   ar
    20     8     9   ar
    21     9    30    1
    22    30    31    1
    23    31    32    1
    24    32    33    1
    25    33    34    1
    26    34    35    1
    27    34    36    1
    28    36    37    1
    29     9    10   ar
    30    10    11   ar
    31    11    12   ar
    32    15    16   ar
    33    16    17   ar
    34    26    27   ar
    35    27    28   ar
    36    28    29    1
    37    28    23   ar
    38    17    13   ar
    39     5     1    1
    40    12     7   ar
    41    12     4    1
    42    37    31    1
@<TRIPOS>MOLECULE
*****
 37 42 0 0 0
SMALL
GASTEIGER

@<TRIPOS>ATOM
      1 C           3.6829   -2.2532   20.3353 C.2     1  UNL1        0.0866
      2 N           3.7912   -3.5956   19.6749 N.2     1  UNL1       -0.1523
      3 N           4.7208   -4.4415   20.4936 N.2     1  UNL1       -0.1523
      4 C           5.1871   -3.6218   21.6602 C.2     1  UNL1        0.0858
      5 C           4.5456   -2.2694   21.5623 C.3     1  UNL1        0.0883
      6 C           5.0119   -1.4497   22.7289 C.3     1  UNL1        0.0384
      7 C           5.9415   -2.2956   23.5477 C.ar    1  UNL1       -0.0205
      8 C           6.7034   -2.0168   24.8093 C.ar    1  UNL1       -0.0071
      9 C           7.5735   -3.0805   25.4105 C.ar    1  UNL1       -0.0065
     10 C           7.6817   -4.4229   24.7500 C.ar    1  UNL1       -0.0029
     11 C           6.9199   -4.7016   23.4884 C.ar    1  UNL1        0.0006
     12 C           6.0498   -3.6380   22.8872 C.ar    1  UNL1        0.0117
     13 C           1.1785    0.6520   19.7409 C.ar    1  UNL1        0.0710
     14 C           1.7122   -0.4651   20.5880 C.ar    1  UNL1        0.0165
     15 C           2.8570   -1.0975   19.8535 C.ar    1  UNL1        0.0233
     16 C           3.0309   -0.3713   18.5525 C.ar    1  UNL1        0.0373
     17 S           1.9935    0.7099   18.4830 S.2     1  UNL1       -0.0780
     18 C          -1.1160    2.4538   20.4401 C.1     1  UNL1       -0.0388
     19 C           0.0312    1.5529   20.0905 C.1     1  UNL1       -0.0543
     20 C          -2.2633    3.3547   20.7896 C.3     1  UNL1        0.2814
     21 O          -3.6566    2.8031   20.8564 O.3     1  UNL1       -0.4612
     22 C          -7.7242    5.3557   24.4536 C.3     1  UNL1        0.0307
     23 C          -6.7073    4.7176   23.5543 C.ar    1  UNL1       -0.0256
     24 C          -6.9280    4.6935   22.0709 C.ar    1  UNL1       -0.0015
     25 C          -5.9111    4.0553   21.1716 C.ar    1  UNL1        0.0366
     26 C          -4.6735    3.4413   21.7557 C.ar    1  UNL1        0.1397
     27 C          -4.4527    3.4654   23.2393 C.ar    1  UNL1        0.0324
     28 C          -5.4696    4.1035   24.1385 C.ar    1  UNL1       -0.0228
     29 C          -5.2489    4.1276   25.6220 C.3     1  UNL1        0.0308
     30 C           8.3354   -2.8018   26.6722 C.3     1  UNL1        0.0992
     31 N           8.0182   -3.5649   27.9240 N.3     1  UNL1       -0.2665
     32 C           7.0218   -3.0186   28.9032 C.3     1  UNL1        0.0899
     33 C           6.7045   -3.7818   30.1550 C.3     1  UNL1        0.0897
     34 N           7.3837   -5.0912   30.4276 N.3     1  UNL1       -0.2691
     35 C           7.0665   -5.8543   31.6794 C.3     1  UNL1        0.0897
     36 C           8.3801   -5.6374   29.4484 C.3     1  UNL1        0.0897
     37 C           8.6973   -4.8742   28.1966 C.3     1  UNL1        0.0899
@<TRIPOS>BOND
     1    22    23    1
     2    23    24   ar
     3    24    25   ar
     4    25    26   ar
     5    26    21    1
     6    21    20    1
     7    20    18    1
     8    18    19    3
     9    19    13    1
    10    13    14   ar
    11    14    15   ar
    12    15     1    1
    13     1     2    2
    14     2     3    1
    15     3     4    2
    16     4     5    1
    17     5     6    1
    18     6     7    1
    19     7     8   ar
    20     8     9   ar
    21     9    30    1
    22    30    31    1
    23    31    32    1
    24    32    33    1
    25    33    34    1
    26    34    35    1
    27    34    36    1
    28    36    37    1
    29     9    10   ar
    30    10    11   ar
    31    11    12   ar
    32    15    16   ar
    33    16    17   ar
    34    26    27   ar
    35    27    28   ar
    36    28    29    1
    37    28    23   ar
    38    17    13   ar
    39     5     1    1
    40    12     7   ar
    41    12     4    1
    42    37    31    1
@<TRIPOS>MOLECULE
*****
 37 42 0 0 0
SMALL
GASTEIGER

@<TRIPOS>ATOM
      1 C           3.7328   -1.6978   22.1974 C.2     1  UNL1        0.0866
      2 N           4.0568   -1.9740   23.6357 N.2     1  UNL1       -0.1523
      3 N           3.2820   -1.0059   24.4797 N.2     1  UNL1       -0.1523
      4 C           2.4790   -0.1312   23.5630 C.2     1  UNL1        0.0858
      5 C           2.7576   -0.5588   22.1525 C.3     1  UNL1        0.0883
      6 C           1.9547    0.3158   21.2359 C.3     1  UNL1        0.0384
      7 C           1.1799    1.2840   22.0798 C.ar    1  UNL1       -0.0205
      8 C           0.2211    2.3815   21.7245 C.ar    1  UNL1       -0.0071
      9 C          -0.4136    3.2026   22.8074 C.ar    1  UNL1       -0.0065
     10 C          -0.0895    2.9263   24.2457 C.ar    1  UNL1       -0.0029
     11 C           0.8692    1.8289   24.6010 C.ar    1  UNL1        0.0006
     12 C           1.5039    1.0077   23.5181 C.ar    1  UNL1        0.0117
     13 C           4.9650   -4.2147   19.5118 C.ar    1  UNL1        0.0710
     14 C           4.3309   -3.9209   20.8391 C.ar    1  UNL1        0.0165
     15 C           4.2866   -2.4315   21.0121 C.ar    1  UNL1        0.0233
     16 C           4.8932   -1.8048   19.7918 C.ar    1  UNL1        0.0373
     17 S           5.3125   -2.9069   18.8646 S.2     1  UNL1       -0.0780
     18 C           5.4524   -6.9393   18.3549 C.1     1  UNL1       -0.0388
     19 C           5.2087   -5.5770   18.9334 C.1     1  UNL1       -0.0543
     20 C           5.6962   -8.3017   17.7765 C.3     1  UNL1        0.2814
     21 O           6.4480   -9.3296   18.5692 O.3     1  UNL1       -0.4612
     22 C           4.9007  -15.1155   18.2109 C.3     1  UNL1        0.0307
     23 C           5.2875  -13.6691   18.3004 C.ar    1  UNL1       -0.0256
     24 C           6.3984  -13.2450   19.2148 C.ar    1  UNL1       -0.0015
     25 C           6.7852  -11.7985   19.3043 C.ar    1  UNL1        0.0366
     26 C           6.0611  -10.7761   18.4796 C.ar    1  UNL1        0.1397
     27 C           4.9502  -11.2001   17.5652 C.ar    1  UNL1        0.0324
     28 C           4.5633  -12.6466   17.4756 C.ar    1  UNL1       -0.0228
     29 C           3.4524  -13.0706   16.5613 C.3     1  UNL1        0.0308
     30 C          -1.3724    4.3002   22.4521 C.3     1  UNL1        0.0992
     31 N          -2.5494    4.0109   21.5683 N.3     1  UNL1       -0.2665
     32 C          -2.4448    4.2222   20.0869 C.3     1  UNL1        0.0899
     33 C          -3.6218    3.9329   19.2032 C.3     1  UNL1        0.0897
     34 N          -4.9033    3.4323   19.8008 N.3     1  UNL1       -0.2691
     35 C          -6.0803    3.1430   18.9171 C.3     1  UNL1        0.0897
     36 C          -5.0079    3.2210   21.2822 C.3     1  UNL1        0.0897
     37 C          -3.8309    3.5103   22.1659 C.3     1  UNL1        0.0899
@<TRIPOS>BOND
     1    22    23    1
     2    23    24   ar
     3    24    25   ar
     4    25    26   ar
     5    26    21    1
     6    21    20    1
     7    20    18    1
     8    18    19    3
     9    19    13    1
    10    13    14   ar
    11    14    15   ar
    12    15     1    1
    13     1     2    2
    14     2     3    1
    15     3     4    2
    16     4     5    1
    17     5     6    1
    18     6     7    1
    19     7     8   ar
    20     8     9   ar
    21     9    30    1
    22    30    31    1
    23    31    32    1
    24    32    33    1
    25    33    34    1
    26    34    35    1
    27    34    36    1
    28    36    37    1
    29     9    10   ar
    30    10    11   ar
    31    11    12   ar
    32    15    16   ar
    33    16    17   ar
    34    26    27   ar
    35    27    28   ar
    36    28    29    1
    37    28    23   ar
    38    17    13   ar
    39     5     1    1
    40    12     7   ar
    41    12     4    1
    42    37    31    1
@<TRIPOS>MOLECULE
*****
 37 42 0 0 0
SMALL
GASTEIGER

@<TRIPOS>ATOM
      1 C           7.4091   -5.4403   27.7815 C.2     1  UNL1        0.0866
      2 N           7.7435   -6.5677   28.7128 N.2     1  UNL1       -0.1523
      3 N           7.4729   -6.1070   30.1144 N.2     1  UNL1       -0.1523
      4 C           6.9714   -4.6947   30.0494 C.2     1  UNL1        0.0858
      5 C           6.9320   -4.2828   28.6076 C.3     1  UNL1        0.0883
      6 C           6.4305   -2.8706   28.5427 C.3     1  UNL1        0.0384
      7 C           6.1600   -2.4098   29.9442 C.ar    1  UNL1       -0.0205
      8 C           5.6524   -1.1093   30.4929 C.ar    1  UNL1       -0.0071
      9 C           5.4792   -0.9362   31.9727 C.ar    1  UNL1       -0.0065
     10 C           5.8135   -2.0636   32.9039 C.ar    1  UNL1       -0.0029
     11 C           6.3210   -3.3641   32.3553 C.ar    1  UNL1        0.0006
     12 C           6.4943   -3.5372   30.8755 C.ar    1  UNL1        0.0117
     13 C           7.2832   -4.8956   23.9406 C.ar    1  UNL1        0.0710
     14 C           6.8992   -4.4944   25.3340 C.ar    1  UNL1        0.0165
     15 C           7.5306   -5.4660   26.2867 C.ar    1  UNL1        0.0233
     16 C           8.3048   -6.4676   25.4820 C.ar    1  UNL1        0.0373
     17 S           8.1519   -6.1150   24.0321 S.2     1  UNL1       -0.0780
     18 C           6.4586   -3.5035   21.4143 C.1     1  UNL1       -0.0388
     19 C           6.8709   -4.1995   22.6774 C.1     1  UNL1       -0.0543
     20 C           6.0463   -2.8074   20.1512 C.3     1  UNL1        0.2814
     21 O           4.6872   -3.0560   19.5672 O.3     1  UNL1       -0.4612
     22 C           1.0569    1.5620   18.3445 C.3     1  UNL1        0.0307
     23 C           1.9644    0.4075   18.6501 C.ar    1  UNL1       -0.0256
     24 C           3.1349    0.1170   17.7583 C.ar    1  UNL1       -0.0015
     25 C           4.0425   -1.0375   18.0639 C.ar    1  UNL1        0.0366
     26 C           3.7796   -1.9015   19.2615 C.ar    1  UNL1        0.1397
     27 C           2.6090   -1.6111   20.1535 C.ar    1  UNL1        0.0324
     28 C           1.7014   -0.4566   19.8478 C.ar    1  UNL1       -0.0228
     29 C           0.5309   -0.1662   20.7397 C.3     1  UNL1        0.0308
     30 C           4.9716    0.3644   32.5214 C.3     1  UNL1        0.0992
     31 N           5.3391    0.7856   33.9133 N.3     1  UNL1       -0.2665
     32 C           4.3202    0.7149   35.0120 C.3     1  UNL1        0.0899
     33 C           4.6878    1.1362   36.4039 C.3     1  UNL1        0.0897
     34 N           6.0742    1.6281   36.6972 N.3     1  UNL1       -0.2691
     35 C           6.4418    2.0493   38.0891 C.3     1  UNL1        0.0897
     36 C           7.0930    1.6987   35.5986 C.3     1  UNL1        0.0897
     37 C           6.7255    1.2775   34.2066 C.3     1  UNL1        0.0899
@<TRIPOS>BOND
     1    22    23    1
     2    23    24   ar
     3    24    25   ar
     4    25    26   ar
     5    26    21    1
     6    21    20    1
     7    20    18    1
     8    18    19    3
     9    19    13    1
    10    13    14   ar
    11    14    15   ar
    12    15     1    1
    13     1     2    2
    14     2     3    1
    15     3     4    2
    16     4     5    1
    17     5     6    1
    18     6     7    1
    19     7     8   ar
    20     8     9   ar
    21     9    30    1
    22    30    31    1
    23    31    32    1
    24    32    33    1
    25    33    34    1
    26    34    35    1
    27    34    36    1
    28    36    37    1
    29     9    10   ar
    30    10    11   ar
    31    11    12   ar
    32    15    16   ar
    33    16    17   ar
    34    26    27   ar
    35    27    28   ar
    36    28    29    1
    37    28    23   ar
    38    17    13   ar
    39     5     1    1
    40    12     7   ar
    41    12     4    1
    42    37    31    1
@<TRIPOS>MOLECULE
*****
 37 42 0 0 0
SMALL
GASTEIGER

@<TRIPOS>ATOM
      1 C           1.0997    1.2751   29.5895 C.2     1  UNL1        0.0866
      2 N           0.4649    1.8522   30.8199 N.2     1  UNL1       -0.1523
      3 N           1.2771    1.4226   32.0056 N.2     1  UNL1       -0.1523
      4 C           2.4139    0.5799   31.5079 C.2     1  UNL1        0.0858
      5 C           2.3042    0.4888   30.0147 C.3     1  UNL1        0.0883
      6 C           3.4410   -0.3538   29.5170 C.3     1  UNL1        0.0384
      7 C           4.2533   -0.7835   30.7026 C.ar    1  UNL1       -0.0205
      8 C           5.4889   -1.6256   30.8207 C.ar    1  UNL1       -0.0071
      9 C           6.0897   -1.8906   32.1693 C.ar    1  UNL1       -0.0065
     10 C           5.4549   -1.3135   33.3998 C.ar    1  UNL1       -0.0029
     11 C           4.2193   -0.4714   33.2816 C.ar    1  UNL1        0.0006
     12 C           3.6185   -0.2064   31.9331 C.ar    1  UNL1        0.0117
     13 C           0.5098    1.4337   25.7564 C.ar    1  UNL1        0.0710
     14 C           1.3667    1.0833   26.9368 C.ar    1  UNL1        0.0165
     15 C           0.6150    1.4530   28.1811 C.ar    1  UNL1        0.0233
     16 C          -0.7063    2.0318   27.7699 C.ar    1  UNL1        0.0373
     17 S          -0.7713    2.0199   26.2713 S.2     1  UNL1       -0.0780
     18 C           1.2318    1.0325   22.8723 C.1     1  UNL1       -0.0388
     19 C           0.8708    1.2331   24.3144 C.1     1  UNL1       -0.0543
     20 C           1.5927    0.8319   21.4303 C.3     1  UNL1        0.2814
     21 O           1.5947   -0.5482   20.8426 O.3     1  UNL1       -0.4612
     22 C           6.6232   -3.8211   20.8884 C.3     1  UNL1        0.0307
     23 C           5.3661   -3.0029   20.8770 C.ar    1  UNL1       -0.0256
     24 C           4.7698   -2.5260   22.1681 C.ar    1  UNL1       -0.0015
     25 C           3.5127   -1.7078   22.1566 C.ar    1  UNL1        0.0366
     26 C           2.8518   -1.3665   20.8541 C.ar    1  UNL1        0.1397
     27 C           3.4481   -1.8433   19.5629 C.ar    1  UNL1        0.0324
     28 C           4.7053   -2.6615   19.5743 C.ar    1  UNL1       -0.0228
     29 C           5.3016   -3.1383   18.2832 C.3     1  UNL1        0.0308
     30 C           7.3254   -2.7328   32.2875 C.3     1  UNL1        0.0992
     31 N           7.6887   -3.6896   31.1909 N.3     1  UNL1       -0.2665
     32 C           6.9649   -4.9976   31.0665 C.3     1  UNL1        0.0899
     33 C           7.3281   -5.9544   29.9698 C.3     1  UNL1        0.0897
     34 N           8.4151   -5.6031   28.9976 N.3     1  UNL1       -0.2691
     35 C           8.7784   -6.5599   27.9009 C.3     1  UNL1        0.0897
     36 C           9.1388   -4.2952   29.1220 C.3     1  UNL1        0.0897
     37 C           8.7756   -3.3384   30.2187 C.3     1  UNL1        0.0899
@<TRIPOS>BOND
     1    22    23    1
     2    23    24   ar
     3    24    25   ar
     4    25    26   ar
     5    26    21    1
     6    21    20    1
     7    20    18    1
     8    18    19    3
     9    19    13    1
    10    13    14   ar
    11    14    15   ar
    12    15     1    1
    13     1     2    2
    14     2     3    1
    15     3     4    2
    16     4     5    1
    17     5     6    1
    18     6     7    1
    19     7     8   ar
    20     8     9   ar
    21     9    30    1
    22    30    31    1
    23    31    32    1
    24    32    33    1
    25    33    34    1
    26    34    35    1
    27    34    36    1
    28    36    37    1
    29     9    10   ar
    30    10    11   ar
    31    11    12   ar
    32    15    16   ar
    33    16    17   ar
    34    26    27   ar
    35    27    28   ar
    36    28    29    1
    37    28    23   ar
    38    17    13   ar
    39     5     1    1
    40    12     7   ar
    41    12     4    1
    42    37    31    1
