@<TRIPOS>MOLECULE
*****
 22 24 0 0 0
SMALL
GASTEIGER

@<TRIPOS>ATOM
      1 C          -2.4859  -19.6816   21.6310 C.3     1  UNL1        0.0310
      2 C          -3.9160  -19.2444   21.7489 C.ar    1  UNL1       -0.0222
      3 C          -4.2830  -18.1206   22.6721 C.ar    1  UNL1       -0.0043
      4 C          -5.7130  -17.6834   22.7900 C.ar    1  UNL1       -0.0009
      5 C          -6.7760  -18.3699   21.9845 C.ar    1  UNL1       -0.0079
      6 C          -6.4090  -19.4936   21.0613 C.ar    1  UNL1       -0.0187
      7 C          -4.9789  -19.9309   20.9435 C.ar    1  UNL1       -0.0082
      8 C          -7.6645  -19.9778   20.3984 C.3     1  UNL1        0.0480
      9 C          -8.8074  -19.1533   20.9120 C.2     1  UNL1       -0.0420
     10 C          -8.2583  -18.1596   21.8923 C.2     1  UNL1       -0.0240
     11 C         -10.2468  -19.2972   20.5150 C.3     1  UNL1        0.0394
     12 C         -10.8787  -18.2855   19.6055 C.3     1  UNL1        0.0765
     13 N         -11.7569  -17.2107   20.1743 N.3     1  UNL1       -0.2700
     14 C         -11.7669  -15.8445   19.5551 C.3     1  UNL1        0.0897
     15 C         -12.6251  -17.5022   21.3622 C.3     1  UNL1        0.0897
     16 C          -9.0521  -17.1353   22.6477 C.3     1  UNL1        0.0730
     17 C          -8.8461  -16.9659   24.1238 C.ar    1  UNL1        0.0825
     18 C          -9.3727  -17.9967   25.0777 C.ar    1  UNL1        0.1139
     19 N          -9.1667  -17.8274   26.5538 N.ar    1  UNL1       -0.2394
     20 C          -8.4340  -16.6272   27.0760 C.ar    1  UNL1        0.1195
     21 C          -7.9074  -15.5963   26.1221 C.ar    1  UNL1        0.1191
     22 N          -8.1134  -15.7657   24.6460 N.ar    1  UNL1       -0.2446
@<TRIPOS>BOND
     1     1     2    1
     2     2     3   ar
     3     3     4   ar
     4     4     5   ar
     5     5     6   ar
     6     6     7   ar
     7     6     8    1
     8     8     9    1
     9     9    11    1
    10    11    12    1
    11    12    13    1
    12    13    14    1
    13    13    15    1
    14     9    10    2
    15    10    16    1
    16    16    17    1
    17    17    18   ar
    18    18    19   ar
    19    19    20   ar
    20    20    21   ar
    21    21    22   ar
    22     7     2   ar
    23    22    17   ar
    24    10     5    1
@<TRIPOS>MOLECULE
*****
 22 24 0 0 0
SMALL
GASTEIGER

@<TRIPOS>ATOM
      1 C         -11.7373  -18.4874   20.4903 C.3     1  UNL1        0.0310
      2 C         -10.2611  -18.7514   20.5237 C.ar    1  UNL1       -0.0222
      3 C          -9.5858  -19.3863   19.3443 C.ar    1  UNL1       -0.0043
      4 C          -8.1096  -19.6503   19.3777 C.ar    1  UNL1       -0.0009
      5 C          -7.3087  -19.2795   20.5905 C.ar    1  UNL1       -0.0079
      6 C          -7.9840  -18.6446   21.7699 C.ar    1  UNL1       -0.0187
      7 C          -9.4602  -18.3806   21.7365 C.ar    1  UNL1       -0.0082
      8 C          -6.9423  -18.3898   22.8188 C.3     1  UNL1        0.0480
      9 C          -5.6232  -18.8671   22.2875 C.2     1  UNL1       -0.0420
     10 C          -5.8497  -19.4170   20.9104 C.2     1  UNL1       -0.0240
     11 C          -4.3084  -18.8054   23.0071 C.3     1  UNL1        0.0394
     12 C          -3.9288  -17.5717   23.7711 C.3     1  UNL1        0.0765
     13 N          -3.8170  -16.2549   23.0617 N.3     1  UNL1       -0.2700
     14 C          -2.6975  -16.0181   22.0918 C.3     1  UNL1        0.0897
     15 C          -4.8247  -15.1748   23.3221 C.3     1  UNL1        0.0897
     16 C          -4.8012  -20.0017   20.0111 C.3     1  UNL1        0.0730
     17 C          -3.4989  -19.2845   19.8122 C.ar    1  UNL1        0.0825
     18 C          -2.2617  -19.7695   20.5080 C.ar    1  UNL1        0.1139
     19 N          -0.9593  -19.0524   20.3091 N.ar    1  UNL1       -0.2394
     20 C          -0.8941  -17.8502   19.4144 C.ar    1  UNL1        0.1195
     21 C          -2.1313  -17.3651   18.7186 C.ar    1  UNL1        0.1191
     22 N          -3.4337  -18.0823   18.9175 N.ar    1  UNL1       -0.2446
@<TRIPOS>BOND
     1     1     2    1
     2     2     3   ar
     3     3     4   ar
     4     4     5   ar
     5     5     6   ar
     6     6     7   ar
     7     6     8    1
     8     8     9    1
     9     9    11    1
    10    11    12    1
    11    12    13    1
    12    13    14    1
    13    13    15    1
    14     9    10    2
    15    10    16    1
    16    16    17    1
    17    17    18   ar
    18    18    19   ar
    19    19    20   ar
    20    20    21   ar
    21    21    22   ar
    22     7     2   ar
    23    22    17   ar
    24    10     5    1
@<TRIPOS>MOLECULE
*****
 22 24 0 0 0
SMALL
GASTEIGER

@<TRIPOS>ATOM
      1 C          -9.6387  -20.0411   19.0114 C.3     1  UNL1        0.0310
      2 C          -8.4851  -19.6445   19.8842 C.ar    1  UNL1       -0.0222
      3 C          -7.1870  -20.3909   19.7966 C.ar    1  UNL1       -0.0043
      4 C          -6.0334  -19.9942   20.6695 C.ar    1  UNL1       -0.0009
      5 C          -6.1779  -18.8512   21.6299 C.ar    1  UNL1       -0.0079
      6 C          -7.4760  -18.1047   21.7175 C.ar    1  UNL1       -0.0187
      7 C          -8.6296  -18.5014   20.8446 C.ar    1  UNL1       -0.0082
      8 C          -7.3231  -17.0285   22.7512 C.3     1  UNL1        0.0480
      9 C          -5.9305  -17.1099   23.3025 C.2     1  UNL1       -0.0420
     10 C          -5.2227  -18.2363   22.6094 C.2     1  UNL1       -0.0240
     11 C          -5.3478  -16.2209   24.3609 C.3     1  UNL1        0.0394
     12 C          -6.1852  -15.1391   24.9761 C.3     1  UNL1        0.0765
     13 N          -7.2128  -15.4841   26.0129 N.3     1  UNL1       -0.2700
     14 C          -8.6705  -15.4637   25.6601 C.3     1  UNL1        0.0897
     15 C          -6.7825  -15.8496   27.4026 C.3     1  UNL1        0.0897
     16 C          -3.8081  -18.6715   22.8532 C.3     1  UNL1        0.0730
     17 C          -2.7354  -18.3238   21.8640 C.ar    1  UNL1        0.0825
     18 C          -2.0542  -19.4090   21.0840 C.ar    1  UNL1        0.1139
     19 N          -0.9815  -19.0613   20.0948 N.ar    1  UNL1       -0.2394
     20 C          -0.5900  -17.6285   19.8857 C.ar    1  UNL1        0.1195
     21 C          -1.2711  -16.5434   20.6658 C.ar    1  UNL1        0.1191
     22 N          -2.3438  -16.8910   21.6549 N.ar    1  UNL1       -0.2446
@<TRIPOS>BOND
     1     1     2    1
     2     2     3   ar
     3     3     4   ar
     4     4     5   ar
     5     5     6   ar
     6     6     7   ar
     7     6     8    1
     8     8     9    1
     9     9    11    1
    10    11    12    1
    11    12    13    1
    12    13    14    1
    13    13    15    1
    14     9    10    2
    15    10    16    1
    16    16    17    1
    17    17    18   ar
    18    18    19   ar
    19    19    20   ar
    20    20    21   ar
    21    21    22   ar
    22     7     2   ar
    23    22    17   ar
    24    10     5    1
@<TRIPOS>MOLECULE
*****
 22 24 0 0 0
SMALL
GASTEIGER

@<TRIPOS>ATOM
      1 C          -2.4386  -18.0377   23.2489 C.3     1  UNL1        0.0310
      2 C          -3.9207  -17.8670   23.0933 C.ar    1  UNL1       -0.0222
      3 C          -4.5875  -16.6167   23.5853 C.ar    1  UNL1       -0.0043
      4 C          -6.0696  -16.4461   23.4297 C.ar    1  UNL1       -0.0009
      5 C          -6.8849  -17.5257   22.7821 C.ar    1  UNL1       -0.0079
      6 C          -6.2182  -18.7760   22.2900 C.ar    1  UNL1       -0.0187
      7 C          -4.7361  -18.9467   22.4456 C.ar    1  UNL1       -0.0082
      8 C          -7.2737  -19.6616   21.6969 C.3     1  UNL1        0.0480
      9 C          -8.5928  -18.9586   21.8223 C.2     1  UNL1       -0.0420
     10 C          -8.3525  -17.6385   22.4930 C.2     1  UNL1       -0.0240
     11 C          -9.9193  -19.4834   21.3586 C.3     1  UNL1        0.0394
     12 C         -10.9005  -20.0268   22.3545 C.3     1  UNL1        0.0765
     13 N         -10.5732  -20.0057   23.8181 N.3     1  UNL1       -0.2700
     14 C         -11.2802  -19.0481   24.7310 C.3     1  UNL1        0.0897
     15 C          -9.5390  -20.9421   24.3689 C.3     1  UNL1        0.0897
     16 C          -9.3965  -16.6116   22.8177 C.3     1  UNL1        0.0730
     17 C         -10.5198  -16.3545   21.8575 C.ar    1  UNL1        0.0825
     18 C         -11.9414  -16.5377   22.2999 C.ar    1  UNL1        0.1139
     19 N         -13.0647  -16.2806   21.3397 N.ar    1  UNL1       -0.2394
     20 C         -12.7666  -15.8404   19.9371 C.ar    1  UNL1        0.1195
     21 C         -11.3451  -15.6573   19.4947 C.ar    1  UNL1        0.1191
     22 N         -10.2217  -15.9143   20.4549 N.ar    1  UNL1       -0.2446
@<TRIPOS>BOND
     1     1     2    1
     2     2     3   ar
     3     3     4   ar
     4     4     5   ar
     5     5     6   ar
     6     6     7   ar
     7     6     8    1
     8     8     9    1
     9     9    11    1
    10    11    12    1
    11    12    13    1
    12    13    14    1
    13    13    15    1
    14     9    10    2
    15    10    16    1
    16    16    17    1
    17    17    18   ar
    18    18    19   ar
    19    19    20   ar
    20    20    21   ar
    21    21    22   ar
    22     7     2   ar
    23    22    17   ar
    24    10     5    1
@<TRIPOS>MOLECULE
*****
 22 24 0 0 0
SMALL
GASTEIGER

@<TRIPOS>ATOM
      1 C          -5.6799  -14.7057   26.2834 C.3     1  UNL1        0.0310
      2 C          -5.8725  -15.6544   25.1375 C.ar    1  UNL1       -0.0222
      3 C          -7.2209  -15.7903   24.4948 C.ar    1  UNL1       -0.0043
      4 C          -7.4135  -16.7390   23.3490 C.ar    1  UNL1       -0.0009
      5 C          -6.2575  -17.5517   22.8458 C.ar    1  UNL1       -0.0079
      6 C          -4.9090  -17.4158   23.4885 C.ar    1  UNL1       -0.0187
      7 C          -4.7165  -16.4671   24.6344 C.ar    1  UNL1       -0.0082
      8 C          -3.9632  -18.3410   22.7817 C.3     1  UNL1        0.0480
      9 C          -4.7272  -19.0487   21.7022 C.2     1  UNL1       -0.0420
     10 C          -6.1452  -18.5609   21.7418 C.2     1  UNL1       -0.0240
     11 C          -4.1710  -20.0657   20.7501 C.3     1  UNL1        0.0394
     12 C          -3.5710  -19.6247   19.4479 C.3     1  UNL1        0.0765
     13 N          -2.5549  -18.5215   19.4257 N.3     1  UNL1       -0.2700
     14 C          -1.2792  -18.6612   20.2024 C.3     1  UNL1        0.0897
     15 C          -2.8144  -17.2788   18.6270 C.3     1  UNL1        0.0897
     16 C          -7.2558  -19.0044   20.8364 C.3     1  UNL1        0.0730
     17 C          -8.6828  -18.8711   21.2790 C.ar    1  UNL1        0.0825
     18 C          -9.2051  -19.7268   22.3947 C.ar    1  UNL1        0.1139
     19 N         -10.6321  -19.5934   22.8373 N.ar    1  UNL1       -0.2394
     20 C         -11.5368  -18.6044   22.1641 C.ar    1  UNL1        0.1195
     21 C         -11.0145  -17.7487   21.0483 C.ar    1  UNL1        0.1191
     22 N          -9.5875  -17.8821   20.6057 N.ar    1  UNL1       -0.2446
@<TRIPOS>BOND
     1     1     2    1
     2     2     3   ar
     3     3     4   ar
     4     4     5   ar
     5     5     6   ar
     6     6     7   ar
     7     6     8    1
     8     8     9    1
     9     9    11    1
    10    11    12    1
    11    12    13    1
    12    13    14    1
    13    13    15    1
    14     9    10    2
    15    10    16    1
    16    16    17    1
    17    17    18   ar
    18    18    19   ar
    19    19    20   ar
    20    20    21   ar
    21    21    22   ar
    22     7     2   ar
    23    22    17   ar
    24    10     5    1
@<TRIPOS>MOLECULE
*****
 22 24 0 0 0
SMALL
GASTEIGER

@<TRIPOS>ATOM
      1 C         -12.6194  -16.2455   19.6033 C.3     1  UNL1        0.0310
      2 C         -11.3595  -16.7541   20.2390 C.ar    1  UNL1       -0.0222
      3 C         -10.9076  -18.1619   19.9868 C.ar    1  UNL1       -0.0043
      4 C          -9.6477  -18.6705   20.6226 C.ar    1  UNL1       -0.0009
      5 C          -8.8399  -17.7712   21.5106 C.ar    1  UNL1       -0.0079
      6 C          -9.2919  -16.3633   21.7628 C.ar    1  UNL1       -0.0187
      7 C         -10.5517  -15.8548   21.1271 C.ar    1  UNL1       -0.0082
      8 C          -8.2962  -15.7137   22.6775 C.3     1  UNL1        0.0480
      9 C          -7.2288  -16.7200   22.9905 C.2     1  UNL1       -0.0420
     10 C          -7.5649  -17.9916   22.2693 C.2     1  UNL1       -0.0240
     11 C          -6.0350  -16.4944   23.8703 C.3     1  UNL1        0.0394
     12 C          -6.0689  -15.4240   24.9206 C.3     1  UNL1        0.0765
     13 N          -6.9439  -15.5856   26.1282 N.3     1  UNL1       -0.2700
     14 C          -8.4279  -15.4030   26.0090 C.3     1  UNL1        0.0897
     15 C          -6.3348  -15.9299   27.4550 C.3     1  UNL1        0.0897
     16 C          -6.7661  -19.2609   22.3013 C.3     1  UNL1        0.0730
     17 C          -5.4065  -19.3075   21.6693 C.ar    1  UNL1        0.0825
     18 C          -5.2732  -19.2977   20.1752 C.ar    1  UNL1        0.1139
     19 N          -3.9137  -19.3444   19.5432 N.ar    1  UNL1       -0.2394
     20 C          -2.6874  -19.4009   20.4053 C.ar    1  UNL1        0.1195
     21 C          -2.8207  -19.4107   21.8993 C.ar    1  UNL1        0.1191
     22 N          -4.1803  -19.3640   22.5313 N.ar    1  UNL1       -0.2446
@<TRIPOS>BOND
     1     1     2    1
     2     2     3   ar
     3     3     4   ar
     4     4     5   ar
     5     5     6   ar
     6     6     7   ar
     7     6     8    1
     8     8     9    1
     9     9    11    1
    10    11    12    1
    11    12    13    1
    12    13    14    1
    13    13    15    1
    14     9    10    2
    15    10    16    1
    16    16    17    1
    17    17    18   ar
    18    18    19   ar
    19    19    20   ar
    20    20    21   ar
    21    21    22   ar
    22     7     2   ar
    23    22    17   ar
    24    10     5    1
@<TRIPOS>MOLECULE
*****
 22 24 0 0 0
SMALL
GASTEIGER

@<TRIPOS>ATOM
      1 C          -1.9937  -19.7562   21.5987 C.3     1  UNL1        0.0310
      2 C          -3.3002  -19.1133   21.9587 C.ar    1  UNL1       -0.0222
      3 C          -3.3182  -17.7491   22.5821 C.ar    1  UNL1       -0.0043
      4 C          -4.6247  -17.1061   22.9420 C.ar    1  UNL1       -0.0009
      5 C          -5.9133  -17.8273   22.6786 C.ar    1  UNL1       -0.0079
      6 C          -5.8953  -19.1915   22.0553 C.ar    1  UNL1       -0.0187
      7 C          -4.5888  -19.8345   21.6953 C.ar    1  UNL1       -0.0082
      8 C          -7.3148  -19.6562   21.9157 C.3     1  UNL1        0.0480
      9 C          -8.2099  -18.5791   22.4527 C.2     1  UNL1       -0.0420
     10 C          -7.3438  -17.4488   22.9243 C.2     1  UNL1       -0.0240
     11 C          -9.7083  -18.6242   22.5085 C.3     1  UNL1        0.0394
     12 C         -10.4706  -19.4603   21.5237 C.3     1  UNL1        0.0765
     13 N         -10.4983  -19.0737   20.0746 N.3     1  UNL1       -0.2700
     14 C         -11.1609  -17.7962   19.6518 C.3     1  UNL1        0.0897
     15 C          -9.8634  -19.9647   19.0485 C.3     1  UNL1        0.0897
     16 C          -7.8239  -16.1653   23.5344 C.3     1  UNL1        0.0730
     17 C          -7.5447  -15.8708   24.9784 C.ar    1  UNL1        0.0825
     18 C          -6.2660  -15.1925   25.3719 C.ar    1  UNL1        0.1139
     19 N          -5.9868  -14.8980   26.8160 N.ar    1  UNL1       -0.2394
     20 C          -6.9863  -15.2817   27.8666 C.ar    1  UNL1        0.1195
     21 C          -8.2650  -15.9600   27.4731 C.ar    1  UNL1        0.1191
     22 N          -8.5442  -16.2545   26.0290 N.ar    1  UNL1       -0.2446
@<TRIPOS>BOND
     1     1     2    1
     2     2     3   ar
     3     3     4   ar
     4     4     5   ar
     5     5     6   ar
     6     6     7   ar
     7     6     8    1
     8     8     9    1
     9     9    11    1
    10    11    12    1
    11    12    13    1
    12    13    14    1
    13    13    15    1
    14     9    10    2
    15    10    16    1
    16    16    17    1
    17    17    18   ar
    18    18    19   ar
    19    19    20   ar
    20    20    21   ar
    21    21    22   ar
    22     7     2   ar
    23    22    17   ar
    24    10     5    1
@<TRIPOS>MOLECULE
*****
 22 24 0 0 0
SMALL
GASTEIGER

@<TRIPOS>ATOM
      1 C         -13.5499  -17.8150   21.8562 C.3     1  UNL1        0.0310
      2 C         -12.0743  -18.0566   21.9752 C.ar    1  UNL1       -0.0222
      3 C         -11.5003  -19.3914   21.6028 C.ar    1  UNL1       -0.0043
      4 C         -10.0247  -19.6329   21.7218 C.ar    1  UNL1       -0.0009
      5 C          -9.1230  -18.5396   22.2134 C.ar    1  UNL1       -0.0079
      6 C          -9.6970  -17.2048   22.5858 C.ar    1  UNL1       -0.0187
      7 C         -11.1726  -16.9633   22.4668 C.ar    1  UNL1       -0.0082
      8 C          -8.5689  -16.3245   23.0362 C.3     1  UNL1        0.0480
      9 C          -7.2979  -17.1154   22.9421 C.2     1  UNL1       -0.0420
     10 C          -7.6403  -18.4844   22.4335 C.2     1  UNL1       -0.0240
     11 C          -5.9252  -16.6236   23.2946 C.3     1  UNL1        0.0394
     12 C          -5.7612  -15.4785   24.2495 C.3     1  UNL1        0.0765
     13 N          -6.1303  -15.6472   25.6935 N.3     1  UNL1       -0.2700
     14 C          -7.5325  -15.3674   26.1468 C.3     1  UNL1        0.0897
     15 C          -5.0972  -16.0957   26.6842 C.3     1  UNL1        0.0897
     16 C          -6.6703  -19.6019   22.1882 C.3     1  UNL1        0.0730
     17 C          -5.3606  -19.3235   21.5120 C.ar    1  UNL1        0.0825
     18 C          -5.3353  -18.8869   20.0772 C.ar    1  UNL1        0.1139
     19 N          -4.0256  -18.6084   19.4010 N.ar    1  UNL1       -0.2394
     20 C          -2.7413  -18.7665   20.1596 C.ar    1  UNL1        0.1195
     21 C          -2.7667  -19.2031   21.5945 C.ar    1  UNL1        0.1191
     22 N          -4.0763  -19.4816   22.2706 N.ar    1  UNL1       -0.2446
@<TRIPOS>BOND
     1     1     2    1
     2     2     3   ar
     3     3     4   ar
     4     4     5   ar
     5     5     6   ar
     6     6     7   ar
     7     6     8    1
     8     8     9    1
     9     9    11    1
    10    11    12    1
    11    12    13    1
    12    13    14    1
    13    13    15    1
    14     9    10    2
    15    10    16    1
    16    16    17    1
    17    17    18   ar
    18    18    19   ar
    19    19    20   ar
    20    20    21   ar
    21    21    22   ar
    22     7     2   ar
    23    22    17   ar
    24    10     5    1
@<TRIPOS>MOLECULE
*****
 22 24 0 0 0
SMALL
GASTEIGER

@<TRIPOS>ATOM
      1 C          -6.5517  -14.5769   27.3826 C.3     1  UNL1        0.0310
      2 C          -6.9932  -15.4547   26.2492 C.ar    1  UNL1       -0.0222
      3 C          -8.4235  -15.8967   26.1561 C.ar    1  UNL1       -0.0043
      4 C          -8.8650  -16.7745   25.0227 C.ar    1  UNL1       -0.0009
      5 C          -7.8761  -17.2104   23.9825 C.ar    1  UNL1       -0.0079
      6 C          -6.4457  -16.7684   24.0756 C.ar    1  UNL1       -0.0187
      7 C          -6.0043  -15.8906   25.2090 C.ar    1  UNL1       -0.0082
      8 C          -5.7030  -17.3531   22.9109 C.3     1  UNL1        0.0480
      9 C          -6.6744  -18.1565   22.0979 C.2     1  UNL1       -0.0420
     10 C          -8.0174  -18.0682   22.7602 C.2     1  UNL1       -0.0240
     11 C          -6.3584  -18.9149   20.8429 C.3     1  UNL1        0.0394
     12 C          -5.2392  -19.9136   20.8319 C.3     1  UNL1        0.0765
     13 N          -3.8216  -19.4498   20.6733 N.3     1  UNL1       -0.2700
     14 C          -3.3711  -18.8446   19.3768 C.3     1  UNL1        0.0897
     15 C          -2.8545  -19.5911   21.8111 C.3     1  UNL1        0.0897
     16 C          -9.2801  -18.7229   22.2838 C.3     1  UNL1        0.0730
     17 C         -10.3846  -17.8896   21.7044 C.ar    1  UNL1        0.0825
     18 C         -10.7121  -17.9889   20.2440 C.ar    1  UNL1        0.1139
     19 N         -11.8166  -17.1556   19.6647 N.ar    1  UNL1       -0.2394
     20 C         -12.5936  -16.2228   20.5458 C.ar    1  UNL1        0.1195
     21 C         -12.2661  -16.1235   22.0062 C.ar    1  UNL1        0.1191
     22 N         -11.1616  -16.9568   22.5855 N.ar    1  UNL1       -0.2446
@<TRIPOS>BOND
     1     1     2    1
     2     2     3   ar
     3     3     4   ar
     4     4     5   ar
     5     5     6   ar
     6     6     7   ar
     7     6     8    1
     8     8     9    1
     9     9    11    1
    10    11    12    1
    11    12    13    1
    12    13    14    1
    13    13    15    1
    14     9    10    2
    15    10    16    1
    16    16    17    1
    17    17    18   ar
    18    18    19   ar
    19    19    20   ar
    20    20    21   ar
    21    21    22   ar
    22     7     2   ar
    23    22    17   ar
    24    10     5    1
