@<TRIPOS>MOLECULE
*****
 31 33 0 0 0
SMALL
GASTEIGER

@<TRIPOS>ATOM
      1 C          -7.5575  -18.4609   22.2526 C.ar    1  UNL1        0.0275
      2 C          -8.6478  -18.7392   23.2444 C.ar    1  UNL1       -0.0009
      3 C          -9.9479  -19.3289   22.7840 C.ar    1  UNL1        0.0210
      4 C         -10.1576  -19.6404   21.3317 C.ar    1  UNL1        0.1397
      5 F         -11.4577  -20.2302   20.8713 F       1  UNL1       -0.2044
      6 C          -9.0672  -19.3622   20.3399 C.ar    1  UNL1        0.0587
      7 C          -7.7672  -18.7724   20.8004 C.ar    1  UNL1        0.1402
      8 F          -6.6767  -18.4942   19.8086 F       1  UNL1       -0.2044
      9 N          -8.8403  -15.2646   24.2244 N.pl3   1  UNL1       -0.3380
     10 C          -7.5459  -15.9369   23.8741 C.2     1  UNL1        0.1482
     11 N          -7.5517  -17.1989   23.0634 N.2     1  UNL1       -0.2484
     12 C          -6.2573  -17.8712   22.7130 C.3     1  UNL1        0.1351
     13 C          -6.2631  -19.1332   21.9023 C.3     1  UNL1        0.1687
     14 O          -4.9688  -19.8055   21.5519 O.3     1  UNL1       -0.3510
     15 C          -3.6687  -19.2157   22.0124 C.3     1  UNL1        0.1507
     16 C          -3.6629  -17.9537   22.8231 C.3     1  UNL1        0.0357
     17 C          -4.9573  -17.2815   23.1734 C.3     1  UNL1        0.0408
     18 C          -4.9515  -16.0195   23.9841 C.3     1  UNL1        0.0672
     19 S          -6.2458  -15.3472   24.3345 S.3     1  UNL1       -0.0807
     20 H          -9.6936  -15.6517   23.9223 H       1  UNL1        0.1442
     21 H          -8.8365  -14.4363   24.7565 H       1  UNL1        0.1442
     22 C          -2.3743  -19.8880   21.6620 C.3     1  UNL1        0.2225
     23 F          -1.5219  -19.3432   20.5546 F       1  UNL1       -0.2316
     24 C         -11.0383  -19.6072   23.7758 C.3     1  UNL1        0.0981
     25 N         -11.9051  -18.4877   24.2711 N.3     1  UNL1       -0.2866
     26 H         -11.2810  -17.7211   24.5225 H       1  UNL1        0.1238
     27 C         -12.9647  -17.9093   23.3808 C.3     1  UNL1        0.1734
     28 C         -12.5766  -17.0586   22.2080 C.3     1  UNL1        0.4118
     29 F         -12.1885  -16.2078   21.0352 F       1  UNL1       -0.1685
     30 F         -11.7985  -16.1567   23.1197 F       1  UNL1       -0.1685
     31 F         -13.3547  -17.9605   21.2963 F       1  UNL1       -0.1685
@<TRIPOS>BOND
     1     9    10    1
     2    10    11    2
     3    11    12    1
     4    12     1    1
     5     1     2   ar
     6     2     3   ar
     7     3    24    1
     8    24    25    1
     9    25    27    1
    10    27    28    1
    11    28    29    1
    12    28    30    1
    13    28    31    1
    14     3     4   ar
    15     4     5    1
    16     4     6   ar
    17     6     7   ar
    18     7     8    1
    19    12    13    1
    20    13    14    1
    21    14    15    1
    22    15    22    1
    23    22    23    1
    24    15    16    1
    25    17    16    1
    26    17    18    1
    27    18    19    1
    28    19    10    1
    29    17    12    1
    30     7     1   ar
    31     9    20    1
    32     9    21    1
    33    25    26    1
@<TRIPOS>MOLECULE
*****
 31 33 0 0 0
SMALL
GASTEIGER

@<TRIPOS>ATOM
      1 C          -8.6356  -18.1526   22.7492 C.ar    1  UNL1        0.0275
      2 C          -8.0820  -16.7701   22.9280 C.ar    1  UNL1       -0.0009
      3 C          -8.2065  -16.0778   24.2529 C.ar    1  UNL1        0.0210
      4 C          -8.8847  -16.7681   25.3990 C.ar    1  UNL1        0.1397
      5 F          -9.0092  -16.0758   26.7238 F       1  UNL1       -0.2044
      6 C          -9.4384  -18.1507   25.2202 C.ar    1  UNL1        0.0587
      7 C          -9.3138  -18.8429   23.8953 C.ar    1  UNL1        0.1402
      8 F          -9.8675  -20.2255   23.7165 F       1  UNL1       -0.2044
      9 N         -12.3291  -17.7645   21.3500 N.pl3   1  UNL1       -0.3380
     10 C         -11.0149  -18.3554   20.9332 C.2     1  UNL1        0.1482
     11 N          -9.8253  -18.2540   21.8412 N.2     1  UNL1       -0.2484
     12 C          -8.5111  -18.8449   21.4243 C.3     1  UNL1        0.1351
     13 C          -7.3214  -18.7435   22.3324 C.3     1  UNL1        0.1687
     14 O          -6.0073  -19.3344   21.9156 O.3     1  UNL1       -0.3510
     15 C          -5.8827  -20.0267   20.5907 C.3     1  UNL1        0.1507
     16 C          -7.0724  -20.1281   19.6827 C.3     1  UNL1        0.0357
     17 C          -8.3865  -19.5372   20.0995 C.3     1  UNL1        0.0408
     18 C          -9.5762  -19.6386   19.1916 C.3     1  UNL1        0.0672
     19 S         -10.8903  -19.0477   19.6084 S.3     1  UNL1       -0.0807
     20 H         -12.4108  -17.3102   22.2196 H       1  UNL1        0.1442
     21 H         -13.1099  -17.8311   20.7541 H       1  UNL1        0.1442
     22 C          -4.5685  -20.6176   20.1738 C.3     1  UNL1        0.2225
     23 F          -3.5793  -19.7851   19.4135 F       1  UNL1       -0.2316
     24 C          -7.6528  -14.6952   24.4316 C.3     1  UNL1        0.0981
     25 N          -6.2428  -14.5077   24.9075 N.3     1  UNL1       -0.2866
     26 H          -6.2986  -14.0875   25.8353 H       1  UNL1        0.1238
     27 C          -5.3264  -15.6897   25.0219 C.3     1  UNL1        0.1734
     28 C          -4.4842  -16.1018   23.8511 C.3     1  UNL1        0.4118
     29 F          -3.6420  -16.5140   22.6803 F       1  UNL1       -0.1685
     30 F          -4.2391  -17.4337   24.4962 F       1  UNL1       -0.1685
     31 F          -4.7292  -14.7700   23.2060 F       1  UNL1       -0.1685
@<TRIPOS>BOND
     1     9    10    1
     2    10    11    2
     3    11    12    1
     4    12     1    1
     5     1     2   ar
     6     2     3   ar
     7     3    24    1
     8    24    25    1
     9    25    27    1
    10    27    28    1
    11    28    29    1
    12    28    30    1
    13    28    31    1
    14     3     4   ar
    15     4     5    1
    16     4     6   ar
    17     6     7   ar
    18     7     8    1
    19    12    13    1
    20    13    14    1
    21    14    15    1
    22    15    22    1
    23    22    23    1
    24    15    16    1
    25    17    16    1
    26    17    18    1
    27    18    19    1
    28    19    10    1
    29    17    12    1
    30     7     1   ar
    31     9    20    1
    32     9    21    1
    33    25    26    1
@<TRIPOS>MOLECULE
*****
 31 33 0 0 0
SMALL
GASTEIGER

@<TRIPOS>ATOM
      1 C          -7.8033  -17.8481   22.6636 C.ar    1  UNL1        0.0275
      2 C          -6.3953  -18.3638   22.6242 C.ar    1  UNL1       -0.0009
      3 C          -5.2590  -17.4745   23.0344 C.ar    1  UNL1        0.0210
      4 C          -5.5308  -16.0696   23.4840 C.ar    1  UNL1        0.1397
      5 F          -4.3947  -15.1803   23.8942 F       1  UNL1       -0.2044
      6 C          -6.9389  -15.5538   23.5234 C.ar    1  UNL1        0.0587
      7 C          -8.0751  -16.4431   23.1133 C.ar    1  UNL1        0.1402
      8 F          -9.4831  -15.9274   23.1527 F       1  UNL1       -0.2044
      9 N          -9.7949  -18.1460   26.0834 N.pl3   1  UNL1       -0.3380
     10 C          -9.8885  -18.6395   24.6700 C.2     1  UNL1        0.1482
     11 N          -8.8459  -18.2438   23.6668 N.2     1  UNL1       -0.2484
     12 C          -8.9395  -18.7374   22.2534 C.3     1  UNL1        0.1351
     13 C          -7.8969  -18.3416   21.2502 C.3     1  UNL1        0.1687
     14 O          -7.9905  -18.8351   19.8369 O.3     1  UNL1       -0.3510
     15 C          -9.1267  -19.7244   19.4267 C.3     1  UNL1        0.1507
     16 C         -10.1693  -20.1201   20.4298 C.3     1  UNL1        0.0357
     17 C         -10.0757  -19.6266   21.8432 C.3     1  UNL1        0.0408
     18 C         -11.1183  -20.0223   22.8464 C.3     1  UNL1        0.0672
     19 S         -11.0247  -19.5288   24.2598 S.3     1  UNL1       -0.0807
     20 H          -9.0492  -17.5624   26.3526 H       1  UNL1        0.1442
     21 H         -10.4792  -18.4058   26.7418 H       1  UNL1        0.1442
     22 C          -9.2203  -20.2179   18.0133 C.3     1  UNL1        0.2225
     23 F          -8.9309  -21.6560   17.7003 F       1  UNL1       -0.2316
     24 C          -3.8510  -17.9903   22.9950 C.3     1  UNL1        0.0981
     25 N          -2.8949  -17.4819   21.9570 N.3     1  UNL1       -0.2866
     26 H          -1.9591  -17.5601   22.3552 H       1  UNL1        0.1238
     27 C          -2.8448  -18.1267   20.6036 C.3     1  UNL1        0.1734
     28 C          -3.4097  -19.5022   20.4067 C.3     1  UNL1        0.4118
     29 F          -3.9746  -20.8778   20.2098 F       1  UNL1       -0.1685
     30 F          -2.2176  -20.0911   21.1011 F       1  UNL1       -0.1685
     31 F          -4.6018  -18.9133   19.7123 F       1  UNL1       -0.1685
@<TRIPOS>BOND
     1     9    10    1
     2    10    11    2
     3    11    12    1
     4    12     1    1
     5     1     2   ar
     6     2     3   ar
     7     3    24    1
     8    24    25    1
     9    25    27    1
    10    27    28    1
    11    28    29    1
    12    28    30    1
    13    28    31    1
    14     3     4   ar
    15     4     5    1
    16     4     6   ar
    17     6     7   ar
    18     7     8    1
    19    12    13    1
    20    13    14    1
    21    14    15    1
    22    15    22    1
    23    22    23    1
    24    15    16    1
    25    17    16    1
    26    17    18    1
    27    18    19    1
    28    19    10    1
    29    17    12    1
    30     7     1   ar
    31     9    20    1
    32     9    21    1
    33    25    26    1
@<TRIPOS>MOLECULE
*****
 31 33 0 0 0
SMALL
GASTEIGER

@<TRIPOS>ATOM
      1 C          -7.9565  -17.1342   22.8344 C.ar    1  UNL1        0.0275
      2 C          -8.7797  -18.3409   23.1750 C.ar    1  UNL1       -0.0009
      3 C         -10.1953  -18.4444   22.6895 C.ar    1  UNL1        0.0210
      4 C         -10.7875  -17.3413   21.8634 C.ar    1  UNL1        0.1397
      5 F         -12.2029  -17.4448   21.3780 F       1  UNL1       -0.2044
      6 C          -9.9641  -16.1345   21.5228 C.ar    1  UNL1        0.0587
      7 C          -8.5486  -16.0310   22.0083 C.ar    1  UNL1        0.1402
      8 F          -7.7253  -14.8243   21.6677 F       1  UNL1       -0.2044
      9 N          -8.4251  -14.8208   26.0248 N.pl3   1  UNL1       -0.3380
     10 C          -7.3252  -15.5229   25.2850 C.2     1  UNL1        0.1482
     11 N          -7.6408  -16.3285   24.0597 N.2     1  UNL1       -0.2484
     12 C          -6.5409  -17.0306   23.3198 C.3     1  UNL1        0.1351
     13 C          -6.8566  -17.8362   22.0945 C.3     1  UNL1        0.1687
     14 O          -5.7567  -18.5383   21.3546 O.3     1  UNL1       -0.3510
     15 C          -4.3412  -18.4347   21.8401 C.3     1  UNL1        0.1507
     16 C          -4.0256  -17.6291   23.0654 C.3     1  UNL1        0.0357
     17 C          -5.1255  -16.9270   23.8052 C.3     1  UNL1        0.0408
     18 C          -4.8099  -16.1214   25.0305 C.3     1  UNL1        0.0672
     19 S          -5.9097  -15.4193   25.7704 S.3     1  UNL1       -0.0807
     20 H          -9.3541  -14.8888   25.7062 H       1  UNL1        0.1442
     21 H          -8.2179  -14.2921   26.8290 H       1  UNL1        0.1442
     22 C          -3.2413  -19.1367   21.1002 C.3     1  UNL1        0.2225
     23 F          -3.3497  -19.3482   19.6192 F       1  UNL1       -0.2316
     24 C         -11.0186  -19.6511   23.0301 C.3     1  UNL1        0.0981
     25 N         -11.8195  -19.6791   24.2981 N.3     1  UNL1       -0.2866
     26 H         -11.1642  -19.8702   25.0560 H       1  UNL1        0.1238
     27 C         -12.6171  -18.4768   24.7080 C.3     1  UNL1        0.1734
     28 C         -14.1154  -18.5146   24.6479 C.3     1  UNL1        0.4118
     29 F         -15.6137  -18.5524   24.5878 F       1  UNL1       -0.1685
     30 F         -14.1683  -18.7682   26.1254 F       1  UNL1       -0.1685
     31 F         -14.0625  -18.2610   23.1704 F       1  UNL1       -0.1685
@<TRIPOS>BOND
     1     9    10    1
     2    10    11    2
     3    11    12    1
     4    12     1    1
     5     1     2   ar
     6     2     3   ar
     7     3    24    1
     8    24    25    1
     9    25    27    1
    10    27    28    1
    11    28    29    1
    12    28    30    1
    13    28    31    1
    14     3     4   ar
    15     4     5    1
    16     4     6   ar
    17     6     7   ar
    18     7     8    1
    19    12    13    1
    20    13    14    1
    21    14    15    1
    22    15    22    1
    23    22    23    1
    24    15    16    1
    25    17    16    1
    26    17    18    1
    27    18    19    1
    28    19    10    1
    29    17    12    1
    30     7     1   ar
    31     9    20    1
    32     9    21    1
    33    25    26    1
@<TRIPOS>MOLECULE
*****
 31 33 0 0 0
SMALL
GASTEIGER

@<TRIPOS>ATOM
      1 C          -7.8887  -17.2918   22.6038 C.ar    1  UNL1        0.0275
      2 C          -6.5323  -17.8925   22.8255 C.ar    1  UNL1       -0.0009
      3 C          -5.4573  -17.0901   23.4970 C.ar    1  UNL1        0.0210
      4 C          -5.7390  -15.6871   23.9468 C.ar    1  UNL1        0.1397
      5 F          -4.6641  -14.8848   24.6183 F       1  UNL1       -0.2044
      6 C          -7.0955  -15.0865   23.7251 C.ar    1  UNL1        0.0587
      7 C          -8.1704  -15.8888   23.0536 C.ar    1  UNL1        0.1402
      8 F          -9.5269  -15.2882   22.8319 F       1  UNL1       -0.2044
      9 N          -5.9104  -18.7282   19.4776 N.pl3   1  UNL1       -0.3380
     10 C          -7.2864  -18.7843   20.0720 C.2     1  UNL1        0.1482
     11 N          -7.5876  -18.0381   21.3379 N.2     1  UNL1       -0.2484
     12 C          -8.9637  -18.0941   21.9323 C.3     1  UNL1        0.1351
     13 C          -9.2648  -17.3479   23.1982 C.3     1  UNL1        0.1687
     14 O         -10.6408  -17.4040   23.7926 O.3     1  UNL1       -0.3510
     15 C         -11.7158  -18.2063   23.1211 C.3     1  UNL1        0.1507
     16 C         -11.4146  -18.9525   21.8552 C.3     1  UNL1        0.0357
     17 C         -10.0385  -18.8964   21.2608 C.3     1  UNL1        0.0408
     18 C          -9.7374  -19.6426   19.9950 C.3     1  UNL1        0.0672
     19 S          -8.3613  -19.5865   19.4005 S.3     1  UNL1       -0.0807
     20 H          -5.2049  -18.2016   19.9183 H       1  UNL1        0.1442
     21 H          -5.7127  -19.2179   18.6468 H       1  UNL1        0.1442
     22 C         -13.0918  -18.2624   23.7155 C.3     1  UNL1        0.2225
     23 F         -13.2673  -18.5712   25.1728 F       1  UNL1       -0.2316
     24 C          -4.1009  -17.6908   23.7187 C.3     1  UNL1        0.0981
     25 N          -3.4934  -18.5778   22.6727 N.3     1  UNL1       -0.2866
     26 H          -4.2602  -18.9138   22.0900 H       1  UNL1        0.1238
     27 C          -2.4489  -18.0347   21.7431 C.3     1  UNL1        0.1734
     28 C          -2.3850  -18.5156   20.3238 C.3     1  UNL1        0.4118
     29 F          -2.3211  -18.9966   18.9044 F       1  UNL1       -0.1685
     30 F          -2.5053  -17.1012   19.8391 F       1  UNL1       -0.1685
     31 F          -2.2647  -19.9301   20.8084 F       1  UNL1       -0.1685
@<TRIPOS>BOND
     1     9    10    1
     2    10    11    2
     3    11    12    1
     4    12     1    1
     5     1     2   ar
     6     2     3   ar
     7     3    24    1
     8    24    25    1
     9    25    27    1
    10    27    28    1
    11    28    29    1
    12    28    30    1
    13    28    31    1
    14     3     4   ar
    15     4     5    1
    16     4     6   ar
    17     6     7   ar
    18     7     8    1
    19    12    13    1
    20    13    14    1
    21    14    15    1
    22    15    22    1
    23    22    23    1
    24    15    16    1
    25    17    16    1
    26    17    18    1
    27    18    19    1
    28    19    10    1
    29    17    12    1
    30     7     1   ar
    31     9    20    1
    32     9    21    1
    33    25    26    1
@<TRIPOS>MOLECULE
*****
 31 33 0 0 0
SMALL
GASTEIGER

@<TRIPOS>ATOM
      1 C          -7.3601  -18.1141   22.2958 C.ar    1  UNL1        0.0275
      2 C          -8.3458  -17.0881   21.8210 C.ar    1  UNL1       -0.0009
      3 C          -9.6815  -17.5197   21.2920 C.ar    1  UNL1        0.0210
      4 C         -10.0314  -18.9773   21.2379 C.ar    1  UNL1        0.1397
      5 F         -11.3670  -19.4089   20.7089 F       1  UNL1       -0.2044
      6 C          -9.0455  -20.0034   21.7126 C.ar    1  UNL1        0.0587
      7 C          -7.7099  -19.5718   22.2416 C.ar    1  UNL1        0.1402
      8 F          -6.7240  -20.5978   22.7164 F       1  UNL1       -0.2044
      9 N          -4.9185  -20.1024   19.8800 N.pl3   1  UNL1       -0.3380
     10 C          -4.8419  -19.1519   21.0379 C.2     1  UNL1        0.1482
     11 N          -6.1009  -18.6330   21.6668 N.2     1  UNL1       -0.2484
     12 C          -6.0244  -17.6826   22.8247 C.3     1  UNL1        0.1351
     13 C          -7.2835  -17.1637   23.4537 C.3     1  UNL1        0.1687
     14 O          -7.2069  -16.2132   24.6116 O.3     1  UNL1       -0.3510
     15 C          -5.8712  -15.7817   25.1406 C.3     1  UNL1        0.1507
     16 C          -4.6122  -16.3005   24.5116 C.3     1  UNL1        0.0357
     17 C          -4.6888  -17.2510   23.3537 C.3     1  UNL1        0.0408
     18 C          -3.4297  -17.7699   22.7248 C.3     1  UNL1        0.0672
     19 S          -3.5063  -18.7203   21.5669 S.3     1  UNL1       -0.0807
     20 H          -5.7952  -20.3856   19.5328 H       1  UNL1        0.1442
     21 H          -4.0922  -20.4429   19.4672 H       1  UNL1        0.1442
     22 C          -5.7946  -14.8312   26.2985 C.3     1  UNL1        0.2225
     23 F          -6.5273  -15.1384   27.5707 F       1  UNL1       -0.2316
     24 C         -10.6673  -16.4936   20.8173 C.3     1  UNL1        0.0981
     25 N         -11.4293  -15.6690   21.8120 N.3     1  UNL1       -0.2866
     26 H         -11.7625  -14.8426   21.3156 H       1  UNL1        0.1238
     27 C         -12.6139  -16.2550   22.5213 C.3     1  UNL1        0.1734
     28 C         -12.4583  -17.5068   23.3331 C.3     1  UNL1        0.4118
     29 F         -12.3027  -18.7585   24.1448 F       1  UNL1       -0.1685
     30 F         -11.1786  -16.9752   23.9074 F       1  UNL1       -0.1685
     31 F         -13.7380  -18.0383   22.7588 F       1  UNL1       -0.1685
@<TRIPOS>BOND
     1     9    10    1
     2    10    11    2
     3    11    12    1
     4    12     1    1
     5     1     2   ar
     6     2     3   ar
     7     3    24    1
     8    24    25    1
     9    25    27    1
    10    27    28    1
    11    28    29    1
    12    28    30    1
    13    28    31    1
    14     3     4   ar
    15     4     5    1
    16     4     6   ar
    17     6     7   ar
    18     7     8    1
    19    12    13    1
    20    13    14    1
    21    14    15    1
    22    15    22    1
    23    22    23    1
    24    15    16    1
    25    17    16    1
    26    17    18    1
    27    18    19    1
    28    19    10    1
    29    17    12    1
    30     7     1   ar
    31     9    20    1
    32     9    21    1
    33    25    26    1
@<TRIPOS>MOLECULE
*****
 31 33 0 0 0
SMALL
GASTEIGER

@<TRIPOS>ATOM
      1 C          -8.0230  -17.1315   22.6948 C.ar    1  UNL1        0.0275
      2 C          -8.8769  -18.3249   23.0054 C.ar    1  UNL1       -0.0009
      3 C         -10.2866  -18.3912   22.4971 C.ar    1  UNL1        0.0210
      4 C         -10.8424  -17.2640   21.6782 C.ar    1  UNL1        0.1397
      5 F         -12.2520  -17.3303   21.1698 F       1  UNL1       -0.2044
      6 C          -9.9883  -16.0706   21.3675 C.ar    1  UNL1        0.0587
      7 C          -8.5787  -16.0044   21.8758 C.ar    1  UNL1        0.1402
      8 F          -7.7246  -14.8109   21.5652 F       1  UNL1       -0.2044
      9 N          -6.2001  -19.5961   20.1742 N.pl3   1  UNL1       -0.3380
     10 C          -5.8679  -18.7304   21.3533 C.2     1  UNL1        0.1482
     11 N          -6.9454  -17.9310   22.0240 N.2     1  UNL1       -0.2484
     12 C          -6.6132  -17.0653   23.2031 C.3     1  UNL1        0.1351
     13 C          -7.6908  -16.2658   23.8738 C.3     1  UNL1        0.1687
     14 O          -7.3586  -15.4001   25.0529 O.3     1  UNL1       -0.3510
     15 C          -5.9489  -15.3338   25.5612 C.3     1  UNL1        0.1507
     16 C          -4.8714  -16.1332   24.8905 C.3     1  UNL1        0.0357
     17 C          -5.2036  -16.9989   23.7114 C.3     1  UNL1        0.0408
     18 C          -4.1261  -17.7984   23.0407 C.3     1  UNL1        0.0672
     19 S          -4.4583  -18.6641   21.8616 S.3     1  UNL1       -0.0807
     20 H          -7.1253  -19.6396   19.8406 H       1  UNL1        0.1442
     21 H          -5.4929  -20.1208   19.7340 H       1  UNL1        0.1442
     22 C          -5.6167  -14.4681   26.7403 C.3     1  UNL1        0.2225
     23 F          -6.5214  -14.4508   27.9366 F       1  UNL1       -0.2316
     24 C         -11.1406  -19.5846   22.8078 C.3     1  UNL1        0.0981
     25 N         -11.8814  -19.6582   24.1100 N.3     1  UNL1       -0.2866
     26 H         -11.1925  -19.8811   24.8284 H       1  UNL1        0.1238
     27 C         -12.6518  -18.4694   24.6029 C.3     1  UNL1        0.1734
     28 C         -14.1515  -18.4978   24.6097 C.3     1  UNL1        0.4118
     29 F         -15.6512  -18.5263   24.6166 F       1  UNL1       -0.1685
     30 F         -14.1633  -18.2308   23.1337 F       1  UNL1       -0.1685
     31 F         -14.1397  -18.7648   26.0858 F       1  UNL1       -0.1685
@<TRIPOS>BOND
     1     9    10    1
     2    10    11    2
     3    11    12    1
     4    12     1    1
     5     1     2   ar
     6     2     3   ar
     7     3    24    1
     8    24    25    1
     9    25    27    1
    10    27    28    1
    11    28    29    1
    12    28    30    1
    13    28    31    1
    14     3     4   ar
    15     4     5    1
    16     4     6   ar
    17     6     7   ar
    18     7     8    1
    19    12    13    1
    20    13    14    1
    21    14    15    1
    22    15    22    1
    23    22    23    1
    24    15    16    1
    25    17    16    1
    26    17    18    1
    27    18    19    1
    28    19    10    1
    29    17    12    1
    30     7     1   ar
    31     9    20    1
    32     9    21    1
    33    25    26    1
@<TRIPOS>MOLECULE
*****
 31 33 0 0 0
SMALL
GASTEIGER

@<TRIPOS>ATOM
      1 C         -13.8863   -4.4815   19.0220 C.ar    1  UNL1        0.0275
      2 C         -14.6999   -5.1981   17.9854 C.ar    1  UNL1       -0.0009
      3 C         -16.1591   -5.4531   18.2218 C.ar    1  UNL1        0.0210
      4 C         -16.8046   -4.9915   19.4947 C.ar    1  UNL1        0.1397
      5 F         -18.2637   -5.2465   19.7310 F       1  UNL1       -0.2044
      6 C         -15.9909   -4.2749   20.5312 C.ar    1  UNL1        0.0587
      7 C         -14.5317   -4.0199   20.2949 C.ar    1  UNL1        0.1402
      8 F         -13.7180   -3.3032   21.3314 F       1  UNL1       -0.2044
      9 N         -13.8884   -0.5485   18.4916 N.pl3   1  UNL1       -0.3380
     10 C         -12.9149   -1.6895   18.5109 C.2     1  UNL1        0.1482
     11 N         -13.4006   -3.0855   18.7664 N.2     1  UNL1       -0.2484
     12 C         -12.4271   -4.2265   18.7856 C.3     1  UNL1        0.1351
     13 C         -12.9128   -5.6225   19.0412 C.3     1  UNL1        0.1687
     14 O         -11.9393   -6.7635   19.0604 O.3     1  UNL1       -0.3510
     15 C         -10.4801   -6.5085   18.8241 C.3     1  UNL1        0.1507
     16 C          -9.9944   -5.1125   18.5685 C.3     1  UNL1        0.0357
     17 C         -10.9679   -3.9715   18.5493 C.3     1  UNL1        0.0408
     18 C         -10.4823   -2.5755   18.2938 C.3     1  UNL1        0.0672
     19 S         -11.4558   -1.4345   18.2745 S.3     1  UNL1       -0.0807
     20 H         -14.8461   -0.7158   18.6467 H       1  UNL1        0.1442
     21 H         -13.5697    0.3678   18.3239 H       1  UNL1        0.1442
     22 C          -9.5066   -7.6495   18.8433 C.3     1  UNL1        0.2225
     23 F          -9.6615   -8.7840   17.8744 F       1  UNL1       -0.2316
     24 C         -16.9727   -6.1697   17.1853 C.3     1  UNL1        0.0981
     25 N         -17.0974   -7.6639   17.2307 N.3     1  UNL1       -0.2866
     26 H         -16.1492   -8.0392   17.2121 H       1  UNL1        0.1238
     27 C         -17.8015   -8.3231   18.3795 C.3     1  UNL1        0.1734
     28 C         -17.0207   -8.7753   19.5778 C.3     1  UNL1        0.4118
     29 F         -16.2400   -9.2276   20.7761 F       1  UNL1       -0.1685
     30 F         -18.0291   -8.1271   20.4794 F       1  UNL1       -0.1685
     31 F         -16.0124   -9.4236   18.6761 F       1  UNL1       -0.1685
@<TRIPOS>BOND
     1     9    10    1
     2    10    11    2
     3    11    12    1
     4    12     1    1
     5     1     2   ar
     6     2     3   ar
     7     3    24    1
     8    24    25    1
     9    25    27    1
    10    27    28    1
    11    28    29    1
    12    28    30    1
    13    28    31    1
    14     3     4   ar
    15     4     5    1
    16     4     6   ar
    17     6     7   ar
    18     7     8    1
    19    12    13    1
    20    13    14    1
    21    14    15    1
    22    15    22    1
    23    22    23    1
    24    15    16    1
    25    17    16    1
    26    17    18    1
    27    18    19    1
    28    19    10    1
    29    17    12    1
    30     7     1   ar
    31     9    20    1
    32     9    21    1
    33    25    26    1
@<TRIPOS>MOLECULE
*****
 31 33 0 0 0
SMALL
GASTEIGER

@<TRIPOS>ATOM
      1 C          -8.2496  -16.3108   23.6139 C.ar    1  UNL1        0.0275
      2 C          -7.0170  -16.9605   23.0584 C.ar    1  UNL1       -0.0009
      3 C          -5.7025  -16.8008   23.7632 C.ar    1  UNL1        0.0210
      4 C          -5.6206  -15.9914   25.0234 C.ar    1  UNL1        0.1397
      5 F          -4.3062  -15.8317   25.7282 F       1  UNL1       -0.2044
      6 C          -6.8533  -15.3417   25.5789 C.ar    1  UNL1        0.0587
      7 C          -8.1678  -15.5014   24.8741 C.ar    1  UNL1        0.1402
      8 F          -9.4004  -14.8517   25.4296 F       1  UNL1       -0.2044
      9 N          -7.6653  -14.0389   20.4128 N.pl3   1  UNL1       -0.3380
     10 C          -8.7364  -14.9027   21.0100 C.2     1  UNL1        0.1482
     11 N          -8.4930  -15.6067   22.3119 N.2     1  UNL1       -0.2484
     12 C          -9.5641  -16.4705   22.9091 C.3     1  UNL1        0.1351
     13 C          -9.3207  -17.1746   24.2111 C.3     1  UNL1        0.1687
     14 O         -10.3917  -18.0384   24.8083 O.3     1  UNL1       -0.3510
     15 C         -11.7062  -18.1981   24.1035 C.3     1  UNL1        0.1507
     16 C         -11.9496  -17.4940   22.8016 C.3     1  UNL1        0.0357
     17 C         -10.8785  -16.6303   22.2044 C.3     1  UNL1        0.0408
     18 C         -11.1219  -15.9262   20.9025 C.3     1  UNL1        0.0672
     19 S         -10.0508  -15.0624   20.3053 S.3     1  UNL1       -0.0807
     20 H          -6.8026  -13.9341   20.8753 H       1  UNL1        0.1442
     21 H          -7.8251  -13.5768   19.5583 H       1  UNL1        0.1442
     22 C         -12.7773  -19.0619   24.7007 C.3     1  UNL1        0.2225
     23 F         -13.9819  -18.4321   25.3350 F       1  UNL1       -0.2316
     24 C          -4.4699  -17.4505   23.2077 C.3     1  UNL1        0.0981
     25 N          -4.5309  -18.8582   22.6934 N.3     1  UNL1       -0.2866
     26 H          -5.3408  -19.2970   23.1317 H       1  UNL1        0.1238
     27 C          -4.6444  -19.1141   21.2198 C.3     1  UNL1        0.1734
     28 C          -5.3130  -20.3622   20.7246 C.3     1  UNL1        0.4118
     29 F          -5.9817  -21.6103   20.2294 F       1  UNL1       -0.1685
     30 F          -4.2707  -20.4958   19.6542 F       1  UNL1       -0.1685
     31 F          -6.3554  -20.2285   21.7950 F       1  UNL1       -0.1685
@<TRIPOS>BOND
     1     9    10    1
     2    10    11    2
     3    11    12    1
     4    12     1    1
     5     1     2   ar
     6     2     3   ar
     7     3    24    1
     8    24    25    1
     9    25    27    1
    10    27    28    1
    11    28    29    1
    12    28    30    1
    13    28    31    1
    14     3     4   ar
    15     4     5    1
    16     4     6   ar
    17     6     7   ar
    18     7     8    1
    19    12    13    1
    20    13    14    1
    21    14    15    1
    22    15    22    1
    23    22    23    1
    24    15    16    1
    25    17    16    1
    26    17    18    1
    27    18    19    1
    28    19    10    1
    29    17    12    1
    30     7     1   ar
    31     9    20    1
    32     9    21    1
    33    25    26    1
