@<TRIPOS>MOLECULE
*****
 35 39 0 0 0
SMALL
GASTEIGER

@<TRIPOS>ATOM
      1 C           4.0275   -2.0555   18.9723 C.ar    1  UNL1        0.0644
      2 C           4.0008   -1.2827   17.6870 C.ar    1  UNL1        0.0155
      3 C           3.1067   -0.0861   17.5498 C.ar    1  UNL1       -0.0032
      4 C           2.2394    0.3377   18.6980 C.ar    1  UNL1       -0.0246
      5 C           2.2662   -0.4352   19.9832 C.ar    1  UNL1       -0.0234
      6 C           3.1602   -1.6317   20.1204 C.ar    1  UNL1        0.0113
      7 C           1.4878   -0.1856   21.2410 C.3     1  UNL1        0.0434
      8 C           0.4903    0.8985   21.5240 C.3     1  UNL1        0.0771
      9 N           0.0251    2.0006   20.6193 N.3     1  UNL1       -0.2671
     10 C           0.4422    2.2910   19.2080 C.3     1  UNL1        0.0771
     11 C           1.4276    1.5510   18.3529 C.3     1  UNL1        0.0434
     12 N           4.9216   -3.2521   19.1094 N.pl3   1  UNL1       -0.2150
     13 H           5.0801   -3.8395   18.3354 H       1  UNL1        0.1737
     14 O           6.5398   -2.4272   20.2053 O.2     1  UNL1       -0.1499
     15 S           5.5742   -3.5537   20.4259 S.O2    1  UNL1        0.0751
     16 O           4.6086   -4.6802   20.6465 O.2     1  UNL1       -0.1499
     17 C           6.2268   -3.8553   21.7424 C.ar    1  UNL1        0.1443
     18 C           7.6338   -4.3742   21.7806 C.ar    1  UNL1        0.0246
     19 C           8.2863   -4.6758   23.0971 C.ar    1  UNL1        0.0357
     20 C           7.5321   -4.4586   24.3753 C.ar    1  UNL1        0.1319
     21 N           6.1251   -3.9398   24.3371 N.ar    1  UNL1       -0.2278
     22 C           5.4725   -3.6382   23.0206 C.ar    1  UNL1        0.1204
     23 N           8.1846   -4.7602   25.6919 N.pl3   1  UNL1       -0.2881
     24 C           8.1526   -6.1551   26.2426 C.3     1  UNL1        0.1242
     25 C           8.8051   -6.4568   27.5591 C.3     1  UNL1        0.1636
     26 O           9.4896   -5.3636   28.3249 O.3     1  UNL1       -0.3501
     27 C           9.5216   -3.9687   27.7741 C.3     1  UNL1        0.1636
     28 C           8.8691   -3.6671   26.4577 C.3     1  UNL1        0.1242
     29 C          -0.9919    2.9361   21.2029 C.3     1  UNL1        0.1180
     30 C          -2.2688    3.2110   20.4653 C.ar    1  UNL1        0.0693
     31 C          -2.3981    3.9753   19.1811 C.ar    1  UNL1        0.0379
     32 C          -3.8498    4.0065   18.8046 C.ar    1  UNL1        0.1211
     33 N          -4.6176    3.2615   19.8560 N.ar    1  UNL1       -0.1713
     34 N          -3.6404    2.7698   20.8824 N.ar    1  UNL1       -0.2784
     35 H          -3.8607    2.2490   21.6883 H       1  UNL1        0.1886
@<TRIPOS>BOND
     1    14    15    2
     2    15    16    2
     3    15    12    1
     4    12     1    1
     5     1     2   ar
     6     2     3   ar
     7     3     4   ar
     8     4     5   ar
     9     5     6   ar
    10     5     7    1
    11     7     8    1
    12     8     9    1
    13     9    29    1
    14    29    30    1
    15    30    31   ar
    16    31    32   ar
    17    32    33   ar
    18    33    34   ar
    19     9    10    1
    20    10    11    1
    21    15    17    1
    22    17    18   ar
    23    18    19   ar
    24    19    20   ar
    25    20    23    1
    26    23    24    1
    27    24    25    1
    28    25    26    1
    29    26    27    1
    30    27    28    1
    31    20    21   ar
    32    21    22   ar
    33     6     1   ar
    34    34    30   ar
    35    22    17   ar
    36    11     4    1
    37    28    23    1
    38    12    13    1
    39    34    35    1
@<TRIPOS>MOLECULE
*****
 35 39 0 0 0
SMALL
GASTEIGER

@<TRIPOS>ATOM
      1 C           0.0186    1.2974   26.6558 C.ar    1  UNL1        0.0644
      2 C           0.4956    1.3866   25.2365 C.ar    1  UNL1        0.0155
      3 C          -0.2257    2.2639   24.2566 C.ar    1  UNL1       -0.0032
      4 C          -1.4240    3.0519   24.6961 C.ar    1  UNL1       -0.0246
      5 C          -1.9010    2.9627   26.1153 C.ar    1  UNL1       -0.0234
      6 C          -1.1797    2.0855   27.0953 C.ar    1  UNL1        0.0113
      7 C          -3.0649    3.6587   26.7564 C.3     1  UNL1        0.0434
      8 C          -4.0393    4.6159   26.1363 C.3     1  UNL1        0.0771
      9 N          -4.0903    5.1134   24.7222 N.3     1  UNL1       -0.2671
     10 C          -3.1797    4.7767   23.5788 C.3     1  UNL1        0.0771
     11 C          -1.9931    3.8592   23.5672 C.3     1  UNL1        0.0434
     12 N           0.7400    0.4202   27.6357 N.pl3   1  UNL1       -0.2150
     13 H           1.0274   -0.4829   27.3691 H       1  UNL1        0.1737
     14 O           0.0257   -0.0546   29.5759 O.2     1  UNL1       -0.1499
     15 S           1.0233    0.9189   29.0217 S.O2    1  UNL1        0.0751
     16 O           2.0208    1.8925   28.4675 O.2     1  UNL1       -0.1499
     17 C           1.3066    1.4177   30.4077 C.ar    1  UNL1        0.1443
     18 C           0.5862    2.6242   30.9325 C.ar    1  UNL1        0.0246
     19 C           0.8696    3.1229   32.3185 C.ar    1  UNL1        0.0357
     20 C           1.8732    2.4152   33.1797 C.ar    1  UNL1        0.1319
     21 N           2.5936    1.2086   32.6549 N.ar    1  UNL1       -0.2278
     22 C           2.3103    0.7099   31.2689 C.ar    1  UNL1        0.1204
     23 N           2.1566    2.9138   34.5657 N.pl3   1  UNL1       -0.2881
     24 C           1.6022    4.2329   35.0161 C.3     1  UNL1        0.1242
     25 C           1.8855    4.7316   36.4021 C.3     1  UNL1        0.1636
     26 O           2.7232    3.9113   37.3377 O.3     1  UNL1       -0.3501
     27 C           3.2776    2.5923   36.8873 C.3     1  UNL1        0.1636
     28 C           2.9943    2.0936   35.5014 C.3     1  UNL1        0.1242
     29 C          -5.1986    6.0749   24.4102 C.3     1  UNL1        0.1180
     30 C          -6.6137    5.5851   24.3215 C.ar    1  UNL1        0.0693
     31 C          -7.8276    6.2981   24.8393 C.ar    1  UNL1        0.0379
     32 C          -9.0273    5.4500   24.5371 C.ar    1  UNL1        0.1211
     33 N          -8.5550    4.2128   23.8327 N.ar    1  UNL1       -0.1713
     34 N          -7.0632    4.2963   23.6994 N.ar    1  UNL1       -0.2784
     35 H          -6.4813    3.6234   23.2776 H       1  UNL1        0.1886
@<TRIPOS>BOND
     1    14    15    2
     2    15    16    2
     3    15    12    1
     4    12     1    1
     5     1     2   ar
     6     2     3   ar
     7     3     4   ar
     8     4     5   ar
     9     5     6   ar
    10     5     7    1
    11     7     8    1
    12     8     9    1
    13     9    29    1
    14    29    30    1
    15    30    31   ar
    16    31    32   ar
    17    32    33   ar
    18    33    34   ar
    19     9    10    1
    20    10    11    1
    21    15    17    1
    22    17    18   ar
    23    18    19   ar
    24    19    20   ar
    25    20    23    1
    26    23    24    1
    27    24    25    1
    28    25    26    1
    29    26    27    1
    30    27    28    1
    31    20    21   ar
    32    21    22   ar
    33     6     1   ar
    34    34    30   ar
    35    22    17   ar
    36    11     4    1
    37    28    23    1
    38    12    13    1
    39    34    35    1
@<TRIPOS>MOLECULE
*****
 35 39 0 0 0
SMALL
GASTEIGER

@<TRIPOS>ATOM
      1 C           8.7513   -5.3415   22.8297 C.ar    1  UNL1        0.0644
      2 C           8.9431   -6.8266   22.7430 C.ar    1  UNL1        0.0155
      3 C           8.9574   -7.6553   23.9934 C.ar    1  UNL1       -0.0032
      4 C           8.7799   -6.9986   25.3303 C.ar    1  UNL1       -0.0246
      5 C           8.5882   -5.5136   25.4169 C.ar    1  UNL1       -0.0234
      6 C           8.5738   -4.6849   24.1667 C.ar    1  UNL1        0.0113
      7 C           8.3949   -4.6651   26.6388 C.3     1  UNL1        0.0434
      8 C           8.3458   -5.0925   28.0759 C.3     1  UNL1        0.0771
      9 N           8.4777   -6.4736   28.6458 N.3     1  UNL1       -0.2671
     10 C           8.6914   -7.7686   27.9197 C.3     1  UNL1        0.0771
     11 C           8.8259   -8.0023   26.4441 C.3     1  UNL1        0.0434
     12 N           8.7370   -4.5129   21.5794 N.pl3   1  UNL1       -0.2150
     13 H           9.5259   -4.4965   20.9907 H       1  UNL1        0.1737
     14 O           6.8871   -4.9311   20.6290 O.2     1  UNL1       -0.1499
     15 S           7.5206   -3.7095   21.2261 S.O2    1  UNL1        0.0751
     16 O           8.1540   -2.4879   21.8231 O.2     1  UNL1       -0.1499
     17 C           6.3042   -2.9060   20.8727 C.ar    1  UNL1        0.1443
     18 C           5.1560   -2.8212   21.8343 C.ar    1  UNL1        0.0246
     19 C           3.9397   -2.0177   21.4809 C.ar    1  UNL1        0.0357
     20 C           3.8713   -1.2991   20.1660 C.ar    1  UNL1        0.1319
     21 N           5.0195   -1.3839   19.2044 N.ar    1  UNL1       -0.2278
     22 C           6.2359   -2.1874   19.5578 C.ar    1  UNL1        0.1204
     23 N           2.6550   -0.4956   19.8126 N.pl3   1  UNL1       -0.2881
     24 C           2.6282    0.3064   18.5453 C.3     1  UNL1        0.1242
     25 C           1.4119    1.1099   18.1917 C.3     1  UNL1        0.1636
     26 O           0.2224    1.1114   19.1056 O.3     1  UNL1       -0.3501
     27 C           0.2492    0.3094   20.3730 C.3     1  UNL1        0.1636
     28 C           1.4655   -0.4941   20.7264 C.3     1  UNL1        0.1242
     29 C           8.3835   -6.5729   30.1396 C.3     1  UNL1        0.1180
     30 C           7.9656   -5.3790   30.9459 C.ar    1  UNL1        0.0693
     31 C           8.8479   -4.2351   31.3497 C.ar    1  UNL1        0.0379
     32 C           8.0196   -3.2686   32.1432 C.ar    1  UNL1        0.1211
     33 N           6.6254   -3.8151   32.2299 N.ar    1  UNL1       -0.1713
     34 N           6.5920   -5.1195   31.4898 N.ar    1  UNL1       -0.2784
     35 H           5.8065   -5.7028   31.3804 H       1  UNL1        0.1886
@<TRIPOS>BOND
     1    14    15    2
     2    15    16    2
     3    15    12    1
     4    12     1    1
     5     1     2   ar
     6     2     3   ar
     7     3     4   ar
     8     4     5   ar
     9     5     6   ar
    10     5     7    1
    11     7     8    1
    12     8     9    1
    13     9    29    1
    14    29    30    1
    15    30    31   ar
    16    31    32   ar
    17    32    33   ar
    18    33    34   ar
    19     9    10    1
    20    10    11    1
    21    15    17    1
    22    17    18   ar
    23    18    19   ar
    24    19    20   ar
    25    20    23    1
    26    23    24    1
    27    24    25    1
    28    25    26    1
    29    26    27    1
    30    27    28    1
    31    20    21   ar
    32    21    22   ar
    33     6     1   ar
    34    34    30   ar
    35    22    17   ar
    36    11     4    1
    37    28    23    1
    38    12    13    1
    39    34    35    1
@<TRIPOS>MOLECULE
*****
 35 39 0 0 0
SMALL
GASTEIGER

@<TRIPOS>ATOM
      1 C           7.8161   -6.6994   26.5711 C.ar    1  UNL1        0.0644
      2 C           8.4118   -7.7969   25.7401 C.ar    1  UNL1        0.0155
      3 C           8.7497   -7.5481   24.2999 C.ar    1  UNL1       -0.0032
      4 C           8.4918   -6.2017   23.6909 C.ar    1  UNL1       -0.0246
      5 C           7.8961   -5.1043   24.5219 C.ar    1  UNL1       -0.0234
      6 C           7.5582   -5.3531   25.9620 C.ar    1  UNL1        0.0113
      7 C           7.5607   -3.7000   24.1151 C.3     1  UNL1        0.0434
      8 C           7.7383   -3.0463   22.7766 C.3     1  UNL1        0.0771
      9 N           8.2951   -3.6356   21.5147 N.3     1  UNL1       -0.2671
     10 C           8.8119   -5.0239   21.2792 C.3     1  UNL1        0.0771
     11 C           8.8994   -6.1660   22.2477 C.3     1  UNL1        0.0434
     12 N           7.4782   -6.9483   28.0112 N.pl3   1  UNL1       -0.2150
     13 H           7.4577   -7.8687   28.3601 H       1  UNL1        0.1737
     14 O           5.7816   -5.7237   28.3604 O.2     1  UNL1       -0.1499
     15 S           7.1716   -5.7948   28.9197 S.O2    1  UNL1        0.0751
     16 O           8.5616   -5.8658   29.4791 O.2     1  UNL1       -0.1499
     17 C           6.8650   -4.6413   29.8283 C.ar    1  UNL1        0.1443
     18 C           6.8787   -4.8340   31.3158 C.ar    1  UNL1        0.0246
     19 C           6.5721   -3.6804   32.2243 C.ar    1  UNL1        0.0357
     20 C           6.2518   -2.3343   31.6454 C.ar    1  UNL1        0.1319
     21 N           6.2380   -2.1415   30.1578 N.ar    1  UNL1       -0.2278
     22 C           6.5446   -3.2951   29.2493 C.ar    1  UNL1        0.1204
     23 N           5.9451   -1.1807   32.5538 N.pl3   1  UNL1       -0.2881
     24 C           6.4121    0.1994   32.1972 C.3     1  UNL1        0.1242
     25 C           6.1055    1.3531   33.1056 C.3     1  UNL1        0.1636
     26 O           5.3320    1.1265   34.3706 O.3     1  UNL1       -0.3501
     27 C           4.8650   -0.2537   34.7272 C.3     1  UNL1        0.1636
     28 C           5.1716   -1.4072   33.8188 C.3     1  UNL1        0.1242
     29 C           8.3413   -2.7146   20.3316 C.3     1  UNL1        0.1180
     30 C           7.1754   -2.6434   19.3904 C.ar    1  UNL1        0.0693
     31 C           5.8581   -3.3396   19.5644 C.ar    1  UNL1        0.0379
     32 C           4.9908   -2.9899   18.3916 C.ar    1  UNL1        0.1211
     33 N           5.7718   -2.0777   17.4929 N.ar    1  UNL1       -0.1713
     34 N           7.1221   -1.8635   18.1102 N.ar    1  UNL1       -0.2784
     35 H           7.8462   -1.3086   17.7401 H       1  UNL1        0.1886
@<TRIPOS>BOND
     1    14    15    2
     2    15    16    2
     3    15    12    1
     4    12     1    1
     5     1     2   ar
     6     2     3   ar
     7     3     4   ar
     8     4     5   ar
     9     5     6   ar
    10     5     7    1
    11     7     8    1
    12     8     9    1
    13     9    29    1
    14    29    30    1
    15    30    31   ar
    16    31    32   ar
    17    32    33   ar
    18    33    34   ar
    19     9    10    1
    20    10    11    1
    21    15    17    1
    22    17    18   ar
    23    18    19   ar
    24    19    20   ar
    25    20    23    1
    26    23    24    1
    27    24    25    1
    28    25    26    1
    29    26    27    1
    30    27    28    1
    31    20    21   ar
    32    21    22   ar
    33     6     1   ar
    34    34    30   ar
    35    22    17   ar
    36    11     4    1
    37    28    23    1
    38    12    13    1
    39    34    35    1
@<TRIPOS>MOLECULE
*****
 35 39 0 0 0
SMALL
GASTEIGER

@<TRIPOS>ATOM
      1 C           1.9685    1.1667   25.8105 C.ar    1  UNL1        0.0644
      2 C           2.9575    0.2545   26.4737 C.ar    1  UNL1        0.0155
      3 C           3.6862   -0.7771   25.6644 C.ar    1  UNL1       -0.0032
      4 C           3.4257   -0.8966   24.1920 C.ar    1  UNL1       -0.0246
      5 C           2.4368    0.0156   23.5289 C.ar    1  UNL1       -0.0234
      6 C           1.7082    1.0472   24.3380 C.ar    1  UNL1        0.0113
      7 C           2.0315    0.0647   22.0855 C.3     1  UNL1        0.0434
      8 C           2.5152   -0.7862   20.9488 C.3     1  UNL1        0.0771
      9 N           3.5235   -1.8964   20.9748 N.3     1  UNL1       -0.2671
     10 C           4.2973   -2.4299   22.1438 C.3     1  UNL1        0.0771
     11 C           4.2538   -1.9849   23.5756 C.3     1  UNL1        0.0434
     12 N           1.2399    2.1983   26.6197 N.pl3   1  UNL1       -0.2150
     13 H           1.6557    2.5721   27.4300 H       1  UNL1        0.1737
     14 O           0.4688    3.9474   25.6998 O.2     1  UNL1       -0.1499
     15 S          -0.1222    2.6605   26.1942 S.O2    1  UNL1        0.0751
     16 O          -0.7133    1.3735   26.6887 O.2     1  UNL1       -0.1499
     17 C          -1.4844    3.1226   25.7688 C.ar    1  UNL1        0.1443
     18 C          -1.8009    3.2821   24.3113 C.ar    1  UNL1        0.0246
     19 C          -3.1631    3.7442   23.8859 C.ar    1  UNL1        0.0357
     20 C          -4.2087    4.0468   24.9179 C.ar    1  UNL1        0.1319
     21 N          -3.8921    3.8874   26.3755 N.ar    1  UNL1       -0.2278
     22 C          -2.5300    3.4253   26.8009 C.ar    1  UNL1        0.1204
     23 N          -5.5709    4.5090   24.4926 N.pl3   1  UNL1       -0.2881
     24 C          -6.1287    4.0796   23.1680 C.3     1  UNL1        0.1242
     25 C          -7.4909    4.5417   22.7425 C.3     1  UNL1        0.1636
     26 O          -8.2952    5.4331   23.6417 O.3     1  UNL1       -0.3501
     27 C          -7.7373    5.8624   24.9663 C.3     1  UNL1        0.1636
     28 C          -6.3752    5.4004   25.3916 C.3     1  UNL1        0.1242
     29 C           3.7938   -2.5610   19.6575 C.3     1  UNL1        0.1180
     30 C           4.8746   -2.0352   18.7599 C.ar    1  UNL1        0.0693
     31 C           5.0264   -0.6152   18.3009 C.ar    1  UNL1        0.0379
     32 C           6.2388   -0.5396   17.4211 C.ar    1  UNL1        0.1211
     33 N           6.8365   -1.9128   17.3362 N.ar    1  UNL1       -0.1713
     34 N           5.9933   -2.8372   18.1637 N.ar    1  UNL1       -0.2784
     35 H           6.1471   -3.8010   18.2928 H       1  UNL1        0.1886
@<TRIPOS>BOND
     1    14    15    2
     2    15    16    2
     3    15    12    1
     4    12     1    1
     5     1     2   ar
     6     2     3   ar
     7     3     4   ar
     8     4     5   ar
     9     5     6   ar
    10     5     7    1
    11     7     8    1
    12     8     9    1
    13     9    29    1
    14    29    30    1
    15    30    31   ar
    16    31    32   ar
    17    32    33   ar
    18    33    34   ar
    19     9    10    1
    20    10    11    1
    21    15    17    1
    22    17    18   ar
    23    18    19   ar
    24    19    20   ar
    25    20    23    1
    26    23    24    1
    27    24    25    1
    28    25    26    1
    29    26    27    1
    30    27    28    1
    31    20    21   ar
    32    21    22   ar
    33     6     1   ar
    34    34    30   ar
    35    22    17   ar
    36    11     4    1
    37    28    23    1
    38    12    13    1
    39    34    35    1
@<TRIPOS>MOLECULE
*****
 35 39 0 0 0
SMALL
GASTEIGER

@<TRIPOS>ATOM
      1 C          -0.2897    1.9873   25.2634 C.ar    1  UNL1        0.0644
      2 C          -0.7877    2.9038   24.1854 C.ar    1  UNL1        0.0155
      3 C          -0.2213    2.8093   22.7997 C.ar    1  UNL1       -0.0032
      4 C           0.8432    1.7982   22.4920 C.ar    1  UNL1       -0.0246
      5 C           1.3412    0.8818   23.5699 C.ar    1  UNL1       -0.0234
      6 C           0.7748    0.9763   24.9556 C.ar    1  UNL1        0.0113
      7 C           2.3880   -0.1887   23.4777 C.3     1  UNL1        0.0434
      8 C           3.1952   -0.6070   22.2845 C.3     1  UNL1        0.0771
      9 N           3.1550   -0.0583   20.8892 N.3     1  UNL1       -0.2671
     10 C           2.2977    1.0444   20.3421 C.3     1  UNL1        0.0771
     11 C           1.2688    1.8706   21.0554 C.3     1  UNL1        0.0434
     12 N          -0.8561    2.0820   26.6491 N.pl3   1  UNL1       -0.2150
     13 H          -1.7761    2.4055   26.7838 H       1  UNL1        0.1737
     14 O          -0.8207    0.4225   27.9701 O.2     1  UNL1       -0.1499
     15 S          -0.0208    1.6836   27.8296 S.O2    1  UNL1        0.0751
     16 O           0.7792    2.9447   27.6891 O.2     1  UNL1       -0.1499
     17 C           0.8146    1.2852   29.0101 C.ar    1  UNL1        0.1443
     18 C           1.2447    2.3195   30.0077 C.ar    1  UNL1        0.0246
     19 C           2.0800    1.9211   31.1882 C.ar    1  UNL1        0.0357
     20 C           2.4853    0.4885   31.3710 C.ar    1  UNL1        0.1319
     21 N           2.0552   -0.5458   30.3734 N.ar    1  UNL1       -0.2278
     22 C           1.2198   -0.1474   29.1929 C.ar    1  UNL1        0.1204
     23 N           3.3206    0.0901   32.5515 N.pl3   1  UNL1       -0.2881
     24 C           3.5099    1.0449   33.6927 C.3     1  UNL1        0.1242
     25 C           4.3452    0.6466   34.8732 C.3     1  UNL1        0.1636
     26 O           4.9913   -0.7067   34.9124 O.3     1  UNL1       -0.3501
     27 C           4.8019   -1.6615   33.7711 C.3     1  UNL1        0.1636
     28 C           3.9666   -1.2631   32.5907 C.3     1  UNL1        0.1242
     29 C           4.0966   -0.6966   19.9114 C.3     1  UNL1        0.1180
     30 C           4.3230   -2.1791   19.9466 C.ar    1  UNL1        0.0693
     31 C           3.4231   -3.2227   19.3543 C.ar    1  UNL1        0.0379
     32 C           4.0331   -4.5667   19.6218 C.ar    1  UNL1        0.1211
     33 N           5.3100   -4.3537   20.3795 N.ar    1  UNL1       -0.1713
     34 N           5.4893   -2.8780   20.5802 N.ar    1  UNL1       -0.2784
     35 H           6.2404   -2.4443   21.0460 H       1  UNL1        0.1886
@<TRIPOS>BOND
     1    14    15    2
     2    15    16    2
     3    15    12    1
     4    12     1    1
     5     1     2   ar
     6     2     3   ar
     7     3     4   ar
     8     4     5   ar
     9     5     6   ar
    10     5     7    1
    11     7     8    1
    12     8     9    1
    13     9    29    1
    14    29    30    1
    15    30    31   ar
    16    31    32   ar
    17    32    33   ar
    18    33    34   ar
    19     9    10    1
    20    10    11    1
    21    15    17    1
    22    17    18   ar
    23    18    19   ar
    24    19    20   ar
    25    20    23    1
    26    23    24    1
    27    24    25    1
    28    25    26    1
    29    26    27    1
    30    27    28    1
    31    20    21   ar
    32    21    22   ar
    33     6     1   ar
    34    34    30   ar
    35    22    17   ar
    36    11     4    1
    37    28    23    1
    38    12    13    1
    39    34    35    1
@<TRIPOS>MOLECULE
*****
 35 39 0 0 0
SMALL
GASTEIGER

@<TRIPOS>ATOM
      1 C           3.5476   -0.4809   30.5603 C.ar    1  UNL1        0.0644
      2 C           4.4845   -1.5281   31.0854 C.ar    1  UNL1        0.0155
      3 C           4.8850   -1.5192   32.5309 C.ar    1  UNL1       -0.0032
      4 C           4.3485   -0.4632   33.4514 C.ar    1  UNL1       -0.0246
      5 C           3.4117    0.5838   32.9262 C.ar    1  UNL1       -0.0234
      6 C           3.0112    0.5751   31.4807 C.ar    1  UNL1        0.0113
      7 C           2.7662    1.7174   33.6668 C.3     1  UNL1        0.0434
      8 C           2.8982    2.0838   35.1154 C.3     1  UNL1        0.0771
      9 N           3.7082    1.4071   36.1811 N.3     1  UNL1       -0.2671
     10 C           4.5863    0.1969   36.0616 C.3     1  UNL1        0.0771
     11 C           4.8713   -0.6355   34.8467 C.3     1  UNL1        0.0434
     12 N           3.1472   -0.4898   29.1148 N.pl3   1  UNL1       -0.2150
     13 H           3.5731   -1.1201   28.4898 H       1  UNL1        0.1737
     14 O           1.0298   -0.5244   28.9912 O.2     1  UNL1       -0.1499
     15 S           2.0978    0.4617   28.6214 S.O2    1  UNL1        0.0751
     16 O           3.1659    1.4479   28.2516 O.2     1  UNL1       -0.1499
     17 C           1.0484    1.4133   28.1281 C.ar    1  UNL1        0.1443
     18 C           0.0837    0.9801   27.0642 C.ar    1  UNL1        0.0246
     19 C          -0.9656    1.9316   26.5709 C.ar    1  UNL1        0.0357
     20 C          -1.0504    3.3163   27.1414 C.ar    1  UNL1        0.1319
     21 N          -0.0857    3.7495   28.2053 N.ar    1  UNL1       -0.2278
     22 C           0.9637    2.7980   28.6986 C.ar    1  UNL1        0.1204
     23 N          -2.0997    4.2679   26.6481 N.pl3   1  UNL1       -0.2881
     24 C          -1.6965    5.5320   25.9485 C.3     1  UNL1        0.1242
     25 C          -2.7458    6.4837   25.4552 C.3     1  UNL1        0.1636
     26 O          -4.1983    6.1712   25.6614 O.3     1  UNL1       -0.3501
     27 C          -4.6015    4.9070   26.3611 C.3     1  UNL1        0.1636
     28 C          -3.5522    3.9555   26.8543 C.3     1  UNL1        0.1242
     29 C           3.6297    2.0218   37.5471 C.3     1  UNL1        0.1180
     30 C           2.5421    1.6089   38.4942 C.ar    1  UNL1        0.0693
     31 C           1.3893    2.4598   38.9379 C.ar    1  UNL1        0.0379
     32 C           0.5513    1.6492   39.8817 C.ar    1  UNL1        0.1211
     33 N           1.1862    0.2974   40.0213 N.ar    1  UNL1       -0.1713
     34 N           2.4167    0.2724   39.1637 N.ar    1  UNL1       -0.2784
     35 H           3.0335   -0.4876   39.0588 H       1  UNL1        0.1886
@<TRIPOS>BOND
     1    14    15    2
     2    15    16    2
     3    15    12    1
     4    12     1    1
     5     1     2   ar
     6     2     3   ar
     7     3     4   ar
     8     4     5   ar
     9     5     6   ar
    10     5     7    1
    11     7     8    1
    12     8     9    1
    13     9    29    1
    14    29    30    1
    15    30    31   ar
    16    31    32   ar
    17    32    33   ar
    18    33    34   ar
    19     9    10    1
    20    10    11    1
    21    15    17    1
    22    17    18   ar
    23    18    19   ar
    24    19    20   ar
    25    20    23    1
    26    23    24    1
    27    24    25    1
    28    25    26    1
    29    26    27    1
    30    27    28    1
    31    20    21   ar
    32    21    22   ar
    33     6     1   ar
    34    34    30   ar
    35    22    17   ar
    36    11     4    1
    37    28    23    1
    38    12    13    1
    39    34    35    1
@<TRIPOS>MOLECULE
*****
 35 39 0 0 0
SMALL
GASTEIGER

@<TRIPOS>ATOM
      1 C           4.7817   -2.0185   21.3675 C.ar    1  UNL1        0.0644
      2 C           3.9422   -2.6624   20.3042 C.ar    1  UNL1        0.0155
      3 C           2.7377   -1.9491   19.7652 C.ar    1  UNL1       -0.0032
      4 C           2.3728   -0.5918   20.2896 C.ar    1  UNL1       -0.0246
      5 C           3.2123    0.0519   21.3528 C.ar    1  UNL1       -0.0234
      6 C           4.4167   -0.6613   21.8918 C.ar    1  UNL1        0.0113
      7 C           3.0274    1.3880   22.0092 C.3     1  UNL1        0.0434
      8 C           1.9571    2.4102   21.7643 C.3     1  UNL1        0.0771
      9 N           0.8077    2.3487   20.8027 N.3     1  UNL1       -0.2671
     10 C           0.4444    1.2499   19.8483 C.3     1  UNL1        0.0771
     11 C           1.1409   -0.0588   19.6200 C.3     1  UNL1        0.0434
     12 N           5.9861   -2.7318   21.9064 N.pl3   1  UNL1       -0.2150
     13 H           6.7002   -3.0235   21.2947 H       1  UNL1        0.1737
     14 O           4.7540   -3.6574   23.3643 O.2     1  UNL1       -0.1499
     15 S           6.1026   -3.0007   23.3776 S.O2    1  UNL1        0.0751
     16 O           7.4512   -2.3440   23.3908 O.2     1  UNL1       -0.1499
     17 C           6.2190   -3.2696   24.8487 C.ar    1  UNL1        0.1443
     18 C           5.8548   -2.2019   25.8374 C.ar    1  UNL1        0.0246
     19 C           5.9713   -2.4709   27.3084 C.ar    1  UNL1        0.0357
     20 C           6.4519   -3.8074   27.7909 C.ar    1  UNL1        0.1319
     21 N           6.8161   -4.8751   26.8022 N.ar    1  UNL1       -0.2278
     22 C           6.6997   -4.6062   25.3311 C.ar    1  UNL1        0.1204
     23 N           6.5684   -4.0764   29.2620 N.pl3   1  UNL1       -0.2881
     24 C           6.8859   -5.4593   29.7486 C.3     1  UNL1        0.1242
     25 C           7.0024   -5.7284   31.2197 C.3     1  UNL1        0.1636
     26 O           6.8014   -4.6146   32.2041 O.3     1  UNL1       -0.3501
     27 C           6.4839   -3.2317   31.7174 C.3     1  UNL1        0.1636
     28 C           6.3674   -2.9627   30.2464 C.3     1  UNL1        0.1242
     29 C          -0.0984    3.5441   20.7942 C.3     1  UNL1        0.1180
     30 C          -1.4840    3.4390   21.3592 C.ar    1  UNL1        0.0693
     31 C          -1.9216    3.9098   22.7146 C.ar    1  UNL1        0.0379
     32 C          -3.3832    3.6064   22.8610 C.ar    1  UNL1        0.1211
     33 N          -3.8491    2.9483   21.5962 N.ar    1  UNL1       -0.1713
     34 N          -2.6753    2.8448   20.6680 N.ar    1  UNL1       -0.2784
     35 H          -2.6851    2.4553   19.7638 H       1  UNL1        0.1886
@<TRIPOS>BOND
     1    14    15    2
     2    15    16    2
     3    15    12    1
     4    12     1    1
     5     1     2   ar
     6     2     3   ar
     7     3     4   ar
     8     4     5   ar
     9     5     6   ar
    10     5     7    1
    11     7     8    1
    12     8     9    1
    13     9    29    1
    14    29    30    1
    15    30    31   ar
    16    31    32   ar
    17    32    33   ar
    18    33    34   ar
    19     9    10    1
    20    10    11    1
    21    15    17    1
    22    17    18   ar
    23    18    19   ar
    24    19    20   ar
    25    20    23    1
    26    23    24    1
    27    24    25    1
    28    25    26    1
    29    26    27    1
    30    27    28    1
    31    20    21   ar
    32    21    22   ar
    33     6     1   ar
    34    34    30   ar
    35    22    17   ar
    36    11     4    1
    37    28    23    1
    38    12    13    1
    39    34    35    1
@<TRIPOS>MOLECULE
*****
 35 39 0 0 0
SMALL
GASTEIGER

@<TRIPOS>ATOM
      1 C           1.0600    1.6777   29.8705 C.ar    1  UNL1        0.0644
      2 C           1.9345    0.4632   29.7696 C.ar    1  UNL1        0.0155
      3 C           2.7669    0.0387   30.9431 C.ar    1  UNL1       -0.0032
      4 C           2.7246    0.8287   32.2175 C.ar    1  UNL1       -0.0246
      5 C           1.8501    2.0431   32.3184 C.ar    1  UNL1       -0.0234
      6 C           1.0178    2.4677   31.1449 C.ar    1  UNL1        0.0113
      7 C           1.6615    2.9654   33.4863 C.3     1  UNL1        0.0434
      8 C           2.3008    2.9009   34.8417 C.3     1  UNL1        0.0771
      9 N           3.2866    1.8983   35.3639 N.3     1  UNL1       -0.2671
     10 C           3.8767    0.7124   34.6598 C.3     1  UNL1        0.0771
     11 C           3.6265    0.2364   33.2595 C.3     1  UNL1        0.0434
     12 N           0.2277    2.1021   28.6970 N.pl3   1  UNL1       -0.2150
     13 H          -0.5960    2.6219   28.8400 H       1  UNL1        0.1737
     14 O           1.7239    2.7813   27.3553 O.2     1  UNL1       -0.1499
     15 S           0.6506    1.7346   27.3055 S.O2    1  UNL1        0.0751
     16 O          -0.4227    0.6879   27.2558 O.2     1  UNL1       -0.1499
     17 C           1.0735    1.3670   25.9141 C.ar    1  UNL1        0.1443
     18 C           0.1863    1.6940   24.7496 C.ar    1  UNL1        0.0246
     19 C           0.6093    1.3264   23.3582 C.ar    1  UNL1        0.0357
     20 C           1.9193    0.6319   23.1312 C.ar    1  UNL1        0.1319
     21 N           2.8065    0.3050   24.2957 N.ar    1  UNL1       -0.2278
     22 C           2.3836    0.6725   25.6872 C.ar    1  UNL1        0.1204
     23 N           2.3422    0.2643   21.7398 N.pl3   1  UNL1       -0.2881
     24 C           2.1444    1.2362   20.6145 C.3     1  UNL1        0.1242
     25 C           2.5673    0.8687   19.2231 C.3     1  UNL1        0.1636
     26 O           3.1881   -0.4707   18.9570 O.3     1  UNL1       -0.3501
     27 C           3.3860   -1.4425   20.0824 C.3     1  UNL1        0.1636
     28 C           2.9630   -1.0750   21.4737 C.3     1  UNL1        0.1242
     29 C           3.7428    2.1093   36.7772 C.3     1  UNL1        0.1180
     30 C           2.8174    1.8039   37.9176 C.ar    1  UNL1        0.0693
     31 C           1.7711    2.7233   38.4745 C.ar    1  UNL1        0.0379
     32 C           1.0830    2.0130   39.6024 C.ar    1  UNL1        0.1211
     33 N           1.7038    0.6548   39.7425 N.ar    1  UNL1       -0.1713
     34 N           2.7758    0.5255   38.7012 N.ar    1  UNL1       -0.2784
     35 H           3.3511   -0.2604   38.5574 H       1  UNL1        0.1886
@<TRIPOS>BOND
     1    14    15    2
     2    15    16    2
     3    15    12    1
     4    12     1    1
     5     1     2   ar
     6     2     3   ar
     7     3     4   ar
     8     4     5   ar
     9     5     6   ar
    10     5     7    1
    11     7     8    1
    12     8     9    1
    13     9    29    1
    14    29    30    1
    15    30    31   ar
    16    31    32   ar
    17    32    33   ar
    18    33    34   ar
    19     9    10    1
    20    10    11    1
    21    15    17    1
    22    17    18   ar
    23    18    19   ar
    24    19    20   ar
    25    20    23    1
    26    23    24    1
    27    24    25    1
    28    25    26    1
    29    26    27    1
    30    27    28    1
    31    20    21   ar
    32    21    22   ar
    33     6     1   ar
    34    34    30   ar
    35    22    17   ar
    36    11     4    1
    37    28    23    1
    38    12    13    1
    39    34    35    1
