@<TRIPOS>MOLECULE
*****
 30 34 0 0 0
SMALL
GASTEIGER

@<TRIPOS>ATOM
      1 N         -10.3739  -19.4598   21.8900 N.3     1  UNL1       -0.2725
      2 C          -9.8079  -19.2186   20.5220 C.3     1  UNL1        0.0738
      3 C          -8.3343  -19.3658   20.2833 C.3     1  UNL1        0.0376
      4 C          -7.4267  -19.7541   21.4127 C.3     1  UNL1        0.0842
      5 C          -7.9928  -19.9953   22.7808 C.3     1  UNL1        0.0376
      6 C          -9.4663  -19.8481   23.0194 C.3     1  UNL1        0.0738
      7 N          -5.9532  -19.9013   21.1741 N.am    1  UNL1       -0.2408
      8 C          -5.3043  -20.8842   20.2452 C.2     1  UNL1        0.3310
      9 O          -6.0150  -21.8924   19.3918 O.2     1  UNL1       -0.2501
     10 N          -3.8199  -20.6818   20.3195 N.am    1  UNL1       -0.1646
     11 C          -3.5513  -19.5738   21.2943 C.2     1  UNL1        0.0738
     12 C          -2.2766  -18.9419   21.7692 C.3     1  UNL1        0.0915
     13 C          -2.3202  -17.8275   22.7724 C.2     1  UNL1        0.0787
     14 N          -3.6388  -17.3452   23.3007 N.2     1  UNL1       -0.2452
     15 C          -4.9135  -17.9771   22.8257 C.2     1  UNL1        0.1144
     16 C          -4.8698  -19.0915   21.8225 C.2     1  UNL1        0.0860
     17 C         -11.8474  -19.3126   22.1286 C.3     1  UNL1        0.0739
     18 C         -12.3421  -18.4917   23.2825 C.3     1  UNL1        0.0392
     19 C         -12.2228  -16.9969   23.2451 C.3     1  UNL1        0.0998
     20 O         -12.5699  -16.1769   20.3803 O.2     1  UNL1       -0.2705
     21 C         -11.2605  -15.9434   21.0739 C.2     1  UNL1        0.2739
     22 C         -10.1247  -15.2999   20.3351 C.3     1  UNL1        0.2900
     23 O          -8.8154  -15.0663   21.0286 O.3     1  UNL1       -0.4643
     24 C          -8.6418  -15.4763   22.4611 C.ar    1  UNL1        0.1528
     25 C          -7.3324  -15.2428   23.1546 C.ar    1  UNL1        0.0382
     26 C          -7.1589  -15.6528   24.5870 C.ar    1  UNL1        0.0032
     27 C          -8.2947  -16.2963   25.3258 C.ar    1  UNL1        0.0015
     28 C          -9.6040  -16.5298   24.6323 C.ar    1  UNL1        0.0180
     29 C          -9.7776  -16.1198   23.1999 C.ar    1  UNL1        0.0881
     30 N         -11.0870  -16.3534   22.5063 N.am    1  UNL1       -0.2529
@<TRIPOS>BOND
     1    20    21    2
     2    21    22    1
     3    22    23    1
     4    23    24    1
     5    24    25   ar
     6    25    26   ar
     7    26    27   ar
     8    27    28   ar
     9    28    29   ar
    10    29    30    1
    11    30    19    1
    12    19    18    1
    13    18    17    1
    14    17     1    1
    15     1     2    1
    16     2     3    1
    17     3     4    1
    18     4     7    1
    19     7     8   am
    20     8     9    2
    21     8    10    1
    22    10    11    2
    23    11    12    1
    24    12    13    1
    25    13    14    2
    26    14    15    1
    27    15    16    2
    28     4     5    1
    29     5     6    1
    30    30    21   am
    31     6     1    1
    32    29    24   ar
    33    16     7    1
    34    16    11    1
@<TRIPOS>MOLECULE
*****
 30 34 0 0 0
SMALL
GASTEIGER

@<TRIPOS>ATOM
      1 N          -6.6665  -20.3794   20.6057 N.3     1  UNL1       -0.2725
      2 C          -7.0783  -20.0516   22.0103 C.3     1  UNL1        0.0738
      3 C          -8.3822  -19.3557   22.2666 C.3     1  UNL1        0.0376
      4 C          -9.2743  -18.9877   21.1182 C.3     1  UNL1        0.0842
      5 C          -8.8625  -19.3156   19.7136 C.3     1  UNL1        0.0376
      6 C          -7.5587  -20.0115   19.4573 C.3     1  UNL1        0.0738
      7 N         -10.5782  -18.2919   21.3745 N.am    1  UNL1       -0.2408
      8 C         -11.2585  -17.3258   20.4505 C.2     1  UNL1        0.3310
      9 O         -10.7543  -16.8859   19.1080 O.2     1  UNL1       -0.2501
     10 N         -12.5314  -16.8768   21.1046 N.am    1  UNL1       -0.1646
     11 C         -12.6379  -17.5654   22.4330 C.2     1  UNL1        0.0738
     12 C         -13.6781  -17.5090   23.5122 C.3     1  UNL1        0.0915
     13 C         -13.5112  -18.3272   24.7583 C.2     1  UNL1        0.0787
     14 N         -12.3039  -19.2019   24.9251 N.2     1  UNL1       -0.2452
     15 C         -11.2637  -19.2582   23.8458 C.2     1  UNL1        0.1144
     16 C         -11.4307  -18.4400   22.5998 C.2     1  UNL1        0.0860
     17 C          -5.3627  -21.0753   20.3494 C.3     1  UNL1        0.0739
     18 C          -4.1459  -20.2776   19.9846 C.3     1  UNL1        0.0392
     19 C          -3.1266  -19.9427   21.0330 C.3     1  UNL1        0.0998
     20 O          -0.6394  -18.9536   19.6781 O.2     1  UNL1       -0.2705
     21 C          -1.4405  -18.0275   20.5446 C.2     1  UNL1        0.2739
     22 C          -0.9979  -16.6067   20.7336 C.3     1  UNL1        0.2900
     23 O          -1.7988  -15.6806   21.6000 O.3     1  UNL1       -0.4643
     24 C          -3.0424  -16.1752   22.2775 C.ar    1  UNL1        0.1528
     25 C          -3.8434  -15.2490   23.1439 C.ar    1  UNL1        0.0382
     26 C          -5.0869  -15.7436   23.8213 C.ar    1  UNL1        0.0032
     27 C          -5.5295  -17.1643   23.6323 C.ar    1  UNL1        0.0015
     28 C          -4.7286  -18.0904   22.7659 C.ar    1  UNL1        0.0180
     29 C          -3.4850  -17.5959   22.0885 C.ar    1  UNL1        0.0881
     30 N          -2.6840  -18.5220   21.2220 N.am    1  UNL1       -0.2529
@<TRIPOS>BOND
     1    20    21    2
     2    21    22    1
     3    22    23    1
     4    23    24    1
     5    24    25   ar
     6    25    26   ar
     7    26    27   ar
     8    27    28   ar
     9    28    29   ar
    10    29    30    1
    11    30    19    1
    12    19    18    1
    13    18    17    1
    14    17     1    1
    15     1     2    1
    16     2     3    1
    17     3     4    1
    18     4     7    1
    19     7     8   am
    20     8     9    2
    21     8    10    1
    22    10    11    2
    23    11    12    1
    24    12    13    1
    25    13    14    2
    26    14    15    1
    27    15    16    2
    28     4     5    1
    29     5     6    1
    30    30    21   am
    31     6     1    1
    32    29    24   ar
    33    16     7    1
    34    16    11    1
@<TRIPOS>MOLECULE
*****
 30 34 0 0 0
SMALL
GASTEIGER

@<TRIPOS>ATOM
      1 N          -5.6716  -19.8295   20.4940 N.3     1  UNL1       -0.2725
      2 C          -5.9247  -20.6064   21.7519 C.3     1  UNL1        0.0738
      3 C          -7.2031  -20.4082   22.5113 C.3     1  UNL1        0.0376
      4 C          -8.2282  -19.4332   22.0128 C.3     1  UNL1        0.0842
      5 C          -7.9749  -18.6563   20.7548 C.3     1  UNL1        0.0376
      6 C          -6.6967  -18.8545   19.9955 C.3     1  UNL1        0.0738
      7 N          -9.5064  -19.2350   22.7722 N.am    1  UNL1       -0.2408
      8 C          -9.9783  -20.0579   23.9341 C.2     1  UNL1        0.3310
      9 O          -9.2548  -21.2235   24.5406 O.2     1  UNL1       -0.2501
     10 N         -11.3008  -19.5107   24.3830 N.am    1  UNL1       -0.1646
     11 C         -11.6463  -18.3494   23.4985 C.2     1  UNL1        0.0738
     12 C         -12.8274  -17.4252   23.4711 C.3     1  UNL1        0.0915
     13 C         -12.8995  -16.3306   22.4481 C.2     1  UNL1        0.0787
     14 N         -11.7905  -16.1602   21.4524 N.2     1  UNL1       -0.2452
     15 C         -10.6094  -17.0845   21.4800 C.2     1  UNL1        0.1144
     16 C         -10.5373  -18.1791   22.5030 C.2     1  UNL1        0.0860
     17 C          -4.3933  -20.0277   19.7346 C.3     1  UNL1        0.0739
     18 C          -3.2328  -20.7187   20.3870 C.3     1  UNL1        0.0392
     19 C          -2.4827  -20.0408   21.4952 C.3     1  UNL1        0.0998
     20 O          -0.2339  -18.9591   19.8301 O.2     1  UNL1       -0.2705
     21 C          -1.1109  -18.0216   20.6060 C.2     1  UNL1        0.2739
     22 C          -0.8634  -16.5432   20.5494 C.3     1  UNL1        0.2900
     23 O          -1.7403  -15.6057   21.3252 O.3     1  UNL1       -0.4643
     24 C          -2.8648  -16.1465   22.1578 C.ar    1  UNL1        0.1528
     25 C          -3.7417  -15.2090   22.9337 C.ar    1  UNL1        0.0382
     26 C          -4.8661  -15.7499   23.7662 C.ar    1  UNL1        0.0032
     27 C          -5.1136  -17.2282   23.8229 C.ar    1  UNL1        0.0015
     28 C          -4.2367  -18.1657   23.0470 C.ar    1  UNL1        0.0180
     29 C          -3.1123  -17.6249   22.2145 C.ar    1  UNL1        0.0881
     30 N          -2.2353  -18.5624   21.4385 N.am    1  UNL1       -0.2529
@<TRIPOS>BOND
     1    20    21    2
     2    21    22    1
     3    22    23    1
     4    23    24    1
     5    24    25   ar
     6    25    26   ar
     7    26    27   ar
     8    27    28   ar
     9    28    29   ar
    10    29    30    1
    11    30    19    1
    12    19    18    1
    13    18    17    1
    14    17     1    1
    15     1     2    1
    16     2     3    1
    17     3     4    1
    18     4     7    1
    19     7     8   am
    20     8     9    2
    21     8    10    1
    22    10    11    2
    23    11    12    1
    24    12    13    1
    25    13    14    2
    26    14    15    1
    27    15    16    2
    28     4     5    1
    29     5     6    1
    30    30    21   am
    31     6     1    1
    32    29    24   ar
    33    16     7    1
    34    16    11    1
@<TRIPOS>MOLECULE
*****
 30 34 0 0 0
SMALL
GASTEIGER

@<TRIPOS>ATOM
      1 N          -5.7956  -16.3070   23.3969 N.3     1  UNL1       -0.2725
      2 C          -6.3364  -17.5255   22.7094 C.3     1  UNL1        0.0738
      3 C          -7.7959  -17.6117   22.3741 C.3     1  UNL1        0.0376
      4 C          -8.7146  -16.4795   22.7263 C.3     1  UNL1        0.0842
      5 C          -8.1737  -15.2609   23.4139 C.3     1  UNL1        0.0376
      6 C          -6.7142  -15.1747   23.7492 C.3     1  UNL1        0.0738
      7 N         -10.1740  -16.5657   22.3910 N.am    1  UNL1       -0.2408
      8 C         -10.8451  -15.9366   21.2062 C.2     1  UNL1        0.3310
      9 O         -10.1746  -15.1108   20.1487 O.2     1  UNL1       -0.2501
     10 N         -12.3045  -16.2782   21.2646 N.am    1  UNL1       -0.1646
     11 C         -12.5354  -17.1185   22.4856 C.2     1  UNL1        0.0738
     12 C         -13.7745  -17.7447   23.0532 C.3     1  UNL1        0.0915
     13 C         -13.6970  -18.5488   24.3172 C.2     1  UNL1        0.0787
     14 N         -12.3802  -18.7265   25.0134 N.2     1  UNL1       -0.2452
     15 C         -11.1411  -18.1001   24.4456 C.2     1  UNL1        0.1144
     16 C         -11.2187  -17.2961   23.1817 C.2     1  UNL1        0.0860
     17 C          -4.3361  -16.2208   23.7322 C.3     1  UNL1        0.0739
     18 C          -3.5372  -17.4745   23.9323 C.3     1  UNL1        0.0392
     19 C          -2.4052  -17.7987   23.0030 C.3     1  UNL1        0.0998
     20 O          -0.8639  -16.4025   20.8407 O.2     1  UNL1       -0.2705
     21 C          -1.9128  -17.4129   20.4813 C.2     1  UNL1        0.2739
     22 C          -2.1910  -17.7252   19.0408 C.3     1  UNL1        0.2900
     23 O          -3.2398  -18.7355   18.6814 O.3     1  UNL1       -0.4643
     24 C          -4.0105  -19.4336   19.7625 C.ar    1  UNL1        0.1528
     25 C          -5.0593  -20.4439   19.4031 C.ar    1  UNL1        0.0382
     26 C          -5.8299  -21.1420   20.4843 C.ar    1  UNL1        0.0032
     27 C          -5.5517  -20.8297   21.9248 C.ar    1  UNL1        0.0015
     28 C          -4.5029  -19.8194   22.2842 C.ar    1  UNL1        0.0180
     29 C          -3.7323  -19.1213   21.2031 C.ar    1  UNL1        0.0881
     30 N          -2.6834  -18.1110   21.5624 N.am    1  UNL1       -0.2529
@<TRIPOS>BOND
     1    20    21    2
     2    21    22    1
     3    22    23    1
     4    23    24    1
     5    24    25   ar
     6    25    26   ar
     7    26    27   ar
     8    27    28   ar
     9    28    29   ar
    10    29    30    1
    11    30    19    1
    12    19    18    1
    13    18    17    1
    14    17     1    1
    15     1     2    1
    16     2     3    1
    17     3     4    1
    18     4     7    1
    19     7     8   am
    20     8     9    2
    21     8    10    1
    22    10    11    2
    23    11    12    1
    24    12    13    1
    25    13    14    2
    26    14    15    1
    27    15    16    2
    28     4     5    1
    29     5     6    1
    30    30    21   am
    31     6     1    1
    32    29    24   ar
    33    16     7    1
    34    16    11    1
@<TRIPOS>MOLECULE
*****
 30 34 0 0 0
SMALL
GASTEIGER

@<TRIPOS>ATOM
      1 N          -6.7300  -15.8236   24.1209 N.3     1  UNL1       -0.2725
      2 C          -5.2874  -15.6441   24.4905 C.3     1  UNL1        0.0738
      3 C          -4.2327  -16.4747   23.8213 C.3     1  UNL1        0.0376
      4 C          -4.6207  -17.4850   22.7826 C.3     1  UNL1        0.0842
      5 C          -6.0634  -17.6645   22.4131 C.3     1  UNL1        0.0376
      6 C          -7.1180  -16.8339   23.0822 C.3     1  UNL1        0.0738
      7 N          -3.5661  -18.3156   22.1135 N.am    1  UNL1       -0.2408
      8 C          -3.5520  -19.8125   22.0174 C.2     1  UNL1        0.3310
      9 O          -4.5901  -20.7415   22.5737 O.2     1  UNL1       -0.2501
     10 N          -2.3177  -20.2173   21.2675 N.am    1  UNL1       -0.1646
     11 C          -1.5688  -18.9706   20.9001 C.2     1  UNL1        0.0738
     12 C          -0.2840  -18.7538   20.1570 C.3     1  UNL1        0.0915
     13 C           0.2293  -17.3616   19.9366 C.2     1  UNL1        0.0787
     14 N          -0.5424  -16.1863   20.4595 N.2     1  UNL1       -0.2452
     15 C          -1.8272  -16.4032   21.2026 C.2     1  UNL1        0.1144
     16 C          -2.3404  -17.7953   21.4229 C.2     1  UNL1        0.0860
     17 C          -7.7846  -14.9930   24.7900 C.3     1  UNL1        0.0739
     18 C          -9.0693  -15.6273   25.2340 C.3     1  UNL1        0.0392
     19 C         -10.0658  -16.0956   24.2153 C.3     1  UNL1        0.0998
     20 O          -9.5356  -18.2004   26.2863 O.2     1  UNL1       -0.2705
     21 C          -9.8674  -18.5997   24.8789 C.2     1  UNL1        0.2739
     22 C          -9.9340  -20.0513   24.5071 C.3     1  UNL1        0.2900
     23 O         -10.2657  -20.4506   23.0998 O.3     1  UNL1       -0.4643
     24 C         -10.5309  -19.3982   22.0643 C.ar    1  UNL1        0.1528
     25 C         -10.8626  -19.7975   20.6570 C.ar    1  UNL1        0.0382
     26 C         -11.1277  -18.7451   19.6215 C.ar    1  UNL1        0.0032
     27 C         -11.0610  -17.2935   19.9934 C.ar    1  UNL1        0.0015
     28 C         -10.7293  -16.8942   21.4006 C.ar    1  UNL1        0.0180
     29 C         -10.4642  -17.9466   22.4361 C.ar    1  UNL1        0.0881
     30 N         -10.1325  -17.5473   23.8435 N.am    1  UNL1       -0.2529
@<TRIPOS>BOND
     1    20    21    2
     2    21    22    1
     3    22    23    1
     4    23    24    1
     5    24    25   ar
     6    25    26   ar
     7    26    27   ar
     8    27    28   ar
     9    28    29   ar
    10    29    30    1
    11    30    19    1
    12    19    18    1
    13    18    17    1
    14    17     1    1
    15     1     2    1
    16     2     3    1
    17     3     4    1
    18     4     7    1
    19     7     8   am
    20     8     9    2
    21     8    10    1
    22    10    11    2
    23    11    12    1
    24    12    13    1
    25    13    14    2
    26    14    15    1
    27    15    16    2
    28     4     5    1
    29     5     6    1
    30    30    21   am
    31     6     1    1
    32    29    24   ar
    33    16     7    1
    34    16    11    1
@<TRIPOS>MOLECULE
*****
 30 34 0 0 0
SMALL
GASTEIGER

@<TRIPOS>ATOM
      1 N         -10.1823  -19.7516   22.4873 N.3     1  UNL1       -0.2725
      2 C          -9.1363  -20.1952   23.4666 C.3     1  UNL1        0.0738
      3 C          -7.6928  -20.2258   23.0598 C.3     1  UNL1        0.0376
      4 C          -7.2954  -19.8128   21.6736 C.3     1  UNL1        0.0842
      5 C          -8.3414  -19.3692   20.6942 C.3     1  UNL1        0.0376
      6 C          -9.7849  -19.3386   21.1011 C.3     1  UNL1        0.0738
      7 N          -5.8520  -19.8435   21.2668 N.am    1  UNL1       -0.2408
      8 C          -5.2261  -20.8143   20.3099 C.2     1  UNL1        0.3310
      9 O          -5.9337  -21.9250   19.5918 O.2     1  UNL1       -0.2501
     10 N          -3.7683  -20.4795   20.1971 N.am    1  UNL1       -0.1646
     11 C          -3.4932  -19.3017   21.0843 C.2     1  UNL1        0.0738
     12 C          -2.2364  -18.5364   21.3755 C.3     1  UNL1        0.0915
     13 C          -2.2674  -17.3779   22.3279 C.2     1  UNL1        0.0787
     14 N          -3.5553  -16.9848   22.9890 N.2     1  UNL1       -0.2452
     15 C          -4.8120  -17.7502   22.6977 C.2     1  UNL1        0.1144
     16 C          -4.7810  -18.9086   21.7454 C.2     1  UNL1        0.0860
     17 C         -11.6257  -19.7210   22.8941 C.3     1  UNL1        0.0739
     18 C         -12.2071  -18.4797   23.5034 C.3     1  UNL1        0.0392
     19 C         -11.3002  -17.4055   24.0267 C.3     1  UNL1        0.0998
     20 O          -8.4766  -16.8376   24.8663 O.2     1  UNL1       -0.2705
     21 C          -8.9581  -16.4050   23.5132 C.2     1  UNL1        0.2739
     22 C          -8.0278  -15.6884   22.5798 C.3     1  UNL1        0.2900
     23 O          -8.5093  -15.2557   21.2267 O.3     1  UNL1       -0.4643
     24 C          -9.9211  -15.5397   20.8069 C.ar    1  UNL1        0.1528
     25 C         -10.4026  -15.1071   19.4537 C.ar    1  UNL1        0.0382
     26 C         -11.8143  -15.3910   19.0339 C.ar    1  UNL1        0.0032
     27 C         -12.7446  -16.1076   19.9673 C.ar    1  UNL1        0.0015
     28 C         -12.2632  -16.5402   21.3204 C.ar    1  UNL1        0.0180
     29 C         -10.8514  -16.2563   21.7402 C.ar    1  UNL1        0.0881
     30 N         -10.3699  -16.6889   23.0934 N.am    1  UNL1       -0.2529
@<TRIPOS>BOND
     1    20    21    2
     2    21    22    1
     3    22    23    1
     4    23    24    1
     5    24    25   ar
     6    25    26   ar
     7    26    27   ar
     8    27    28   ar
     9    28    29   ar
    10    29    30    1
    11    30    19    1
    12    19    18    1
    13    18    17    1
    14    17     1    1
    15     1     2    1
    16     2     3    1
    17     3     4    1
    18     4     7    1
    19     7     8   am
    20     8     9    2
    21     8    10    1
    22    10    11    2
    23    11    12    1
    24    12    13    1
    25    13    14    2
    26    14    15    1
    27    15    16    2
    28     4     5    1
    29     5     6    1
    30    30    21   am
    31     6     1    1
    32    29    24   ar
    33    16     7    1
    34    16    11    1
@<TRIPOS>MOLECULE
*****
 30 34 0 0 0
SMALL
GASTEIGER

@<TRIPOS>ATOM
      1 N           0.5558    1.5132   19.8397 N.3     1  UNL1       -0.2725
      2 C           1.7244    2.0128   19.0430 C.3     1  UNL1        0.0738
      3 C           2.8787    1.1002   18.7517 C.3     1  UNL1        0.0376
      4 C           2.8643   -0.3120   19.2571 C.3     1  UNL1        0.0842
      5 C           1.6956   -0.8116   20.0538 C.3     1  UNL1        0.0376
      6 C           0.5414    0.1010   20.3451 C.3     1  UNL1        0.0738
      7 N           4.0185   -1.2247   18.9658 N.am    1  UNL1       -0.2408
      8 C           4.5336   -1.5878   17.6046 C.2     1  UNL1        0.3310
      9 O           3.9849   -1.1021   16.2958 O.2     1  UNL1       -0.2501
     10 N           5.6937   -2.5220   17.7821 N.am    1  UNL1       -0.1646
     11 C           5.8956   -2.7362   19.2530 C.2     1  UNL1        0.0738
     12 C           6.8884   -3.5577   20.0205 C.3     1  UNL1        0.0915
     13 C           6.8460   -3.5775   21.5199 C.2     1  UNL1        0.0787
     14 N           5.8106   -2.7756   22.2515 N.2     1  UNL1       -0.2452
     15 C           4.8177   -1.9541   21.4837 C.2     1  UNL1        0.1144
     16 C           4.8602   -1.9344   19.9845 C.2     1  UNL1        0.0860
     17 C          -0.5984    2.4258   20.1310 C.3     1  UNL1        0.0739
     18 C          -0.8127    2.9435   21.5225 C.3     1  UNL1        0.0392
     19 C          -1.6408    4.1741   21.7456 C.3     1  UNL1        0.0998
     20 O          -3.7229    3.9270   19.6000 O.2     1  UNL1       -0.2705
     21 C          -4.1296    3.9232   21.0438 C.2     1  UNL1        0.2739
     22 C          -5.5774    3.7958   21.4148 C.3     1  UNL1        0.2900
     23 O          -5.9842    3.7920   22.8585 O.3     1  UNL1       -0.4643
     24 C          -4.9432    3.9155   23.9314 C.ar    1  UNL1        0.1528
     25 C          -5.3499    3.9117   25.3752 C.ar    1  UNL1        0.0382
     26 C          -4.3089    4.0353   26.4480 C.ar    1  UNL1        0.0032
     27 C          -2.8611    4.1627   26.0770 C.ar    1  UNL1        0.0015
     28 C          -2.4543    4.1665   24.6332 C.ar    1  UNL1        0.0180
     29 C          -3.4953    4.0429   23.5605 C.ar    1  UNL1        0.0881
     30 N          -3.0886    4.0468   22.1166 N.am    1  UNL1       -0.2529
@<TRIPOS>BOND
     1    20    21    2
     2    21    22    1
     3    22    23    1
     4    23    24    1
     5    24    25   ar
     6    25    26   ar
     7    26    27   ar
     8    27    28   ar
     9    28    29   ar
    10    29    30    1
    11    30    19    1
    12    19    18    1
    13    18    17    1
    14    17     1    1
    15     1     2    1
    16     2     3    1
    17     3     4    1
    18     4     7    1
    19     7     8   am
    20     8     9    2
    21     8    10    1
    22    10    11    2
    23    11    12    1
    24    12    13    1
    25    13    14    2
    26    14    15    1
    27    15    16    2
    28     4     5    1
    29     5     6    1
    30    30    21   am
    31     6     1    1
    32    29    24   ar
    33    16     7    1
    34    16    11    1
@<TRIPOS>MOLECULE
*****
 30 34 0 0 0
SMALL
GASTEIGER

@<TRIPOS>ATOM
      1 N           6.4090   -0.9890   33.8866 N.3     1  UNL1       -0.2725
      2 C           5.1938   -1.7554   33.4556 C.3     1  UNL1        0.0738
      3 C           5.2909   -2.7463   32.3336 C.3     1  UNL1        0.0376
      4 C           6.6033   -2.9707   31.6427 C.3     1  UNL1        0.0842
      5 C           7.8185   -2.2042   32.0738 C.3     1  UNL1        0.0376
      6 C           7.7213   -1.2133   33.1957 C.3     1  UNL1        0.0738
      7 N           6.7004   -3.9615   30.5208 N.am    1  UNL1       -0.2408
      8 C           6.8289   -5.4489   30.6667 C.2     1  UNL1        0.3310
      9 O           6.8828   -6.2065   31.9602 O.2     1  UNL1       -0.2501
     10 N           6.8941   -6.0456   29.2921 N.am    1  UNL1       -0.1646
     11 C           6.8059   -4.9270   28.2965 C.2     1  UNL1        0.0738
     12 C           6.8191   -4.9150   26.7967 C.3     1  UNL1        0.0915
     13 C           6.7126   -3.6149   26.0561 C.2     1  UNL1        0.0787
     14 N           6.5929   -2.3268   26.8155 N.2     1  UNL1       -0.2452
     15 C           6.5797   -2.3389   28.3154 C.2     1  UNL1        0.1144
     16 C           6.6862   -3.6390   29.0559 C.2     1  UNL1        0.0860
     17 C           6.3118    0.0019   35.0085 C.3     1  UNL1        0.0739
     18 C           5.1369   -0.0331   35.9404 C.3     1  UNL1        0.0392
     19 C           5.1225    0.8370   37.1622 C.3     1  UNL1        0.0998
     20 O           5.7346    3.4298   35.7827 O.2     1  UNL1       -0.2705
     21 C           4.4644    3.2787   36.5662 C.2     1  UNL1        0.2739
     22 C           3.5003    4.4240   36.6600 C.3     1  UNL1        0.2900
     23 O           2.2302    4.2729   37.4435 O.3     1  UNL1       -0.4643
     24 C           1.9241    2.9765   38.1333 C.ar    1  UNL1        0.1528
     25 C           0.6540    2.8255   38.9168 C.ar    1  UNL1        0.0382
     26 C           0.3480    1.5292   39.6066 C.ar    1  UNL1        0.0032
     27 C           1.3121    0.3839   39.5128 C.ar    1  UNL1        0.0015
     28 C           2.5822    0.5349   38.7293 C.ar    1  UNL1        0.0180
     29 C           2.8882    1.8312   38.0396 C.ar    1  UNL1        0.0881
     30 N           4.1584    1.9823   37.2560 N.am    1  UNL1       -0.2529
@<TRIPOS>BOND
     1    20    21    2
     2    21    22    1
     3    22    23    1
     4    23    24    1
     5    24    25   ar
     6    25    26   ar
     7    26    27   ar
     8    27    28   ar
     9    28    29   ar
    10    29    30    1
    11    30    19    1
    12    19    18    1
    13    18    17    1
    14    17     1    1
    15     1     2    1
    16     2     3    1
    17     3     4    1
    18     4     7    1
    19     7     8   am
    20     8     9    2
    21     8    10    1
    22    10    11    2
    23    11    12    1
    24    12    13    1
    25    13    14    2
    26    14    15    1
    27    15    16    2
    28     4     5    1
    29     5     6    1
    30    30    21   am
    31     6     1    1
    32    29    24   ar
    33    16     7    1
    34    16    11    1
@<TRIPOS>MOLECULE
*****
 30 34 0 0 0
SMALL
GASTEIGER

@<TRIPOS>ATOM
      1 N           0.4795    1.7373   19.8181 N.3     1  UNL1       -0.2725
      2 C           1.7114    2.1929   19.0937 C.3     1  UNL1        0.0738
      3 C           2.8201    1.2216   18.8151 C.3     1  UNL1        0.0376
      4 C           2.6968   -0.2052   19.2611 C.3     1  UNL1        0.0842
      5 C           1.4649   -0.6608   19.9857 C.3     1  UNL1        0.0376
      6 C           0.3563    0.3105   20.2641 C.3     1  UNL1        0.0738
      7 N           3.8054   -1.1765   18.9827 N.am    1  UNL1       -0.2408
      8 C           4.3333   -1.5473   17.6285 C.2     1  UNL1        0.3310
      9 O           3.8452   -1.0120   16.3150 O.2     1  UNL1       -0.2501
     10 N           5.4349   -2.5474   17.8183 N.am    1  UNL1       -0.1646
     11 C           5.5880   -2.7948   19.2899 C.2     1  UNL1        0.0738
     12 C           6.5142   -3.6821   20.0675 C.3     1  UNL1        0.0915
     13 C           6.4334   -3.7221   21.5649 C.2     1  UNL1        0.0787
     14 N           5.4262   -2.8747   22.2845 N.2     1  UNL1       -0.2452
     15 C           4.5000   -1.9874   21.5068 C.2     1  UNL1        0.1144
     16 C           4.5809   -1.9475   20.0095 C.2     1  UNL1        0.0860
     17 C          -0.6291    2.7086   20.0966 C.3     1  UNL1        0.0739
     18 C          -1.1195    2.9046   21.5006 C.3     1  UNL1        0.0392
     19 C          -0.2063    3.4842   22.5399 C.3     1  UNL1        0.0998
     20 O          -2.2185    3.3267   24.7595 O.2     1  UNL1       -0.2705
     21 C          -0.8992    2.6252   24.8920 C.2     1  UNL1        0.2739
     22 C          -0.5860    1.8450   26.1342 C.3     1  UNL1        0.2900
     23 O           0.7332    1.1436   26.2667 O.3     1  UNL1       -0.4643
     24 C           1.7394    1.2223   25.1570 C.ar    1  UNL1        0.1528
     25 C           3.0586    0.5209   25.2895 C.ar    1  UNL1        0.0382
     26 C           4.0646    0.5997   24.1797 C.ar    1  UNL1        0.0032
     27 C           3.7515    1.3799   22.9374 C.ar    1  UNL1        0.0015
     28 C           2.4323    2.0813   22.8049 C.ar    1  UNL1        0.0180
     29 C           1.4262    2.0025   23.9147 C.ar    1  UNL1        0.0881
     30 N           0.1069    2.7040   23.7822 N.am    1  UNL1       -0.2529
@<TRIPOS>BOND
     1    20    21    2
     2    21    22    1
     3    22    23    1
     4    23    24    1
     5    24    25   ar
     6    25    26   ar
     7    26    27   ar
     8    27    28   ar
     9    28    29   ar
    10    29    30    1
    11    30    19    1
    12    19    18    1
    13    18    17    1
    14    17     1    1
    15     1     2    1
    16     2     3    1
    17     3     4    1
    18     4     7    1
    19     7     8   am
    20     8     9    2
    21     8    10    1
    22    10    11    2
    23    11    12    1
    24    12    13    1
    25    13    14    2
    26    14    15    1
    27    15    16    2
    28     4     5    1
    29     5     6    1
    30    30    21   am
    31     6     1    1
    32    29    24   ar
    33    16     7    1
    34    16    11    1
