@<TRIPOS>MOLECULE
*****
 30 32 0 0 0
SMALL
GASTEIGER

@<TRIPOS>ATOM
      1 C          -8.0839  -15.2431   21.7155 C.3     1  UNL1        0.1152
      2 N          -8.2023  -16.5391   22.4614 N.am    1  UNL1       -0.2729
      3 C          -7.7140  -17.8118   21.8356 C.2     1  UNL1        0.2459
      4 O          -7.1072  -17.7885   20.4640 O.2     1  UNL1       -0.2730
      5 C          -7.8324  -19.1079   22.5814 C.3     1  UNL1        0.1738
      6 N          -6.8421  -20.2075   22.3362 N.pl3   1  UNL1       -0.3253
      7 H          -7.0902  -21.1428   22.5174 H       1  UNL1        0.1473
      8 C          -5.4737  -19.8820   21.8150 C.ar    1  UNL1        0.0450
      9 C          -5.0476  -20.3784   20.4652 C.ar    1  UNL1        0.0150
     10 C          -3.6792  -20.0529   19.9441 C.ar    1  UNL1        0.0115
     11 C          -2.7370  -19.2310   20.7728 C.ar    1  UNL1        0.0685
     12 C          -3.1631  -18.7346   22.1226 C.ar    1  UNL1        0.0115
     13 C          -4.5314  -19.0601   22.6437 C.ar    1  UNL1        0.0150
     14 C          -1.3685  -18.9055   20.2516 C.1     1  UNL1        0.1004
     15 N          -0.0002  -18.5800   19.7304 N.1     1  UNL1       -0.1908
     16 C          -8.8091  -16.5624   23.8330 C.3     1  UNL1        0.1139
     17 C          -7.9953  -16.1408   25.0204 C.ar    1  UNL1       -0.0029
     18 C          -6.5976  -15.6311   24.8289 C.ar    1  UNL1       -0.0026
     19 C          -5.7838  -15.2095   26.0164 C.ar    1  UNL1       -0.0003
     20 C          -6.3676  -15.2977   27.3952 C.ar    1  UNL1       -0.0000
     21 C          -7.7653  -15.8074   27.5867 C.ar    1  UNL1       -0.0003
     22 C          -8.5792  -16.2289   26.3993 C.ar    1  UNL1       -0.0026
     23 C         -10.2297  -17.0072   24.0172 C.3     1  UNL1        0.0968
     24 N         -11.1450  -17.1038   22.8327 N.3     1  UNL1       -0.2689
     25 C         -11.8623  -18.3375   22.3710 C.3     1  UNL1        0.0748
     26 C         -12.6643  -17.9798   21.1550 C.3     1  UNL1        0.0480
     27 C         -12.4426  -16.5248   20.8651 C.3     1  UNL1        0.1278
     28 O         -13.0528  -15.7477   19.7364 O.3     1  UNL1       -0.3830
     29 C         -11.5036  -15.9834   21.9020 C.3     1  UNL1        0.1017
     30 H         -12.7469  -14.8280   19.7746 H       1  UNL1        0.2104
@<TRIPOS>BOND
     1     1     2    1
     2     2     3   am
     3     3     4    2
     4     3     5    1
     5     5     6    1
     6     6     8    1
     7     8     9   ar
     8     9    10   ar
     9    10    11   ar
    10    11    14    1
    11    14    15    3
    12    11    12   ar
    13    12    13   ar
    14     2    16    1
    15    16    23    1
    16    23    24    1
    17    24    25    1
    18    25    26    1
    19    26    27    1
    20    27    28    1
    21    27    29    1
    22    16    17    1
    23    17    18   ar
    24    18    19   ar
    25    19    20   ar
    26    20    21   ar
    27    21    22   ar
    28    13     8   ar
    29    29    24    1
    30    22    17   ar
    31     6     7    1
    32    28    30    1
@<TRIPOS>MOLECULE
*****
 30 32 0 0 0
SMALL
GASTEIGER

@<TRIPOS>ATOM
      1 C         -10.7424  -18.1840   19.5200 C.3     1  UNL1        0.1152
      2 N          -9.8922  -18.2501   20.7539 N.am    1  UNL1       -0.2729
      3 C          -8.7304  -19.1969   20.8143 C.2     1  UNL1        0.2459
      4 O          -8.4187  -20.0775   19.6406 O.2     1  UNL1       -0.2730
      5 C          -7.8801  -19.2632   22.0483 C.3     1  UNL1        0.1738
      6 N          -6.7560  -20.2527   22.1323 N.pl3   1  UNL1       -0.3253
      7 H          -6.9172  -21.1505   22.5026 H       1  UNL1        0.1473
      8 C          -5.3862  -19.8743   21.6521 C.ar    1  UNL1        0.0450
      9 C          -4.9498  -20.2414   20.2647 C.ar    1  UNL1        0.0150
     10 C          -3.5801  -19.8630   19.7846 C.ar    1  UNL1        0.0115
     11 C          -2.6467  -19.1174   20.6918 C.ar    1  UNL1        0.0685
     12 C          -3.0831  -18.7503   22.0791 C.ar    1  UNL1        0.0115
     13 C          -4.4528  -19.1287   22.5593 C.ar    1  UNL1        0.0150
     14 C          -1.2769  -18.7390   20.2115 C.1     1  UNL1        0.1004
     15 N           0.0928  -18.3606   19.7313 N.1     1  UNL1       -0.1908
     16 C         -10.2039  -17.3696   21.9276 C.3     1  UNL1        0.1139
     17 C         -11.2590  -17.7779   22.9123 C.ar    1  UNL1       -0.0029
     18 C         -12.6816  -17.3480   22.7088 C.ar    1  UNL1       -0.0026
     19 C         -13.7368  -17.7564   23.6936 C.ar    1  UNL1       -0.0003
     20 C         -13.3694  -18.5947   24.8820 C.ar    1  UNL1       -0.0000
     21 C         -11.9468  -19.0247   25.0855 C.ar    1  UNL1       -0.0003
     22 C         -10.8916  -18.6163   24.1007 C.ar    1  UNL1       -0.0026
     23 C          -9.4603  -16.0806   22.1165 C.3     1  UNL1        0.0968
     24 N          -8.5882  -15.8875   23.3215 N.3     1  UNL1       -0.2689
     25 C          -7.0964  -16.0382   23.3635 C.3     1  UNL1        0.0748
     26 C          -6.6409  -15.7536   24.7640 C.3     1  UNL1        0.0480
     27 C          -7.8512  -15.4269   25.5876 C.3     1  UNL1        0.1278
     28 O          -7.8571  -15.0787   27.0466 O.3     1  UNL1       -0.3830
     29 C          -9.0548  -15.5096   24.6962 C.3     1  UNL1        0.1017
     30 H          -8.7679  -14.9117   27.3355 H       1  UNL1        0.2104
@<TRIPOS>BOND
     1     1     2    1
     2     2     3   am
     3     3     4    2
     4     3     5    1
     5     5     6    1
     6     6     8    1
     7     8     9   ar
     8     9    10   ar
     9    10    11   ar
    10    11    14    1
    11    14    15    3
    12    11    12   ar
    13    12    13   ar
    14     2    16    1
    15    16    23    1
    16    23    24    1
    17    24    25    1
    18    25    26    1
    19    26    27    1
    20    27    28    1
    21    27    29    1
    22    16    17    1
    23    17    18   ar
    24    18    19   ar
    25    19    20   ar
    26    20    21   ar
    27    21    22   ar
    28    13     8   ar
    29    29    24    1
    30    22    17   ar
    31     6     7    1
    32    28    30    1
@<TRIPOS>MOLECULE
*****
 30 32 0 0 0
SMALL
GASTEIGER

@<TRIPOS>ATOM
      1 C          -8.3499  -15.6879   22.2628 C.3     1  UNL1        0.1152
      2 N          -8.5200  -17.1328   22.6281 N.am    1  UNL1       -0.2729
      3 C          -7.8703  -18.1983   21.7959 C.2     1  UNL1        0.2459
      4 O          -7.0505  -17.8189   20.5984 O.2     1  UNL1       -0.2730
      5 C          -8.0404  -19.6432   22.1613 C.3     1  UNL1        0.1738
      6 N          -6.8348  -20.5066   22.3871 N.pl3   1  UNL1       -0.3253
      7 H          -6.9167  -21.3412   22.9029 H       1  UNL1        0.1473
      8 C          -5.5044  -20.0984   21.8272 C.ar    1  UNL1        0.0450
      9 C          -4.5659  -19.2690   22.6525 C.ar    1  UNL1        0.0150
     10 C          -3.2356  -18.8608   22.0925 C.ar    1  UNL1        0.0115
     11 C          -2.8437  -19.2822   20.7073 C.ar    1  UNL1        0.0685
     12 C          -3.7823  -20.1116   19.8819 C.ar    1  UNL1        0.0115
     13 C          -5.1126  -20.5197   20.4419 C.ar    1  UNL1        0.0150
     14 C          -1.5133  -18.8740   20.1473 C.1     1  UNL1        0.1004
     15 N          -0.1830  -18.4659   19.5874 N.1     1  UNL1       -0.1908
     16 C          -9.3398  -17.5121   23.8256 C.3     1  UNL1        0.1139
     17 C         -10.8323  -17.6093   23.7125 C.ar    1  UNL1       -0.0029
     18 C         -11.5694  -16.7355   22.7414 C.ar    1  UNL1       -0.0026
     19 C         -13.0621  -16.8328   22.6283 C.ar    1  UNL1       -0.0003
     20 C         -13.8175  -17.8039   23.4863 C.ar    1  UNL1       -0.0000
     21 C         -13.0804  -18.6777   24.4575 C.ar    1  UNL1       -0.0003
     22 C         -11.5878  -18.5805   24.5706 C.ar    1  UNL1       -0.0026
     23 C          -8.6671  -17.7941   25.1363 C.3     1  UNL1        0.0968
     24 N          -7.8769  -16.7183   25.8206 N.3     1  UNL1       -0.2689
     25 C          -8.1695  -16.1325   27.1701 C.3     1  UNL1        0.0748
     26 C          -7.1289  -15.0915   27.4591 C.3     1  UNL1        0.0480
     27 C          -6.1932  -15.0339   26.2882 C.3     1  UNL1        0.1278
     28 O          -5.0039  -14.1297   26.1535 O.3     1  UNL1       -0.3830
     29 C          -6.6554  -16.0393   25.2755 C.3     1  UNL1        0.1017
     30 H          -4.5692  -14.2920   25.3017 H       1  UNL1        0.2104
@<TRIPOS>BOND
     1     1     2    1
     2     2     3   am
     3     3     4    2
     4     3     5    1
     5     5     6    1
     6     6     8    1
     7     8     9   ar
     8     9    10   ar
     9    10    11   ar
    10    11    14    1
    11    14    15    3
    12    11    12   ar
    13    12    13   ar
    14     2    16    1
    15    16    23    1
    16    23    24    1
    17    24    25    1
    18    25    26    1
    19    26    27    1
    20    27    28    1
    21    27    29    1
    22    16    17    1
    23    17    18   ar
    24    18    19   ar
    25    19    20   ar
    26    20    21   ar
    27    21    22   ar
    28    13     8   ar
    29    29    24    1
    30    22    17   ar
    31     6     7    1
    32    28    30    1
@<TRIPOS>MOLECULE
*****
 30 32 0 0 0
SMALL
GASTEIGER

@<TRIPOS>ATOM
      1 C         -10.0954  -15.6031   21.6264 C.3     1  UNL1        0.1152
      2 N          -9.1469  -16.5865   22.2455 N.am    1  UNL1       -0.2729
      3 C          -7.8750  -16.1053   22.8784 C.2     1  UNL1        0.2459
      4 O          -7.5515  -14.6407   22.8922 O.2     1  UNL1       -0.2730
      5 C          -6.9265  -17.0888   23.4976 C.3     1  UNL1        0.1738
      6 N          -5.5378  -16.6599   23.8684 N.pl3   1  UNL1       -0.3253
      7 H          -5.3916  -16.1012   24.6657 H       1  UNL1        0.1473
      8 C          -4.3719  -17.0824   23.0245 C.ar    1  UNL1        0.0450
      9 C          -3.3357  -16.0764   22.6193 C.ar    1  UNL1        0.0150
     10 C          -2.1698  -16.4988   21.7754 C.ar    1  UNL1        0.0115
     11 C          -2.0401  -17.9274   21.3367 C.ar    1  UNL1        0.0685
     12 C          -3.0763  -18.9334   21.7418 C.ar    1  UNL1        0.0115
     13 C          -4.2422  -18.5109   22.5857 C.ar    1  UNL1        0.0150
     14 C          -0.8742  -18.3498   20.4927 C.1     1  UNL1        0.1004
     15 N           0.2917  -18.7722   19.6488 N.1     1  UNL1       -0.1908
     16 C          -9.4705  -18.0512   22.2317 C.3     1  UNL1        0.1139
     17 C          -9.2438  -18.8576   20.9875 C.ar    1  UNL1       -0.0029
     18 C          -7.8525  -19.2618   20.5987 C.ar    1  UNL1       -0.0026
     19 C          -7.6259  -20.0683   19.3544 C.ar    1  UNL1       -0.0003
     20 C          -8.7904  -20.4706   18.4989 C.ar    1  UNL1       -0.0000
     21 C         -10.1817  -20.0665   18.8877 C.ar    1  UNL1       -0.0003
     22 C         -10.4083  -19.2600   20.1319 C.ar    1  UNL1       -0.0026
     23 C         -10.0207  -18.7094   23.4622 C.3     1  UNL1        0.0968
     24 N         -11.4626  -18.5235   23.8311 N.3     1  UNL1       -0.2689
     25 C         -12.5209  -17.9035   22.9675 C.3     1  UNL1        0.0748
     26 C         -13.8118  -17.9218   23.7310 C.3     1  UNL1        0.0480
     27 C         -13.5515  -18.5531   25.0666 C.3     1  UNL1        0.1278
     28 O         -14.5651  -18.7738   26.1501 O.3     1  UNL1       -0.3830
     29 C         -12.0996  -18.9250   25.1285 C.3     1  UNL1        0.1017
     30 H         -14.1384  -19.1994   26.9102 H       1  UNL1        0.2104
@<TRIPOS>BOND
     1     1     2    1
     2     2     3   am
     3     3     4    2
     4     3     5    1
     5     5     6    1
     6     6     8    1
     7     8     9   ar
     8     9    10   ar
     9    10    11   ar
    10    11    14    1
    11    14    15    3
    12    11    12   ar
    13    12    13   ar
    14     2    16    1
    15    16    23    1
    16    23    24    1
    17    24    25    1
    18    25    26    1
    19    26    27    1
    20    27    28    1
    21    27    29    1
    22    16    17    1
    23    17    18   ar
    24    18    19   ar
    25    19    20   ar
    26    20    21   ar
    27    21    22   ar
    28    13     8   ar
    29    29    24    1
    30    22    17   ar
    31     6     7    1
    32    28    30    1
@<TRIPOS>MOLECULE
*****
 30 32 0 0 0
SMALL
GASTEIGER

@<TRIPOS>ATOM
      1 C         -10.0651  -18.0569   25.3501 C.3     1  UNL1        0.1152
      2 N          -8.9951  -17.7428   24.3469 N.am    1  UNL1       -0.2729
      3 C          -7.9047  -16.7724   24.6924 C.2     1  UNL1        0.2459
      4 O          -7.8843  -16.1162   26.0411 O.2     1  UNL1       -0.2730
      5 C          -6.8346  -16.4583   23.6892 C.3     1  UNL1        0.1738
      6 N          -5.4152  -16.2766   24.1388 N.pl3   1  UNL1       -0.3253
      7 H          -5.2238  -15.8458   25.0030 H       1  UNL1        0.1473
      8 C          -4.2871  -16.7515   23.2714 C.ar    1  UNL1        0.0450
      9 C          -3.4939  -15.7654   22.4662 C.ar    1  UNL1        0.0150
     10 C          -2.3659  -16.2403   21.5990 C.ar    1  UNL1        0.0115
     11 C          -2.0312  -17.7011   21.5369 C.ar    1  UNL1        0.0685
     12 C          -2.8245  -18.6872   22.3421 C.ar    1  UNL1        0.0115
     13 C          -3.9524  -18.2123   23.2094 C.ar    1  UNL1        0.0150
     14 C          -0.9032  -18.1760   20.6696 C.1     1  UNL1        0.1004
     15 N           0.2248  -18.6508   19.8023 N.1     1  UNL1       -0.1908
     16 C          -9.0154  -18.3991   22.9983 C.3     1  UNL1        0.1139
     17 C          -9.7976  -17.7833   21.8763 C.ar    1  UNL1       -0.0029
     18 C         -10.3849  -18.6539   20.8052 C.ar    1  UNL1       -0.0026
     19 C         -11.1671  -18.0380   19.6831 C.ar    1  UNL1       -0.0003
     20 C         -11.3619  -16.5516   19.6322 C.ar    1  UNL1       -0.0000
     21 C         -10.7746  -15.6810   20.7032 C.ar    1  UNL1       -0.0003
     22 C          -9.9925  -16.2968   21.8252 C.ar    1  UNL1       -0.0026
     23 C          -8.2536  -19.6712   22.7716 C.3     1  UNL1        0.0968
     24 N          -7.1237  -19.7032   21.7856 N.3     1  UNL1       -0.2689
     25 C          -6.2173  -20.8687   21.5209 C.3     1  UNL1        0.0748
     26 C          -5.2351  -20.4612   20.4629 C.3     1  UNL1        0.0480
     27 C          -5.5346  -19.0439   20.0737 C.3     1  UNL1        0.1278
     28 O          -4.7964  -18.2367   19.0473 O.3     1  UNL1       -0.3830
     29 C          -6.7017  -18.5753   20.8912 C.3     1  UNL1        0.1017
     30 H          -5.1899  -17.3521   18.9875 H       1  UNL1        0.2104
@<TRIPOS>BOND
     1     1     2    1
     2     2     3   am
     3     3     4    2
     4     3     5    1
     5     5     6    1
     6     6     8    1
     7     8     9   ar
     8     9    10   ar
     9    10    11   ar
    10    11    14    1
    11    14    15    3
    12    11    12   ar
    13    12    13   ar
    14     2    16    1
    15    16    23    1
    16    23    24    1
    17    24    25    1
    18    25    26    1
    19    26    27    1
    20    27    28    1
    21    27    29    1
    22    16    17    1
    23    17    18   ar
    24    18    19   ar
    25    19    20   ar
    26    20    21   ar
    27    21    22   ar
    28    13     8   ar
    29    29    24    1
    30    22    17   ar
    31     6     7    1
    32    28    30    1
@<TRIPOS>MOLECULE
*****
 30 32 0 0 0
SMALL
GASTEIGER

@<TRIPOS>ATOM
      1 C          -7.7490  -15.0169   22.6139 C.3     1  UNL1        0.1152
      2 N          -7.1014  -16.2447   23.1824 N.am    1  UNL1       -0.2729
      3 C          -5.7724  -16.1414   23.8701 C.2     1  UNL1        0.2459
      4 O          -5.0909  -14.8105   23.9892 O.2     1  UNL1       -0.2730
      5 C          -5.1247  -17.3692   24.4387 C.3     1  UNL1        0.1738
      6 N          -3.6804  -17.6559   24.1529 N.pl3   1  UNL1       -0.3253
      7 H          -3.0556  -17.8235   24.8951 H       1  UNL1        0.1473
      8 C          -3.1879  -17.6873   22.7364 C.ar    1  UNL1        0.0450
      9 C          -3.4338  -18.8964   21.8835 C.ar    1  UNL1        0.0150
     10 C          -2.9413  -18.9277   20.4670 C.ar    1  UNL1        0.0115
     11 C          -2.2030  -17.7499   19.9034 C.ar    1  UNL1        0.0685
     12 C          -1.9571  -16.5408   20.7563 C.ar    1  UNL1        0.0115
     13 C          -2.4496  -16.5095   22.1728 C.ar    1  UNL1        0.0150
     14 C          -1.7105  -17.7813   18.4869 C.1     1  UNL1        0.1004
     15 N          -1.2181  -17.8126   17.0704 N.1     1  UNL1       -0.1908
     16 C          -7.7829  -17.5756   23.0634 C.3     1  UNL1        0.1139
     17 C          -7.2494  -18.6093   22.1164 C.ar    1  UNL1       -0.0029
     18 C          -7.0172  -18.2587   20.6765 C.ar    1  UNL1       -0.0026
     19 C          -6.4837  -19.2924   19.7295 C.ar    1  UNL1       -0.0003
     20 C          -6.1824  -20.6767   20.2223 C.ar    1  UNL1       -0.0000
     21 C          -6.4146  -21.0273   21.6622 C.ar    1  UNL1       -0.0003
     22 C          -6.9481  -19.9937   22.6092 C.ar    1  UNL1       -0.0026
     23 C          -8.9978  -17.8729   23.8913 C.3     1  UNL1        0.0968
     24 N         -10.3657  -17.7431   23.2894 N.3     1  UNL1       -0.2689
     25 C         -11.6507  -18.1997   23.9141 C.3     1  UNL1        0.0748
     26 C         -12.7679  -17.8727   22.9680 C.3     1  UNL1        0.0480
     27 C         -12.1733  -17.2140   21.7586 C.3     1  UNL1        0.1278
     28 O         -12.9303  -16.7218   20.5609 O.3     1  UNL1       -0.3830
     29 C         -10.6886  -17.1339   21.9572 C.3     1  UNL1        0.1017
     30 H         -12.3101  -16.3373   19.9219 H       1  UNL1        0.2104
@<TRIPOS>BOND
     1     1     2    1
     2     2     3   am
     3     3     4    2
     4     3     5    1
     5     5     6    1
     6     6     8    1
     7     8     9   ar
     8     9    10   ar
     9    10    11   ar
    10    11    14    1
    11    14    15    3
    12    11    12   ar
    13    12    13   ar
    14     2    16    1
    15    16    23    1
    16    23    24    1
    17    24    25    1
    18    25    26    1
    19    26    27    1
    20    27    28    1
    21    27    29    1
    22    16    17    1
    23    17    18   ar
    24    18    19   ar
    25    19    20   ar
    26    20    21   ar
    27    21    22   ar
    28    13     8   ar
    29    29    24    1
    30    22    17   ar
    31     6     7    1
    32    28    30    1
@<TRIPOS>MOLECULE
*****
 30 32 0 0 0
SMALL
GASTEIGER

@<TRIPOS>ATOM
      1 C          -4.5183  -18.1639   23.4613 C.3     1  UNL1        0.1152
      2 N          -5.8036  -18.0460   22.6970 N.am    1  UNL1       -0.2729
      3 C          -6.5855  -16.7666   22.7374 C.2     1  UNL1        0.2459
      4 O          -6.0822  -15.6051   23.5422 O.2     1  UNL1       -0.2730
      5 C          -7.8708  -16.6487   21.9731 C.3     1  UNL1        0.1738
      6 N          -8.9773  -15.7811   22.4957 N.pl3   1  UNL1       -0.3253
      7 H          -8.8464  -14.8082   22.5705 H       1  UNL1        0.1473
      8 C         -10.2831  -16.3959   22.9043 C.ar    1  UNL1        0.0450
      9 C         -11.5242  -16.1184   22.1089 C.ar    1  UNL1        0.0150
     10 C         -12.8299  -16.7332   22.5176 C.ar    1  UNL1        0.0115
     11 C         -12.8946  -17.6254   23.7216 C.ar    1  UNL1        0.0685
     12 C         -11.6535  -17.9029   24.5170 C.ar    1  UNL1        0.0115
     13 C         -10.3478  -17.2881   24.1084 C.ar    1  UNL1        0.0150
     14 C         -14.2004  -18.2402   24.1303 C.1     1  UNL1        0.1004
     15 N         -15.5062  -18.8550   24.5389 N.1     1  UNL1       -0.1908
     16 C          -6.3069  -19.2075   21.8922 C.3     1  UNL1        0.1139
     17 C          -7.7763  -19.5048   21.8424 C.ar    1  UNL1       -0.0029
     18 C          -8.5546  -19.2319   20.5895 C.ar    1  UNL1       -0.0026
     19 C         -10.0240  -19.5292   20.5397 C.ar    1  UNL1       -0.0003
     20 C         -10.7151  -20.0994   21.7427 C.ar    1  UNL1       -0.0000
     21 C          -9.9368  -20.3723   22.9956 C.ar    1  UNL1       -0.0003
     22 C          -8.4674  -20.0750   23.0454 C.ar    1  UNL1       -0.0026
     23 C          -5.3409  -20.0717   21.1374 C.3     1  UNL1        0.0968
     24 N          -4.1234  -19.4625   20.5077 N.3     1  UNL1       -0.2689
     25 C          -4.1138  -18.4987   19.3583 C.3     1  UNL1        0.0748
     26 C          -2.6862  -18.1506   19.0570 C.3     1  UNL1        0.0480
     27 C          -1.8134  -18.8993   20.0202 C.3     1  UNL1        0.1278
     28 O          -0.3154  -18.8465   20.0769 O.3     1  UNL1       -0.3830
     29 C          -2.7016  -19.7101   20.9168 C.3     1  UNL1        0.1017
     30 H           0.0017  -19.4227   20.7899 H       1  UNL1        0.2104
@<TRIPOS>BOND
     1     1     2    1
     2     2     3   am
     3     3     4    2
     4     3     5    1
     5     5     6    1
     6     6     8    1
     7     8     9   ar
     8     9    10   ar
     9    10    11   ar
    10    11    14    1
    11    14    15    3
    12    11    12   ar
    13    12    13   ar
    14     2    16    1
    15    16    23    1
    16    23    24    1
    17    24    25    1
    18    25    26    1
    19    26    27    1
    20    27    28    1
    21    27    29    1
    22    16    17    1
    23    17    18   ar
    24    18    19   ar
    25    19    20   ar
    26    20    21   ar
    27    21    22   ar
    28    13     8   ar
    29    29    24    1
    30    22    17   ar
    31     6     7    1
    32    28    30    1
@<TRIPOS>MOLECULE
*****
 30 32 0 0 0
SMALL
GASTEIGER

@<TRIPOS>ATOM
      1 C          -9.5745  -17.9667   24.6800 C.3     1  UNL1        0.1152
      2 N          -8.4736  -17.1581   24.0602 N.am    1  UNL1       -0.2729
      3 C          -7.6298  -16.2601   24.9154 C.2     1  UNL1        0.2459
      4 O          -7.8868  -16.1706   26.3905 O.2     1  UNL1       -0.2730
      5 C          -6.5289  -15.4515   24.2956 C.3     1  UNL1        0.1738
      6 N          -5.1004  -15.7219   24.6648 N.pl3   1  UNL1       -0.3253
      7 H          -4.7689  -15.4793   25.5595 H       1  UNL1        0.1473
      8 C          -4.1771  -16.3620   23.6709 C.ar    1  UNL1        0.0450
      9 C          -4.0600  -17.8561   23.6100 C.ar    1  UNL1        0.0150
     10 C          -3.1367  -18.4961   22.6161 C.ar    1  UNL1        0.0115
     11 C          -2.3304  -17.6420   21.6831 C.ar    1  UNL1        0.0685
     12 C          -2.4475  -16.1478   21.7441 C.ar    1  UNL1        0.0115
     13 C          -3.3708  -15.5078   22.7379 C.ar    1  UNL1        0.0150
     14 C          -1.4071  -18.2820   20.6892 C.1     1  UNL1        0.1004
     15 N          -0.4838  -18.9220   19.6953 N.1     1  UNL1       -0.1908
     16 C          -8.2166  -17.2475   22.5851 C.3     1  UNL1        0.1139
     17 C          -7.4264  -18.3952   22.0297 C.ar    1  UNL1       -0.0029
     18 C          -7.4798  -19.7363   22.6994 C.ar    1  UNL1       -0.0026
     19 C          -6.6896  -20.8840   22.1440 C.ar    1  UNL1       -0.0003
     20 C          -5.8461  -20.6906   20.9189 C.ar    1  UNL1       -0.0000
     21 C          -5.7927  -19.3495   20.2491 C.ar    1  UNL1       -0.0003
     22 C          -6.5828  -18.2018   20.8045 C.ar    1  UNL1       -0.0026
     23 C          -8.7497  -16.1893   21.6653 C.3     1  UNL1        0.0968
     24 N         -10.1522  -16.2872   21.1425 N.3     1  UNL1       -0.2689
     25 C         -11.2007  -17.2543   21.6065 C.3     1  UNL1        0.0748
     26 C         -12.4490  -16.9999   20.8146 C.3     1  UNL1        0.0480
     27 C         -12.1719  -15.8756   19.8611 C.3     1  UNL1        0.1278
     28 O         -13.1437  -15.2939   18.8776 O.3     1  UNL1       -0.3830
     29 C         -10.7524  -15.4351   20.0637 C.3     1  UNL1        0.1017
     30 H         -12.7140  -14.5789   18.3827 H       1  UNL1        0.2104
@<TRIPOS>BOND
     1     1     2    1
     2     2     3   am
     3     3     4    2
     4     3     5    1
     5     5     6    1
     6     6     8    1
     7     8     9   ar
     8     9    10   ar
     9    10    11   ar
    10    11    14    1
    11    14    15    3
    12    11    12   ar
    13    12    13   ar
    14     2    16    1
    15    16    23    1
    16    23    24    1
    17    24    25    1
    18    25    26    1
    19    26    27    1
    20    27    28    1
    21    27    29    1
    22    16    17    1
    23    17    18   ar
    24    18    19   ar
    25    19    20   ar
    26    20    21   ar
    27    21    22   ar
    28    13     8   ar
    29    29    24    1
    30    22    17   ar
    31     6     7    1
    32    28    30    1
@<TRIPOS>MOLECULE
*****
 30 32 0 0 0
SMALL
GASTEIGER

@<TRIPOS>ATOM
      1 C          -3.3688  -17.8118   25.2785 C.3     1  UNL1        0.1152
      2 N          -4.1243  -17.5091   24.0185 N.am    1  UNL1       -0.2729
      3 C          -5.0713  -16.3468   23.9728 C.2     1  UNL1        0.2459
      4 O          -5.2628  -15.4872   25.1870 O.2     1  UNL1       -0.2730
      5 C          -5.8268  -16.0440   22.7127 C.3     1  UNL1        0.1738
      6 N          -7.0442  -15.1690   22.7601 N.pl3   1  UNL1       -0.3253
      7 H          -6.9494  -14.1905   22.7066 H       1  UNL1        0.1473
      8 C          -8.4059  -15.7847   22.8889 C.ar    1  UNL1        0.0450
      9 C          -8.7976  -16.4800   24.1590 C.ar    1  UNL1        0.0150
     10 C         -10.1593  -17.0957   24.2878 C.ar    1  UNL1        0.0115
     11 C         -11.1294  -17.0161   23.1464 C.ar    1  UNL1        0.0685
     12 C         -10.7377  -16.3209   21.8763 C.ar    1  UNL1        0.0115
     13 C          -9.3760  -15.7052   21.7476 C.ar    1  UNL1        0.0150
     14 C         -12.4911  -17.6319   23.2753 C.1     1  UNL1        0.1004
     15 N         -13.8528  -18.2476   23.4041 N.1     1  UNL1       -0.1908
     16 C          -3.9328  -18.3687   22.8042 C.3     1  UNL1        0.1139
     17 C          -2.8825  -18.0154   21.7933 C.ar    1  UNL1       -0.0029
     18 C          -2.1815  -16.6916   21.8714 C.ar    1  UNL1       -0.0026
     19 C          -1.1312  -16.3383   20.8603 C.ar    1  UNL1       -0.0003
     20 C          -0.7819  -17.3088   19.7713 C.ar    1  UNL1       -0.0000
     21 C          -1.4829  -18.6326   19.6932 C.ar    1  UNL1       -0.0003
     22 C          -2.5332  -18.9860   20.7042 C.ar    1  UNL1       -0.0026
     23 C          -4.7915  -19.5816   22.6009 C.3     1  UNL1        0.0968
     24 N          -6.0881  -19.4663   21.8556 N.3     1  UNL1       -0.2689
     25 C          -7.4550  -19.3980   22.4696 C.3     1  UNL1        0.0748
     26 C          -8.4572  -19.2884   21.3589 C.3     1  UNL1        0.0480
     27 C          -7.7097  -19.2889   20.0584 C.3     1  UNL1        0.1278
     28 O          -8.3192  -19.1959   18.6911 O.3     1  UNL1       -0.3830
     29 C          -6.2455  -19.3988   20.3653 C.3     1  UNL1        0.1017
     30 H          -7.6173  -19.2174   18.0220 H       1  UNL1        0.2104
@<TRIPOS>BOND
     1     1     2    1
     2     2     3   am
     3     3     4    2
     4     3     5    1
     5     5     6    1
     6     6     8    1
     7     8     9   ar
     8     9    10   ar
     9    10    11   ar
    10    11    14    1
    11    14    15    3
    12    11    12   ar
    13    12    13   ar
    14     2    16    1
    15    16    23    1
    16    23    24    1
    17    24    25    1
    18    25    26    1
    19    26    27    1
    20    27    28    1
    21    27    29    1
    22    16    17    1
    23    17    18   ar
    24    18    19   ar
    25    19    20   ar
    26    20    21   ar
    27    21    22   ar
    28    13     8   ar
    29    29    24    1
    30    22    17   ar
    31     6     7    1
    32    28    30    1
