@<TRIPOS>MOLECULE
*****
 27 29 0 0 0
SMALL
GASTEIGER

@<TRIPOS>ATOM
      1 C          -5.1357  -17.9479   22.9075 C.ar    1  UNL1        0.0288
      2 C          -6.2129  -18.7422   22.2302 C.ar    1  UNL1        0.0147
      3 C          -7.6251  -18.2368   22.2222 C.ar    1  UNL1        0.0482
      4 C          -7.9602  -16.9369   22.8916 C.ar    1  UNL1        0.0177
      5 C          -6.8831  -16.1425   23.5690 C.ar    1  UNL1        0.0376
      6 C          -5.4708  -16.6480   23.5769 C.ar    1  UNL1        0.1310
      7 O          -4.3937  -15.8537   24.2542 O.3     1  UNL1       -0.5058
      8 H          -4.6031  -15.0417   24.6724 H       1  UNL1        0.2922
      9 N          -8.7022  -19.0312   21.5449 N.pl3   1  UNL1       -0.3125
     10 H          -8.5251  -19.9561   21.2578 H       1  UNL1        0.1522
     11 C         -10.0492  -18.4163   21.3049 C.ar    1  UNL1        0.0513
     12 C         -10.3605  -17.7855   19.9801 C.ar    1  UNL1        0.0353
     13 C         -11.7074  -17.1706   19.7402 C.ar    1  UNL1        0.1001
     14 N         -12.7432  -17.1866   20.8251 N.ar    1  UNL1       -0.2437
     15 C         -12.4319  -17.8174   22.1499 C.ar    1  UNL1        0.0833
     16 C         -13.4677  -17.8334   23.2348 C.ar    1  UNL1        0.0305
     17 C         -13.1564  -18.4642   24.5596 C.ar    1  UNL1        0.0592
     18 CL        -14.1921  -18.4802   25.6445 Cl      1  UNL1       -0.0822
     19 C         -11.8094  -19.0791   24.7996 C.ar    1  UNL1        0.0115
     20 C         -10.7737  -19.0631   23.7147 C.ar    1  UNL1        0.0036
     21 C         -11.0850  -18.4323   22.3898 C.ar    1  UNL1        0.0312
     22 C          -3.7235  -18.4534   22.9154 C.3     1  UNL1        0.1022
     23 N          -2.9865  -18.6405   21.6224 N.3     1  UNL1       -0.2689
     24 C          -2.1282  -16.1919   21.7560 C.3     1  UNL1        0.0188
     25 C          -2.2145  -17.5003   21.0275 C.3     1  UNL1        0.0724
     26 C          -3.0217  -19.9676   20.9243 C.3     1  UNL1        0.0724
     27 C          -3.9276  -20.1717   19.7464 C.3     1  UNL1        0.0188
@<TRIPOS>BOND
     1    24    25    1
     2    25    23    1
     3    23    26    1
     4    26    27    1
     5    23    22    1
     6    22     1    1
     7     1     2   ar
     8     2     3   ar
     9     3     9    1
    10     9    11    1
    11    11    12   ar
    12    12    13   ar
    13    13    14   ar
    14    14    15   ar
    15    15    16   ar
    16    16    17   ar
    17    17    18    1
    18    17    19   ar
    19    19    20   ar
    20    20    21   ar
    21     3     4   ar
    22     4     5   ar
    23     5     6   ar
    24     6     7    1
    25     6     1   ar
    26    21    11   ar
    27    21    15   ar
    28     9    10    1
    29     7     8    1
@<TRIPOS>MOLECULE
*****
 27 29 0 0 0
SMALL
GASTEIGER

@<TRIPOS>ATOM
      1 C          -6.2641  -17.1317   22.9280 C.ar    1  UNL1        0.0288
      2 C          -7.5159  -17.7414   22.3703 C.ar    1  UNL1        0.0147
      3 C          -7.4859  -19.1300   21.8038 C.ar    1  UNL1        0.0482
      4 C          -6.2039  -19.9088   21.7950 C.ar    1  UNL1        0.0177
      5 C          -4.9521  -19.2991   22.3527 C.ar    1  UNL1        0.0376
      6 C          -4.9822  -17.9105   22.9193 C.ar    1  UNL1        0.1310
      7 O          -3.7303  -17.3007   23.4770 O.3     1  UNL1       -0.5058
      8 H          -2.9295  -17.7872   23.4715 H       1  UNL1        0.2922
      9 N          -8.7377  -19.7397   21.2460 N.pl3   1  UNL1       -0.3125
     10 H          -8.7534  -20.6925   20.9989 H       1  UNL1        0.1522
     11 C          -9.9658  -18.8976   21.0648 C.ar    1  UNL1        0.0513
     12 C         -10.2005  -18.1831   19.7670 C.ar    1  UNL1        0.0353
     13 C         -11.4285  -17.3411   19.5858 C.ar    1  UNL1        0.1001
     14 N         -12.4219  -17.2135   20.7025 N.ar    1  UNL1       -0.2437
     15 C         -12.1872  -17.9280   22.0003 C.ar    1  UNL1        0.0833
     16 C         -13.1806  -17.8005   23.1169 C.ar    1  UNL1        0.0305
     17 C         -12.9460  -18.5150   24.4148 C.ar    1  UNL1        0.0592
     18 CL        -13.9394  -18.3874   25.5314 Cl      1  UNL1       -0.0822
     19 C         -11.7179  -19.3571   24.5960 C.ar    1  UNL1        0.0115
     20 C         -10.7245  -19.4846   23.4793 C.ar    1  UNL1        0.0036
     21 C         -10.9592  -18.7701   22.1815 C.ar    1  UNL1        0.0312
     22 C          -6.2942  -15.7431   23.4946 C.3     1  UNL1        0.1022
     23 N          -6.9208  -15.4930   24.8343 N.3     1  UNL1       -0.2689
     24 C          -9.3947  -16.2763   24.7057 C.3     1  UNL1        0.0188
     25 C          -8.3864  -15.1889   24.9317 C.3     1  UNL1        0.0724
     26 C          -6.0818  -15.5472   26.0765 C.3     1  UNL1        0.0724
     27 C          -6.7368  -15.5198   27.4257 C.3     1  UNL1        0.0188
@<TRIPOS>BOND
     1    24    25    1
     2    25    23    1
     3    23    26    1
     4    26    27    1
     5    23    22    1
     6    22     1    1
     7     1     2   ar
     8     2     3   ar
     9     3     9    1
    10     9    11    1
    11    11    12   ar
    12    12    13   ar
    13    13    14   ar
    14    14    15   ar
    15    15    16   ar
    16    16    17   ar
    17    17    18    1
    18    17    19   ar
    19    19    20   ar
    20    20    21   ar
    21     3     4   ar
    22     4     5   ar
    23     5     6   ar
    24     6     7    1
    25     6     1   ar
    26    21    11   ar
    27    21    15   ar
    28     9    10    1
    29     7     8    1
@<TRIPOS>MOLECULE
*****
 27 29 0 0 0
SMALL
GASTEIGER

@<TRIPOS>ATOM
      1 C          -4.3455  -17.2349   23.0133 C.ar    1  UNL1        0.0288
      2 C          -5.5450  -18.1285   22.9008 C.ar    1  UNL1        0.0147
      3 C          -5.4381  -19.4404   22.1814 C.ar    1  UNL1        0.0482
      4 C          -4.1317  -19.8587   21.5745 C.ar    1  UNL1        0.0177
      5 C          -2.9321  -18.9652   21.6871 C.ar    1  UNL1        0.0376
      6 C          -3.0391  -17.6532   22.4065 C.ar    1  UNL1        0.1310
      7 O          -1.8395  -16.7597   22.5191 O.3     1  UNL1       -0.5058
      8 H          -1.0235  -17.0210   22.1401 H       1  UNL1        0.2922
      9 N          -6.6377  -20.3339   22.0688 N.pl3   1  UNL1       -0.3125
     10 H          -6.6470  -21.2054   22.5267 H       1  UNL1        0.1522
     11 C          -7.8230  -19.8997   21.2585 C.ar    1  UNL1        0.0513
     12 C          -7.7402  -19.8774   19.7609 C.ar    1  UNL1        0.0353
     13 C          -8.9254  -19.4432   18.9507 C.ar    1  UNL1        0.1001
     14 N         -10.1935  -19.0312   19.6379 N.ar    1  UNL1       -0.2437
     15 C         -10.2763  -19.0534   21.1355 C.ar    1  UNL1        0.0833
     16 C         -11.5443  -18.6414   21.8227 C.ar    1  UNL1        0.0305
     17 C         -11.6271  -18.6637   23.3202 C.ar    1  UNL1        0.0592
     18 CL        -12.8952  -18.2517   24.0075 Cl      1  UNL1       -0.0822
     19 C         -10.4418  -19.0979   24.1306 C.ar    1  UNL1        0.0115
     20 C          -9.1738  -19.5099   23.4433 C.ar    1  UNL1        0.0036
     21 C          -9.0910  -19.4877   21.9457 C.ar    1  UNL1        0.0312
     22 C          -4.4524  -15.9230   23.7328 C.3     1  UNL1        0.1022
     23 N          -5.6246  -15.6523   24.6286 N.3     1  UNL1       -0.2689
     24 C          -8.1418  -15.8988   24.0345 C.3     1  UNL1        0.0188
     25 C          -6.8871  -15.0770   24.0585 C.3     1  UNL1        0.0724
     26 C          -5.5343  -15.9568   26.0946 C.3     1  UNL1        0.0724
     27 C          -6.4619  -15.2800   27.0598 C.3     1  UNL1        0.0188
@<TRIPOS>BOND
     1    24    25    1
     2    25    23    1
     3    23    26    1
     4    26    27    1
     5    23    22    1
     6    22     1    1
     7     1     2   ar
     8     2     3   ar
     9     3     9    1
    10     9    11    1
    11    11    12   ar
    12    12    13   ar
    13    13    14   ar
    14    14    15   ar
    15    15    16   ar
    16    16    17   ar
    17    17    18    1
    18    17    19   ar
    19    19    20   ar
    20    20    21   ar
    21     3     4   ar
    22     4     5   ar
    23     5     6   ar
    24     6     7    1
    25     6     1   ar
    26    21    11   ar
    27    21    15   ar
    28     9    10    1
    29     7     8    1
@<TRIPOS>MOLECULE
*****
 27 29 0 0 0
SMALL
GASTEIGER

@<TRIPOS>ATOM
      1 C          -3.8371  -19.1043   19.9792 C.ar    1  UNL1        0.0288
      2 C          -5.2321  -18.7783   19.5346 C.ar    1  UNL1        0.0147
      3 C          -6.4064  -19.2765   20.3236 C.ar    1  UNL1        0.0482
      4 C          -6.1858  -20.1008   21.5573 C.ar    1  UNL1        0.0177
      5 C          -4.7908  -20.4268   22.0020 C.ar    1  UNL1        0.0376
      6 C          -3.6164  -19.9285   21.2129 C.ar    1  UNL1        0.1310
      7 O          -2.2214  -20.2545   21.6575 O.3     1  UNL1       -0.5058
      8 H          -2.0836  -20.7694   22.4281 H       1  UNL1        0.2922
      9 N          -7.8014  -18.9505   19.8790 N.pl3   1  UNL1       -0.3125
     10 H          -7.9796  -18.7357   18.9349 H       1  UNL1        0.1522
     11 C          -8.9250  -18.9517   20.8729 C.ar    1  UNL1        0.0513
     12 C         -10.1024  -19.8592   20.6727 C.ar    1  UNL1        0.0353
     13 C         -11.2258  -19.8605   21.6666 C.ar    1  UNL1        0.1001
     14 N         -11.1718  -18.9542   22.8606 N.ar    1  UNL1       -0.2437
     15 C          -9.9944  -18.0467   23.0608 C.ar    1  UNL1        0.0833
     16 C          -9.9405  -17.1404   24.2548 C.ar    1  UNL1        0.0305
     17 C          -8.7631  -16.2329   24.4550 C.ar    1  UNL1        0.0592
     18 CL         -8.7091  -15.3266   25.6491 Cl      1  UNL1       -0.0822
     19 C          -7.6395  -16.2317   23.4611 C.ar    1  UNL1        0.0115
     20 C          -7.6935  -17.1379   22.2671 C.ar    1  UNL1        0.0036
     21 C          -8.8710  -18.0455   22.0669 C.ar    1  UNL1        0.0312
     22 C          -2.6627  -18.6060   19.1901 C.3     1  UNL1        0.1022
     23 N          -1.5872  -17.8098   19.8678 N.3     1  UNL1       -0.2689
     24 C          -2.2377  -16.7035   22.1268 C.3     1  UNL1        0.0188
     25 C          -1.9453  -16.5875   20.6601 C.3     1  UNL1        0.0724
     26 C          -0.1535  -18.2358   19.7532 C.3     1  UNL1        0.0724
     27 C           0.9415  -17.3103   20.1940 C.3     1  UNL1        0.0188
@<TRIPOS>BOND
     1    24    25    1
     2    25    23    1
     3    23    26    1
     4    26    27    1
     5    23    22    1
     6    22     1    1
     7     1     2   ar
     8     2     3   ar
     9     3     9    1
    10     9    11    1
    11    11    12   ar
    12    12    13   ar
    13    13    14   ar
    14    14    15   ar
    15    15    16   ar
    16    16    17   ar
    17    17    18    1
    18    17    19   ar
    19    19    20   ar
    20    20    21   ar
    21     3     4   ar
    22     4     5   ar
    23     5     6   ar
    24     6     7    1
    25     6     1   ar
    26    21    11   ar
    27    21    15   ar
    28     9    10    1
    29     7     8    1
@<TRIPOS>MOLECULE
*****
 27 29 0 0 0
SMALL
GASTEIGER

@<TRIPOS>ATOM
      1 C          -5.2872  -17.2086   23.1174 C.ar    1  UNL1        0.0288
      2 C          -6.5821  -17.9184   22.8539 C.ar    1  UNL1        0.0147
      3 C          -6.5755  -19.2894   22.2454 C.ar    1  UNL1        0.0482
      4 C          -5.2740  -19.9506   21.9004 C.ar    1  UNL1        0.0177
      5 C          -3.9791  -19.2407   22.1639 C.ar    1  UNL1        0.0376
      6 C          -3.9857  -17.8697   22.7725 C.ar    1  UNL1        0.1310
      7 O          -2.6909  -17.1598   23.0360 O.3     1  UNL1       -0.5058
      8 H          -1.8779  -17.5728   22.8205 H       1  UNL1        0.2922
      9 N          -7.8703  -19.9993   21.9819 N.pl3   1  UNL1       -0.3125
     10 H          -7.9020  -20.7420   21.3364 H       1  UNL1        0.1522
     11 C          -9.1169  -19.5775   22.7018 C.ar    1  UNL1        0.0513
     12 C          -9.3912  -20.0845   24.0866 C.ar    1  UNL1        0.0353
     13 C         -10.6377  -19.6627   24.8065 C.ar    1  UNL1        0.1001
     14 N         -11.6099  -18.7339   24.1416 N.ar    1  UNL1       -0.2437
     15 C         -11.3356  -18.2269   22.7568 C.ar    1  UNL1        0.0833
     16 C         -12.3078  -17.2981   22.0919 C.ar    1  UNL1        0.0305
     17 C         -12.0336  -16.7910   20.7071 C.ar    1  UNL1        0.0592
     18 CL        -13.0058  -15.8622   20.0422 Cl      1  UNL1       -0.0822
     19 C         -10.7870  -17.2128   19.9872 C.ar    1  UNL1        0.0115
     20 C          -9.8148  -18.1416   20.6521 C.ar    1  UNL1        0.0036
     21 C         -10.0891  -18.6487   22.0369 C.ar    1  UNL1        0.0312
     22 C          -5.2939  -15.8375   23.7260 C.3     1  UNL1        0.1022
     23 N          -6.2622  -15.5087   24.8233 N.3     1  UNL1       -0.2689
     24 C          -8.8224  -15.8508   24.5427 C.3     1  UNL1        0.0188
     25 C          -7.6171  -14.9594   24.4881 C.3     1  UNL1        0.0724
     26 C          -5.8756  -15.7291   26.2557 C.3     1  UNL1        0.0724
     27 C          -6.8059  -15.3129   27.3563 C.3     1  UNL1        0.0188
@<TRIPOS>BOND
     1    24    25    1
     2    25    23    1
     3    23    26    1
     4    26    27    1
     5    23    22    1
     6    22     1    1
     7     1     2   ar
     8     2     3   ar
     9     3     9    1
    10     9    11    1
    11    11    12   ar
    12    12    13   ar
    13    13    14   ar
    14    14    15   ar
    15    15    16   ar
    16    16    17   ar
    17    17    18    1
    18    17    19   ar
    19    19    20   ar
    20    20    21   ar
    21     3     4   ar
    22     4     5   ar
    23     5     6   ar
    24     6     7    1
    25     6     1   ar
    26    21    11   ar
    27    21    15   ar
    28     9    10    1
    29     7     8    1
@<TRIPOS>MOLECULE
*****
 27 29 0 0 0
SMALL
GASTEIGER

@<TRIPOS>ATOM
      1 C          -4.3873  -19.0327   22.2525 C.ar    1  UNL1        0.0288
      2 C          -5.8690  -19.2043   22.0942 C.ar    1  UNL1        0.0147
      3 C          -6.4094  -20.1125   21.0297 C.ar    1  UNL1        0.0482
      4 C          -5.4680  -20.8491   20.1234 C.ar    1  UNL1        0.0177
      5 C          -3.9863  -20.6775   20.2817 C.ar    1  UNL1        0.0376
      6 C          -3.4460  -19.7692   21.3462 C.ar    1  UNL1        0.1310
      7 O          -1.9642  -19.5976   21.5045 O.3     1  UNL1       -0.5058
      8 H          -1.3762  -20.0577   20.9384 H       1  UNL1        0.2922
      9 N          -7.8911  -20.2841   20.8715 N.pl3   1  UNL1       -0.3125
     10 H          -8.2501  -20.7721   20.0954 H       1  UNL1        0.1522
     11 C          -8.8260  -19.7122   21.8957 C.ar    1  UNL1        0.0513
     12 C          -8.7083  -20.1260   23.3327 C.ar    1  UNL1        0.0353
     13 C          -9.6432  -19.5541   24.3568 C.ar    1  UNL1        0.1001
     14 N         -10.6957  -18.5683   23.9440 N.ar    1  UNL1       -0.2437
     15 C         -10.8134  -18.1545   22.5071 C.ar    1  UNL1        0.0833
     16 C         -11.8659  -17.1687   22.0943 C.ar    1  UNL1        0.0305
     17 C         -11.9836  -16.7548   20.6574 C.ar    1  UNL1        0.0592
     18 CL        -13.0361  -15.7690   20.2446 Cl      1  UNL1       -0.0822
     19 C         -11.0487  -17.3267   19.6331 C.ar    1  UNL1        0.0115
     20 C          -9.9962  -18.3125   20.0459 C.ar    1  UNL1        0.0036
     21 C          -9.8785  -18.7264   21.4829 C.ar    1  UNL1        0.0312
     22 C          -3.8469  -18.1245   23.3170 C.3     1  UNL1        0.1022
     23 N          -4.0616  -16.6432   23.2190 N.3     1  UNL1       -0.2689
     24 C          -1.9358  -16.2680   21.7731 C.3     1  UNL1        0.0188
     25 C          -3.3104  -15.8425   22.1970 C.3     1  UNL1        0.0724
     26 C          -5.0274  -15.9625   24.1431 C.3     1  UNL1        0.0724
     27 C          -6.4962  -15.9816   23.8394 C.3     1  UNL1        0.0188
@<TRIPOS>BOND
     1    24    25    1
     2    25    23    1
     3    23    26    1
     4    26    27    1
     5    23    22    1
     6    22     1    1
     7     1     2   ar
     8     2     3   ar
     9     3     9    1
    10     9    11    1
    11    11    12   ar
    12    12    13   ar
    13    13    14   ar
    14    14    15   ar
    15    15    16   ar
    16    16    17   ar
    17    17    18    1
    18    17    19   ar
    19    19    20   ar
    20    20    21   ar
    21     3     4   ar
    22     4     5   ar
    23     5     6   ar
    24     6     7    1
    25     6     1   ar
    26    21    11   ar
    27    21    15   ar
    28     9    10    1
    29     7     8    1
@<TRIPOS>MOLECULE
*****
 27 29 0 0 0
SMALL
GASTEIGER

@<TRIPOS>ATOM
      1 C           6.7230   -3.6400   24.4306 C.ar    1  UNL1        0.0288
      2 C           6.1550   -4.0320   23.0988 C.ar    1  UNL1        0.0147
      3 C           4.9405   -3.3314   22.5659 C.ar    1  UNL1        0.0482
      4 C           4.2938   -2.2388   23.3648 C.ar    1  UNL1        0.0177
      5 C           4.8618   -1.8469   24.6966 C.ar    1  UNL1        0.0376
      6 C           6.0765   -2.5475   25.2295 C.ar    1  UNL1        0.1310
      7 O           6.6445   -2.1555   26.5613 O.3     1  UNL1       -0.5058
      8 H           6.2406   -1.4730   27.0604 H       1  UNL1        0.2922
      9 N           4.3725   -3.7234   21.2341 N.pl3   1  UNL1       -0.3125
     10 H           3.7937   -4.5163   21.1599 H       1  UNL1        0.1522
     11 C           4.6864   -2.9073   20.0153 C.ar    1  UNL1        0.0513
     12 C           5.9469   -3.1650   19.2442 C.ar    1  UNL1        0.0353
     13 C           6.2608   -2.3489   18.0255 C.ar    1  UNL1        0.1001
     14 N           5.3141   -1.2750   17.5778 N.ar    1  UNL1       -0.2437
     15 C           4.0535   -1.0172   18.3488 C.ar    1  UNL1        0.0833
     16 C           3.1068    0.0567   17.9011 C.ar    1  UNL1        0.0305
     17 C           1.8463    0.3145   18.6721 C.ar    1  UNL1        0.0592
     18 CL          0.8996    1.3885   18.2244 Cl      1  UNL1       -0.0822
     19 C           1.5324   -0.5016   19.8910 C.ar    1  UNL1        0.0115
     20 C           2.4791   -1.5756   20.3387 C.ar    1  UNL1        0.0036
     21 C           3.7397   -1.8333   19.5676 C.ar    1  UNL1        0.0312
     22 C           7.9377   -4.3406   24.9635 C.3     1  UNL1        0.1022
     23 N           7.7827   -5.5230   25.8734 N.3     1  UNL1       -0.2689
     24 C           6.4874   -5.4058   28.1225 C.3     1  UNL1        0.0188
     25 C           7.7774   -5.3290   27.3607 C.3     1  UNL1        0.0724
     26 C           7.6332   -6.8992   25.2959 C.3     1  UNL1        0.0724
     27 C           8.4411   -7.3018   24.0980 C.3     1  UNL1        0.0188
@<TRIPOS>BOND
     1    24    25    1
     2    25    23    1
     3    23    26    1
     4    26    27    1
     5    23    22    1
     6    22     1    1
     7     1     2   ar
     8     2     3   ar
     9     3     9    1
    10     9    11    1
    11    11    12   ar
    12    12    13   ar
    13    13    14   ar
    14    14    15   ar
    15    15    16   ar
    16    16    17   ar
    17    17    18    1
    18    17    19   ar
    19    19    20   ar
    20    20    21   ar
    21     3     4   ar
    22     4     5   ar
    23     5     6   ar
    24     6     7    1
    25     6     1   ar
    26    21    11   ar
    27    21    15   ar
    28     9    10    1
    29     7     8    1
@<TRIPOS>MOLECULE
*****
 27 29 0 0 0
SMALL
GASTEIGER

@<TRIPOS>ATOM
      1 C          -4.7993  -18.9101   20.6924 C.ar    1  UNL1        0.0288
      2 C          -5.6628  -18.0787   21.5942 C.ar    1  UNL1        0.0147
      3 C          -6.7949  -18.7152   22.3445 C.ar    1  UNL1        0.0482
      4 C          -7.0636  -20.1832   22.1931 C.ar    1  UNL1        0.0177
      5 C          -6.2001  -21.0146   21.2913 C.ar    1  UNL1        0.0376
      6 C          -5.0679  -20.3780   20.5410 C.ar    1  UNL1        0.1310
      7 O          -4.2043  -21.2094   19.6393 O.3     1  UNL1       -0.5058
      8 H          -4.3721  -22.1264   19.5447 H       1  UNL1        0.2922
      9 N          -7.6585  -17.8838   23.2462 N.pl3   1  UNL1       -0.3125
     10 H          -7.2643  -17.1401   23.7568 H       1  UNL1        0.1522
     11 C          -9.1227  -18.1856   23.3699 C.ar    1  UNL1        0.0513
     12 C          -9.6070  -19.1292   24.4306 C.ar    1  UNL1        0.0353
     13 C         -11.0711  -19.4309   24.5542 C.ar    1  UNL1        0.1001
     14 N         -12.0508  -18.7891   23.6171 N.ar    1  UNL1       -0.2437
     15 C         -11.5665  -17.8455   22.5564 C.ar    1  UNL1        0.0833
     16 C         -12.5463  -17.2037   21.6194 C.ar    1  UNL1        0.0305
     17 C         -12.0620  -16.2602   20.5587 C.ar    1  UNL1        0.0592
     18 CL        -13.0418  -15.6184   19.6216 Cl      1  UNL1       -0.0822
     19 C         -10.5979  -15.9584   20.4350 C.ar    1  UNL1        0.0115
     20 C          -9.6181  -16.6002   21.3721 C.ar    1  UNL1        0.0036
     21 C         -10.1024  -17.5438   22.4328 C.ar    1  UNL1        0.0312
     22 C          -3.6671  -18.2734   19.9421 C.3     1  UNL1        0.1022
     23 N          -2.3663  -18.0002   20.6373 N.3     1  UNL1       -0.2689
     24 C          -2.4479  -17.7632   23.2233 C.3     1  UNL1        0.0188
     25 C          -2.3385  -17.1378   21.8643 C.3     1  UNL1        0.0724
     26 C          -1.0935  -18.5893   20.1056 C.3     1  UNL1        0.0724
     27 C           0.1088  -17.7161   19.9003 C.3     1  UNL1        0.0188
@<TRIPOS>BOND
     1    24    25    1
     2    25    23    1
     3    23    26    1
     4    26    27    1
     5    23    22    1
     6    22     1    1
     7     1     2   ar
     8     2     3   ar
     9     3     9    1
    10     9    11    1
    11    11    12   ar
    12    12    13   ar
    13    13    14   ar
    14    14    15   ar
    15    15    16   ar
    16    16    17   ar
    17    17    18    1
    18    17    19   ar
    19    19    20   ar
    20    20    21   ar
    21     3     4   ar
    22     4     5   ar
    23     5     6   ar
    24     6     7    1
    25     6     1   ar
    26    21    11   ar
    27    21    15   ar
    28     9    10    1
    29     7     8    1
@<TRIPOS>MOLECULE
*****
 27 29 0 0 0
SMALL
GASTEIGER

@<TRIPOS>ATOM
      1 C           5.9147   -2.8142   18.9635 C.ar    1  UNL1        0.0288
      2 C           6.2741   -3.7306   20.0953 C.ar    1  UNL1        0.0147
      3 C           7.6779   -3.7557   20.6231 C.ar    1  UNL1        0.0482
      4 C           8.7224   -2.8645   20.0191 C.ar    1  UNL1        0.0177
      5 C           8.3630   -1.9482   18.8872 C.ar    1  UNL1        0.0376
      6 C           6.9591   -1.9230   18.3594 C.ar    1  UNL1        0.1310
      7 O           6.5997   -1.0066   17.2275 O.3     1  UNL1       -0.5058
      8 H           7.2522   -0.4499   16.8502 H       1  UNL1        0.2922
      9 N           8.0373   -4.6721   21.7550 N.pl3   1  UNL1       -0.3125
     10 H           8.6118   -5.4546   21.5914 H       1  UNL1        0.1522
     11 C           7.5212   -4.3962   23.1362 C.ar    1  UNL1        0.0513
     12 C           6.8839   -3.0748   23.4486 C.ar    1  UNL1        0.0353
     13 C           6.3679   -2.7989   24.8297 C.ar    1  UNL1        0.1001
     14 N           6.4892   -3.8444   25.8985 N.ar    1  UNL1       -0.2437
     15 C           7.1265   -5.1658   25.5861 C.ar    1  UNL1        0.0833
     16 C           7.2478   -6.2113   26.6548 C.ar    1  UNL1        0.0305
     17 C           7.8851   -7.5327   26.3424 C.ar    1  UNL1        0.0592
     18 CL          8.0064   -8.5783   27.4111 Cl      1  UNL1       -0.0822
     19 C           8.4012   -7.8087   24.9612 C.ar    1  UNL1        0.0115
     20 C           8.2799   -6.7632   23.8925 C.ar    1  UNL1        0.0036
     21 C           7.6425   -5.4417   24.2049 C.ar    1  UNL1        0.0312
     22 C           4.5108   -2.7891   18.4356 C.3     1  UNL1        0.1022
     23 N           3.5968   -1.6536   18.7894 N.3     1  UNL1       -0.2689
     24 C           3.8389    0.8851   18.2930 C.3     1  UNL1        0.0188
     25 C           3.4446   -0.4931   17.8513 C.3     1  UNL1        0.0724
     26 C           2.8349   -1.6786   20.0813 C.3     1  UNL1        0.0724
     27 C           3.5385   -1.3839   21.3728 C.3     1  UNL1        0.0188
@<TRIPOS>BOND
     1    24    25    1
     2    25    23    1
     3    23    26    1
     4    26    27    1
     5    23    22    1
     6    22     1    1
     7     1     2   ar
     8     2     3   ar
     9     3     9    1
    10     9    11    1
    11    11    12   ar
    12    12    13   ar
    13    13    14   ar
    14    14    15   ar
    15    15    16   ar
    16    16    17   ar
    17    17    18    1
    18    17    19   ar
    19    19    20   ar
    20    20    21   ar
    21     3     4   ar
    22     4     5   ar
    23     5     6   ar
    24     6     7    1
    25     6     1   ar
    26    21    11   ar
    27    21    15   ar
    28     9    10    1
    29     7     8    1
