@<TRIPOS>MOLECULE
*****
 25 28 0 0 0
SMALL
GASTEIGER

@<TRIPOS>ATOM
      1 C          -9.3826  -17.9306   23.1814 C.3     1  UNL1        0.1275
      2 CL        -11.5114  -16.2215   22.2143 Cl      1  UNL1       -0.0825
      3 C         -11.6760  -16.7885   22.7500 C.ar    1  UNL1        0.0560
      4 C         -13.1473  -16.6850   23.0226 C.ar    1  UNL1        0.0112
      5 C         -13.7967  -17.6200   23.9994 C.ar    1  UNL1        0.0008
      6 C         -12.9748  -18.6586   24.7034 C.ar    1  UNL1       -0.0002
      7 C         -11.5034  -18.7621   24.4308 C.ar    1  UNL1       -0.0011
      8 C         -10.8540  -17.8271   23.4540 C.ar    1  UNL1        0.0146
      9 C          -9.0935  -17.2255   24.4733 C.ar    1  UNL1        0.0040
     10 C          -8.8228  -15.7501   24.4782 C.ar    1  UNL1       -0.0019
     11 C          -8.5337  -15.0450   25.7703 C.ar    1  UNL1       -0.0002
     12 C          -8.5153  -15.8152   27.0573 C.ar    1  UNL1       -0.0000
     13 C          -8.7861  -17.2905   27.0523 C.ar    1  UNL1       -0.0002
     14 C          -9.0752  -17.9957   25.7604 C.ar    1  UNL1       -0.0019
     15 C          -9.6717  -18.6358   21.8894 C.ar    1  UNL1        0.0040
     16 C          -9.0132  -18.1784   20.6216 C.ar    1  UNL1       -0.0019
     17 C          -9.3022  -18.8835   19.3297 C.ar    1  UNL1       -0.0002
     18 C         -10.2499  -20.0461   19.3054 C.ar    1  UNL1       -0.0000
     19 C         -10.9084  -20.5034   20.5731 C.ar    1  UNL1       -0.0002
     20 C         -10.6193  -19.7983   21.8652 C.ar    1  UNL1       -0.0019
     21 N          -7.9113  -18.0342   22.9087 N.ar    1  UNL1       -0.3008
     22 C          -7.1767  -19.2744   22.4935 C.ar    1  UNL1        0.0987
     23 C          -5.7276  -18.9225   22.3315 C.ar    1  UNL1        0.1193
     24 N          -5.5666  -17.4647   22.6465 N.ar    1  UNL1       -0.2223
     25 C          -6.9162  -16.9158   23.0032 C.ar    1  UNL1        0.1792
@<TRIPOS>BOND
     1     2     3    1
     2     3     4   ar
     3     4     5   ar
     4     5     6   ar
     5     6     7   ar
     6     7     8   ar
     7     8     1    1
     8     1     9    1
     9     9    10   ar
    10    10    11   ar
    11    11    12   ar
    12    12    13   ar
    13    13    14   ar
    14     1    15    1
    15    15    16   ar
    16    16    17   ar
    17    17    18   ar
    18    18    19   ar
    19    19    20   ar
    20     1    21    1
    21    21    22   ar
    22    22    23   ar
    23    23    24   ar
    24    24    25   ar
    25     8     3   ar
    26    14     9   ar
    27    20    15   ar
    28    25    21   ar
@<TRIPOS>MOLECULE
*****
 25 28 0 0 0
SMALL
GASTEIGER

@<TRIPOS>ATOM
      1 C          -9.3830  -17.9305   23.1817 C.3     1  UNL1        0.1275
      2 CL        -11.5121  -16.2220   22.2142 Cl      1  UNL1       -0.0825
      3 C         -11.6766  -16.7887   22.7502 C.ar    1  UNL1        0.0560
      4 C         -13.1478  -16.6851   23.0231 C.ar    1  UNL1        0.0112
      5 C         -13.7970  -17.6197   24.0005 C.ar    1  UNL1        0.0008
      6 C         -12.9748  -18.6578   24.7049 C.ar    1  UNL1       -0.0002
      7 C         -11.5036  -18.7614   24.4320 C.ar    1  UNL1       -0.0011
      8 C         -10.8544  -17.8268   23.4546 C.ar    1  UNL1        0.0146
      9 C          -9.6723  -18.6344   21.8892 C.ar    1  UNL1        0.0040
     10 C         -10.6172  -19.7991   21.8645 C.ar    1  UNL1       -0.0019
     11 C         -10.9065  -20.5030   20.5719 C.ar    1  UNL1       -0.0002
     12 C         -10.2508  -20.0422   19.3039 C.ar    1  UNL1       -0.0000
     13 C          -9.3059  -18.8775   19.3286 C.ar    1  UNL1       -0.0002
     14 C          -9.0166  -18.1736   20.6211 C.ar    1  UNL1       -0.0019
     15 C          -9.0938  -17.2266   24.4743 C.ar    1  UNL1        0.0040
     16 C          -8.8229  -15.7512   24.4806 C.ar    1  UNL1       -0.0019
     17 C          -8.5336  -15.0473   25.7732 C.ar    1  UNL1       -0.0002
     18 C          -8.5152  -15.8186   27.0595 C.ar    1  UNL1       -0.0000
     19 C          -8.7860  -17.2939   27.0532 C.ar    1  UNL1       -0.0002
     20 C          -9.0753  -17.9979   25.7606 C.ar    1  UNL1       -0.0019
     21 N          -7.9117  -18.0341   22.9089 N.ar    1  UNL1       -0.3008
     22 C          -7.1773  -19.2742   22.4934 C.ar    1  UNL1        0.0987
     23 C          -5.7282  -18.9223   22.3313 C.ar    1  UNL1        0.1193
     24 N          -5.5670  -17.4647   22.6467 N.ar    1  UNL1       -0.2223
     25 C          -6.9165  -16.9158   23.0037 C.ar    1  UNL1        0.1792
@<TRIPOS>BOND
     1     2     3    1
     2     3     4   ar
     3     4     5   ar
     4     5     6   ar
     5     6     7   ar
     6     7     8   ar
     7     8     1    1
     8     1     9    1
     9     9    10   ar
    10    10    11   ar
    11    11    12   ar
    12    12    13   ar
    13    13    14   ar
    14     1    15    1
    15    15    16   ar
    16    16    17   ar
    17    17    18   ar
    18    18    19   ar
    19    19    20   ar
    20     1    21    1
    21    21    22   ar
    22    22    23   ar
    23    23    24   ar
    24    24    25   ar
    25     8     3   ar
    26    14     9   ar
    27    20    15   ar
    28    25    21   ar
@<TRIPOS>MOLECULE
*****
 25 28 0 0 0
SMALL
GASTEIGER

@<TRIPOS>ATOM
      1 C          -9.1967  -18.0182   22.6672 C.3     1  UNL1        0.1275
      2 CL         -9.5362  -18.9024   25.4042 Cl      1  UNL1       -0.0825
      3 C          -9.2492  -18.1728   25.2602 C.ar    1  UNL1        0.0560
      4 C          -9.0009  -17.5537   26.6037 C.ar    1  UNL1        0.0112
      5 C          -8.4519  -16.1609   26.6978 C.ar    1  UNL1        0.0008
      6 C          -8.1511  -15.3873   25.4484 C.ar    1  UNL1       -0.0002
      7 C          -8.3994  -16.0064   24.1049 C.ar    1  UNL1       -0.0011
      8 C          -8.9484  -17.3991   24.0108 C.ar    1  UNL1        0.0146
      9 C         -10.6290  -17.5768   22.7284 C.ar    1  UNL1        0.0040
     10 C         -11.0307  -16.2518   22.1513 C.ar    1  UNL1       -0.0019
     11 C         -12.4630  -15.8104   22.2126 C.ar    1  UNL1       -0.0002
     12 C         -13.4935  -16.6939   22.8508 C.ar    1  UNL1       -0.0000
     13 C         -13.0918  -18.0189   23.4279 C.ar    1  UNL1       -0.0002
     14 C         -11.6595  -18.4603   23.3667 C.ar    1  UNL1       -0.0019
     15 C          -7.7645  -18.4597   22.6060 C.ar    1  UNL1        0.0040
     16 C          -6.6625  -17.4573   22.7823 C.ar    1  UNL1       -0.0019
     17 C          -5.2303  -17.8988   22.7211 C.ar    1  UNL1       -0.0002
     18 C          -4.8999  -19.3426   22.4836 C.ar    1  UNL1       -0.0000
     19 C          -6.0018  -20.3449   22.3073 C.ar    1  UNL1       -0.0002
     20 C          -7.4342  -19.9035   22.3685 C.ar    1  UNL1       -0.0019
     21 N          -9.4450  -18.6373   21.3237 N.ar    1  UNL1       -0.3008
     22 C         -10.5965  -19.5281   20.9626 C.ar    1  UNL1        0.0987
     23 C         -10.4485  -19.9156   19.5211 C.ar    1  UNL1        0.1193
     24 N          -9.2054  -19.2644   18.9913 N.ar    1  UNL1       -0.2223
     25 C          -8.5852  -18.4743   20.1054 C.ar    1  UNL1        0.1792
@<TRIPOS>BOND
     1     2     3    1
     2     3     4   ar
     3     4     5   ar
     4     5     6   ar
     5     6     7   ar
     6     7     8   ar
     7     8     1    1
     8     1     9    1
     9     9    10   ar
    10    10    11   ar
    11    11    12   ar
    12    12    13   ar
    13    13    14   ar
    14     1    15    1
    15    15    16   ar
    16    16    17   ar
    17    17    18   ar
    18    18    19   ar
    19    19    20   ar
    20     1    21    1
    21    21    22   ar
    22    22    23   ar
    23    23    24   ar
    24    24    25   ar
    25     8     3   ar
    26    14     9   ar
    27    20    15   ar
    28    25    21   ar
@<TRIPOS>MOLECULE
*****
 25 28 0 0 0
SMALL
GASTEIGER

@<TRIPOS>ATOM
      1 C         -13.8698   -4.7845   18.0626 C.3     1  UNL1        0.1275
      2 CL        -12.7621   -2.8249   19.8851 Cl      1  UNL1       -0.0825
      3 C         -12.5461   -2.8136   19.1178 C.ar    1  UNL1        0.0560
      4 C         -11.5795   -1.6752   18.9773 C.ar    1  UNL1        0.0112
      5 C         -10.9699   -1.3694   17.6413 C.ar    1  UNL1        0.0008
      6 C         -11.3269   -2.2019   16.4458 C.ar    1  UNL1       -0.0002
      7 C         -12.2935   -3.3402   16.5862 C.ar    1  UNL1       -0.0011
      8 C         -12.9031   -3.6461   17.9222 C.ar    1  UNL1        0.0146
      9 C         -12.7395   -5.7611   17.9259 C.ar    1  UNL1        0.0040
     10 C         -12.6124   -6.5921   16.6836 C.ar    1  UNL1       -0.0019
     11 C         -11.4821   -7.5687   16.5469 C.ar    1  UNL1       -0.0002
     12 C         -10.4790   -7.7144   17.6525 C.ar    1  UNL1       -0.0000
     13 C         -10.6061   -6.8835   18.8948 C.ar    1  UNL1       -0.0002
     14 C         -11.7363   -5.9069   19.0316 C.ar    1  UNL1       -0.0019
     15 C         -15.0000   -3.8079   18.1994 C.ar    1  UNL1        0.0040
     16 C         -15.8110   -3.7711   19.4607 C.ar    1  UNL1       -0.0019
     17 C         -16.9413   -2.7945   19.5974 C.ar    1  UNL1       -0.0002
     18 C         -17.2605   -1.8546   18.4729 C.ar    1  UNL1       -0.0000
     19 C         -16.4495   -1.8913   17.2116 C.ar    1  UNL1       -0.0002
     20 C         -15.3192   -2.8680   17.0748 C.ar    1  UNL1       -0.0019
     21 N         -14.8364   -5.9228   18.2030 N.ar    1  UNL1       -0.3008
     22 C         -14.9190   -6.8715   19.3620 C.ar    1  UNL1        0.0987
     23 C         -16.0238   -7.8473   19.0844 C.ar    1  UNL1        0.1193
     24 N         -16.6240   -7.5019   17.7538 N.ar    1  UNL1       -0.2223
     25 C         -15.8901   -6.3125   17.2091 C.ar    1  UNL1        0.1792
@<TRIPOS>BOND
     1     2     3    1
     2     3     4   ar
     3     4     5   ar
     4     5     6   ar
     5     6     7   ar
     6     7     8   ar
     7     8     1    1
     8     1     9    1
     9     9    10   ar
    10    10    11   ar
    11    11    12   ar
    12    12    13   ar
    13    13    14   ar
    14     1    15    1
    15    15    16   ar
    16    16    17   ar
    17    17    18   ar
    18    18    19   ar
    19    19    20   ar
    20     1    21    1
    21    21    22   ar
    22    22    23   ar
    23    23    24   ar
    24    24    25   ar
    25     8     3   ar
    26    14     9   ar
    27    20    15   ar
    28    25    21   ar
@<TRIPOS>MOLECULE
*****
 25 28 0 0 0
SMALL
GASTEIGER

@<TRIPOS>ATOM
      1 C         -13.8470   -4.8008   18.0674 C.3     1  UNL1        0.1275
      2 CL        -12.7393   -2.8446   19.8935 Cl      1  UNL1       -0.0825
      3 C         -12.5321   -2.8247   19.1239 C.ar    1  UNL1        0.0560
      4 C         -11.5791   -1.6751   18.9821 C.ar    1  UNL1        0.0112
      5 C         -10.9879   -1.3520   17.6419 C.ar    1  UNL1        0.0008
      6 C         -11.3497   -2.1784   16.4435 C.ar    1  UNL1       -0.0002
      7 C         -12.3027   -3.3280   16.5854 C.ar    1  UNL1       -0.0011
      8 C         -12.8939   -3.6512   17.9256 C.ar    1  UNL1        0.0146
      9 C         -14.9843   -3.8374   18.2350 C.ar    1  UNL1        0.0040
     10 C         -15.3299   -2.8852   17.1287 C.ar    1  UNL1       -0.0019
     11 C         -16.4673   -1.9217   17.2963 C.ar    1  UNL1       -0.0002
     12 C         -17.2591   -1.9104   18.5702 C.ar    1  UNL1       -0.0000
     13 C         -16.9136   -2.8626   19.6765 C.ar    1  UNL1       -0.0002
     14 C         -15.7762   -3.8260   19.5090 C.ar    1  UNL1       -0.0019
     15 C         -12.7096   -5.7643   17.8999 C.ar    1  UNL1        0.0040
     16 C         -12.6013   -6.5868   16.6501 C.ar    1  UNL1       -0.0019
     17 C         -11.4640   -7.5503   16.4826 C.ar    1  UNL1       -0.0002
     18 C         -10.4349   -7.6913   17.5647 C.ar    1  UNL1       -0.0000
     19 C         -10.5431   -6.8688   18.8144 C.ar    1  UNL1       -0.0002
     20 C         -11.6805   -5.9053   18.9820 C.ar    1  UNL1       -0.0019
     21 N         -14.7999   -5.9505   18.2093 N.ar    1  UNL1       -0.3008
     22 C         -14.8536   -6.9147   19.3570 C.ar    1  UNL1        0.0987
     23 C         -15.9534   -7.8979   19.0854 C.ar    1  UNL1        0.1193
     24 N         -16.5794   -7.5413   17.7696 N.ar    1  UNL1       -0.2223
     25 C         -15.8665   -6.3377   17.2282 C.ar    1  UNL1        0.1792
@<TRIPOS>BOND
     1     2     3    1
     2     3     4   ar
     3     4     5   ar
     4     5     6   ar
     5     6     7   ar
     6     7     8   ar
     7     8     1    1
     8     1     9    1
     9     9    10   ar
    10    10    11   ar
    11    11    12   ar
    12    12    13   ar
    13    13    14   ar
    14     1    15    1
    15    15    16   ar
    16    16    17   ar
    17    17    18   ar
    18    18    19   ar
    19    19    20   ar
    20     1    21    1
    21    21    22   ar
    22    22    23   ar
    23    23    24   ar
    24    24    25   ar
    25     8     3   ar
    26    14     9   ar
    27    20    15   ar
    28    25    21   ar
@<TRIPOS>MOLECULE
*****
 25 28 0 0 0
SMALL
GASTEIGER

@<TRIPOS>ATOM
      1 C         -13.8363   -4.6881   18.0246 C.3     1  UNL1        0.1275
      2 CL        -12.9720   -6.5506   15.9820 Cl      1  UNL1       -0.0825
      3 C         -12.5735   -6.5114   16.6714 C.ar    1  UNL1        0.0560
      4 C         -11.4649   -7.5162   16.5657 C.ar    1  UNL1        0.0112
      5 C         -10.5104   -7.7027   17.7077 C.ar    1  UNL1        0.0008
      6 C         -10.6644   -6.8843   18.9553 C.ar    1  UNL1       -0.0002
      7 C         -11.7731   -5.8795   19.0609 C.ar    1  UNL1       -0.0011
      8 C         -12.7276   -5.6930   17.9189 C.ar    1  UNL1        0.0146
      9 C         -12.8390   -3.5747   17.8993 C.ar    1  UNL1        0.0040
     10 C         -12.4692   -2.7600   19.1033 C.ar    1  UNL1       -0.0019
     11 C         -11.4719   -1.6465   18.9779 C.ar    1  UNL1       -0.0002
     12 C         -10.8445   -1.3477   17.6486 C.ar    1  UNL1       -0.0000
     13 C         -11.2143   -2.1624   16.4446 C.ar    1  UNL1       -0.0002
     14 C         -12.2116   -3.2758   16.5699 C.ar    1  UNL1       -0.0019
     15 C         -14.8335   -5.8015   18.1499 C.ar    1  UNL1        0.0040
     16 C         -15.8762   -5.9974   17.0894 C.ar    1  UNL1       -0.0019
     17 C         -16.8734   -7.1109   17.2147 C.ar    1  UNL1       -0.0002
     18 C         -16.8280   -8.0284   18.4005 C.ar    1  UNL1       -0.0000
     19 C         -15.7854   -7.8326   19.4609 C.ar    1  UNL1       -0.0002
     20 C         -14.7881   -6.7191   19.3357 C.ar    1  UNL1       -0.0019
     21 N         -14.9449   -3.6833   18.1303 N.ar    1  UNL1       -0.3008
     22 C         -15.7364   -3.3704   19.3654 C.ar    1  UNL1        0.0987
     23 C         -16.7374   -2.3086   19.0179 C.ar    1  UNL1        0.1193
     24 N         -16.5645   -1.9653   17.5679 N.ar    1  UNL1       -0.2223
     25 C         -15.4566   -2.8149   17.0194 C.ar    1  UNL1        0.1792
@<TRIPOS>BOND
     1     2     3    1
     2     3     4   ar
     3     4     5   ar
     4     5     6   ar
     5     6     7   ar
     6     7     8   ar
     7     8     1    1
     8     1     9    1
     9     9    10   ar
    10    10    11   ar
    11    11    12   ar
    12    12    13   ar
    13    13    14   ar
    14     1    15    1
    15    15    16   ar
    16    16    17   ar
    17    17    18   ar
    18    18    19   ar
    19    19    20   ar
    20     1    21    1
    21    21    22   ar
    22    22    23   ar
    23    23    24   ar
    24    24    25   ar
    25     8     3   ar
    26    14     9   ar
    27    20    15   ar
    28    25    21   ar
@<TRIPOS>MOLECULE
*****
 25 28 0 0 0
SMALL
GASTEIGER

@<TRIPOS>ATOM
      1 C           4.8667   -0.7062   19.5214 C.3     1  UNL1        0.1275
      2 CL          2.7752    0.1009   17.6878 Cl      1  UNL1       -0.0825
      3 C           2.6228    0.0743   18.4698 C.ar    1  UNL1        0.0560
      4 C           1.1915    0.4948   18.6266 C.ar    1  UNL1        0.0112
      5 C           0.5729    0.5555   19.9918 C.ar    1  UNL1        0.0008
      6 C           1.3855    0.1956   21.2001 C.ar    1  UNL1       -0.0002
      7 C           2.8167   -0.2250   21.0433 C.ar    1  UNL1       -0.0011
      8 C           3.4354   -0.2856   19.6782 C.ar    1  UNL1        0.0146
      9 C           5.2496    0.7111   19.2143 C.ar    1  UNL1        0.0040
     10 C           5.7812    1.0674   17.8577 C.ar    1  UNL1       -0.0019
     11 C           6.1642    2.4848   17.5507 C.ar    1  UNL1       -0.0002
     12 C           6.0155    3.5460   18.6003 C.ar    1  UNL1       -0.0000
     13 C           5.4839    3.1898   19.9569 C.ar    1  UNL1       -0.0002
     14 C           5.1010    1.7724   20.2640 C.ar    1  UNL1       -0.0019
     15 C           4.4837   -2.1236   19.8284 C.ar    1  UNL1        0.0040
     16 C           4.7755   -2.7032   21.1809 C.ar    1  UNL1       -0.0019
     17 C           4.3925   -4.1206   21.4879 C.ar    1  UNL1       -0.0002
     18 C           3.7179   -4.9585   20.4426 C.ar    1  UNL1       -0.0000
     19 C           3.4262   -4.3790   19.0902 C.ar    1  UNL1       -0.0002
     20 C           3.8091   -2.9615   18.7831 C.ar    1  UNL1       -0.0019
     21 N           6.2979   -1.1269   19.3646 N.ar    1  UNL1       -0.3008
     22 C           7.4286   -0.7654   20.2817 C.ar    1  UNL1        0.0987
     23 C           8.6792   -1.3980   19.7471 C.ar    1  UNL1        0.1193
     24 N           8.3215   -2.1503   18.4997 N.ar    1  UNL1       -0.2223
     25 C           6.8498   -1.9828   18.2633 C.ar    1  UNL1        0.1792
@<TRIPOS>BOND
     1     2     3    1
     2     3     4   ar
     3     4     5   ar
     4     5     6   ar
     5     6     7   ar
     6     7     8   ar
     7     8     1    1
     8     1     9    1
     9     9    10   ar
    10    10    11   ar
    11    11    12   ar
    12    12    13   ar
    13    13    14   ar
    14     1    15    1
    15    15    16   ar
    16    16    17   ar
    17    17    18   ar
    18    18    19   ar
    19    19    20   ar
    20     1    21    1
    21    21    22   ar
    22    22    23   ar
    23    23    24   ar
    24    24    25   ar
    25     8     3   ar
    26    14     9   ar
    27    20    15   ar
    28    25    21   ar
@<TRIPOS>MOLECULE
*****
 25 28 0 0 0
SMALL
GASTEIGER

@<TRIPOS>ATOM
      1 C           4.8671   -0.7085   19.5189 C.3     1  UNL1        0.1275
      2 CL          2.7769    0.0980   17.6836 Cl      1  UNL1       -0.0825
      3 C           2.6240    0.0719   18.4655 C.ar    1  UNL1        0.0560
      4 C           1.1928    0.4930   18.6212 C.ar    1  UNL1        0.0112
      5 C           0.5734    0.5547   19.9859 C.ar    1  UNL1        0.0008
      6 C           1.3851    0.1954   21.1950 C.ar    1  UNL1       -0.0002
      7 C           2.8163   -0.2257   21.0393 C.ar    1  UNL1       -0.0011
      8 C           3.4358   -0.2874   19.6746 C.ar    1  UNL1        0.0146
      9 C           4.4832   -2.1262   19.8235 C.ar    1  UNL1        0.0040
     10 C           4.7735   -2.7079   21.1753 C.ar    1  UNL1       -0.0019
     11 C           4.3895   -4.1257   21.4798 C.ar    1  UNL1       -0.0002
     12 C           3.7153   -4.9616   20.4327 C.ar    1  UNL1       -0.0000
     13 C           3.4250   -4.3798   19.0809 C.ar    1  UNL1       -0.0002
     14 C           3.8089   -2.9621   18.7763 C.ar    1  UNL1       -0.0019
     15 C           5.2510    0.7091   19.2144 C.ar    1  UNL1        0.0040
     16 C           5.7832    1.0673   17.8584 C.ar    1  UNL1       -0.0019
     17 C           6.1671    2.4849   17.5538 C.ar    1  UNL1       -0.0002
     18 C           6.0189    3.5445   18.6051 C.ar    1  UNL1       -0.0000
     19 C           5.4867    3.1864   19.9610 C.ar    1  UNL1       -0.0002
     20 C           5.1027    1.7687   20.2657 C.ar    1  UNL1       -0.0019
     21 N           6.2983   -1.1295   19.3633 N.ar    1  UNL1       -0.3008
     22 C           7.4270   -0.7744   20.2852 C.ar    1  UNL1        0.0987
     23 C           8.6784   -1.4050   19.7501 C.ar    1  UNL1        0.1193
     24 N           8.3231   -2.1499   18.4975 N.ar    1  UNL1       -0.2223
     25 C           6.8521   -1.9797   18.2585 C.ar    1  UNL1        0.1792
@<TRIPOS>BOND
     1     2     3    1
     2     3     4   ar
     3     4     5   ar
     4     5     6   ar
     5     6     7   ar
     6     7     8   ar
     7     8     1    1
     8     1     9    1
     9     9    10   ar
    10    10    11   ar
    11    11    12   ar
    12    12    13   ar
    13    13    14   ar
    14     1    15    1
    15    15    16   ar
    16    16    17   ar
    17    17    18   ar
    18    18    19   ar
    19    19    20   ar
    20     1    21    1
    21    21    22   ar
    22    22    23   ar
    23    23    24   ar
    24    24    25   ar
    25     8     3   ar
    26    14     9   ar
    27    20    15   ar
    28    25    21   ar
@<TRIPOS>MOLECULE
*****
 25 28 0 0 0
SMALL
GASTEIGER

@<TRIPOS>ATOM
      1 C         -14.2122   -5.3766   18.1981 C.3     1  UNL1        0.1275
      2 CL        -12.9785   -3.5616   20.0881 Cl      1  UNL1       -0.0825
      3 C         -13.2083   -3.2892   19.3750 C.ar    1  UNL1        0.0560
      4 C         -12.8570   -1.8311   19.3567 C.ar    1  UNL1        0.0112
      5 C         -13.1581   -1.0022   18.1434 C.ar    1  UNL1        0.0008
      6 C         -13.8106   -1.6314   16.9483 C.ar    1  UNL1       -0.0002
      7 C         -14.1619   -3.0895   16.9665 C.ar    1  UNL1       -0.0011
      8 C         -13.8608   -3.9184   18.1799 C.ar    1  UNL1        0.0146
      9 C         -15.6643   -5.0250   18.3313 C.ar    1  UNL1        0.0040
     10 C         -16.1957   -4.5147   19.6379 C.ar    1  UNL1       -0.0019
     11 C         -17.6479   -4.1631   19.7711 C.ar    1  UNL1       -0.0002
     12 C         -18.5686   -4.3219   18.5977 C.ar    1  UNL1       -0.0000
     13 C         -18.0373   -4.8323   17.2910 C.ar    1  UNL1       -0.0002
     14 C         -16.5852   -5.1838   17.1579 C.ar    1  UNL1       -0.0019
     15 C         -12.7601   -5.7282   18.0649 C.ar    1  UNL1        0.0040
     16 C         -12.0916   -6.5647   19.1154 C.ar    1  UNL1       -0.0019
     17 C         -10.6395   -6.9162   18.9822 C.ar    1  UNL1       -0.0002
     18 C          -9.8559   -6.4313   17.7986 C.ar    1  UNL1       -0.0000
     19 C         -10.5244   -5.5948   16.7482 C.ar    1  UNL1       -0.0002
     20 C         -11.9766   -5.2432   16.8814 C.ar    1  UNL1       -0.0019
     21 N         -14.5636   -6.8347   18.2164 N.ar    1  UNL1       -0.3008
     22 C         -14.3433   -7.8087   17.0971 C.ar    1  UNL1        0.0987
     23 C         -14.8405   -9.1509   17.5460 C.ar    1  UNL1        0.1193
     24 N         -15.3680   -9.0063   18.9428 N.ar    1  UNL1       -0.2223
     25 C         -15.1969   -7.5749   19.3570 C.ar    1  UNL1        0.1792
@<TRIPOS>BOND
     1     2     3    1
     2     3     4   ar
     3     4     5   ar
     4     5     6   ar
     5     6     7   ar
     6     7     8   ar
     7     8     1    1
     8     1     9    1
     9     9    10   ar
    10    10    11   ar
    11    11    12   ar
    12    12    13   ar
    13    13    14   ar
    14     1    15    1
    15    15    16   ar
    16    16    17   ar
    17    17    18   ar
    18    18    19   ar
    19    19    20   ar
    20     1    21    1
    21    21    22   ar
    22    22    23   ar
    23    23    24   ar
    24    24    25   ar
    25     8     3   ar
    26    14     9   ar
    27    20    15   ar
    28    25    21   ar
