@<TRIPOS>MOLECULE
*****
 23 24 0 0 0
SMALL
GASTEIGER

@<TRIPOS>ATOM
      1 C          -5.6806  -20.0319   22.0140 C.3     1  UNL1        0.1172
      2 C          -4.5597  -19.0442   21.8786 C.ar    1  UNL1        0.0080
      3 C          -4.2401  -18.1127   23.0099 C.ar    1  UNL1       -0.0018
      4 C          -3.1193  -17.1251   22.8744 C.ar    1  UNL1       -0.0003
      5 C          -2.3181  -17.0691   21.6076 C.ar    1  UNL1        0.0047
      6 C          -2.6376  -18.0007   20.4762 C.ar    1  UNL1        0.0817
      7 C          -3.7585  -18.9882   20.6117 C.ar    1  UNL1        0.0592
      8 CL         -4.0781  -19.9199   19.4803 Cl      1  UNL1       -0.0826
      9 C          -1.8364  -17.9447   19.2094 C.3     1  UNL1        0.4194
     10 F          -1.0352  -17.8887   17.9425 F       1  UNL1       -0.1658
     11 F          -0.8019  -18.8401   19.8241 F       1  UNL1       -0.1658
     12 F          -2.8710  -17.0492   18.5946 F       1  UNL1       -0.1658
     13 C          -7.8849  -19.0544   21.0467 C.2     1  UNL1        0.2408
     14 O          -7.2783  -19.0442   19.6748 O.2     1  UNL1       -0.2733
     15 N          -7.0860  -19.5483   22.2163 N.am    1  UNL1       -0.2991
     16 H          -7.4841  -19.5550   23.1167 H       1  UNL1        0.1498
     17 C          -8.7598  -16.1266   22.1921 C.3     1  UNL1        0.1153
     18 N          -9.6924  -17.2250   21.7754 N.am    1  UNL1       -0.2712
     19 C         -11.1910  -17.1705   21.8121 C.2     1  UNL1        0.2261
     20 O         -12.0200  -16.0080   22.2719 O.2     1  UNL1       -0.2749
     21 C         -11.7150  -18.4826   21.3083 C.3     1  UNL1        0.0875
     22 C         -10.5403  -19.3480   20.9603 C.3     1  UNL1        0.0388
     23 C          -9.2903  -18.5708   21.2489 C.3     1  UNL1        0.1523
@<TRIPOS>BOND
     1    17    18    1
     2    18    19   am
     3    19    20    2
     4    19    21    1
     5    21    22    1
     6    22    23    1
     7    23    13    1
     8    13    14    2
     9    13    15   am
    10    15     1    1
    11     1     2    1
    12     2     3   ar
    13     3     4   ar
    14     4     5   ar
    15     5     6   ar
    16     6     9    1
    17     9    10    1
    18     9    11    1
    19     9    12    1
    20     6     7   ar
    21     7     8    1
    22    23    18    1
    23     7     2   ar
    24    15    16    1
@<TRIPOS>MOLECULE
*****
 23 24 0 0 0
SMALL
GASTEIGER

@<TRIPOS>ATOM
      1 C          -8.5904  -16.3789   22.1656 C.3     1  UNL1        0.1172
      2 C          -9.9693  -16.9486   22.0100 C.ar    1  UNL1        0.0080
      3 C         -10.5650  -17.1082   20.6427 C.ar    1  UNL1       -0.0018
      4 C         -11.9439  -17.6778   20.4872 C.ar    1  UNL1       -0.0003
      5 C         -12.7271  -18.0878   21.6990 C.ar    1  UNL1        0.0047
      6 C         -12.1314  -17.9282   23.0663 C.ar    1  UNL1        0.0817
      7 C         -10.7525  -17.3586   23.2219 C.ar    1  UNL1        0.0592
      8 CL        -10.1568  -17.1990   24.5893 Cl      1  UNL1       -0.0826
      9 C         -12.9146  -18.3382   24.2782 C.3     1  UNL1        0.4194
     10 F         -13.6978  -18.7482   25.4900 F       1  UNL1       -0.1658
     11 F         -11.8595  -19.3487   24.6182 F       1  UNL1       -0.1658
     12 F         -13.9697  -17.3277   23.9381 F       1  UNL1       -0.1658
     13 C          -7.0747  -18.4865   22.0595 C.2     1  UNL1        0.2408
     14 O          -7.9191  -19.1466   23.1089 O.2     1  UNL1       -0.2733
     15 N          -7.4104  -17.1026   21.5879 N.am    1  UNL1       -0.2991
     16 H          -6.8562  -16.6693   20.8991 H       1  UNL1        0.1498
     17 C          -3.9843  -18.2356   23.0771 C.3     1  UNL1        0.1153
     18 N          -4.4742  -19.0948   21.9494 N.am    1  UNL1       -0.2712
     19 C          -3.6296  -19.9896   21.0916 C.2     1  UNL1        0.2261
     20 O          -2.1468  -20.1823   21.2107 O.2     1  UNL1       -0.2749
     21 C          -4.5282  -20.6579   20.0936 C.3     1  UNL1        0.0875
     22 C          -5.9281  -20.1762   20.3347 C.3     1  UNL1        0.0388
     23 C          -5.8948  -19.2101   21.4817 C.3     1  UNL1        0.1523
@<TRIPOS>BOND
     1    17    18    1
     2    18    19   am
     3    19    20    2
     4    19    21    1
     5    21    22    1
     6    22    23    1
     7    23    13    1
     8    13    14    2
     9    13    15   am
    10    15     1    1
    11     1     2    1
    12     2     3   ar
    13     3     4   ar
    14     4     5   ar
    15     5     6   ar
    16     6     9    1
    17     9    10    1
    18     9    11    1
    19     9    12    1
    20     6     7   ar
    21     7     8    1
    22    23    18    1
    23     7     2   ar
    24    15    16    1
@<TRIPOS>MOLECULE
*****
 23 24 0 0 0
SMALL
GASTEIGER

@<TRIPOS>ATOM
      1 C          -7.6728  -18.8647   20.6756 C.3     1  UNL1        0.1172
      2 C          -8.4820  -18.1309   21.7037 C.ar    1  UNL1        0.0080
      3 C          -7.8149  -17.1536   22.6256 C.ar    1  UNL1       -0.0018
      4 C          -8.6241  -16.4199   23.6536 C.ar    1  UNL1       -0.0003
      5 C         -10.1004  -16.6635   23.7597 C.ar    1  UNL1        0.0047
      6 C         -10.7675  -17.6409   22.8379 C.ar    1  UNL1        0.0817
      7 C          -9.9583  -18.3745   21.8099 C.ar    1  UNL1        0.0592
      8 CL        -10.6253  -19.3519   20.8880 Cl      1  UNL1       -0.0826
      9 C         -12.2437  -17.8845   22.9441 C.3     1  UNL1        0.4194
     10 F         -13.7200  -18.1281   23.0503 F       1  UNL1       -0.1658
     11 F         -12.4830  -16.9274   21.8141 F       1  UNL1       -0.1658
     12 F         -12.0045  -18.8415   24.0740 F       1  UNL1       -0.1658
     13 C          -5.1672  -19.3379   20.1774 C.2     1  UNL1        0.2408
     14 O          -5.3946  -20.8002   20.4226 O.2     1  UNL1       -0.2733
     15 N          -6.3063  -18.3702   20.3040 N.am    1  UNL1       -0.2991
     16 H          -6.1571  -17.4104   20.1430 H       1  UNL1        0.1498
     17 C          -2.4248  -19.8181   21.8798 C.3     1  UNL1        0.1153
     18 N          -2.5402  -19.0641   20.5882 N.am    1  UNL1       -0.2712
     19 C          -1.4153  -18.3985   19.8524 C.2     1  UNL1        0.2261
     20 O           0.0225  -18.3699   20.2789 O.2     1  UNL1       -0.2749
     21 C          -1.9806  -17.7664   18.6151 C.3     1  UNL1        0.0875
     22 C          -3.4549  -18.0413   18.5863 C.3     1  UNL1        0.0388
     23 C          -3.8008  -18.8434   19.8057 C.3     1  UNL1        0.1523
@<TRIPOS>BOND
     1    17    18    1
     2    18    19   am
     3    19    20    2
     4    19    21    1
     5    21    22    1
     6    22    23    1
     7    23    13    1
     8    13    14    2
     9    13    15   am
    10    15     1    1
    11     1     2    1
    12     2     3   ar
    13     3     4   ar
    14     4     5   ar
    15     5     6   ar
    16     6     9    1
    17     9    10    1
    18     9    11    1
    19     9    12    1
    20     6     7   ar
    21     7     8    1
    22    23    18    1
    23     7     2   ar
    24    15    16    1
@<TRIPOS>MOLECULE
*****
 23 24 0 0 0
SMALL
GASTEIGER

@<TRIPOS>ATOM
      1 C          -7.3504  -18.7367   22.2707 C.3     1  UNL1        0.1172
      2 C          -8.7328  -18.7028   21.6894 C.ar    1  UNL1        0.0080
      3 C          -8.9794  -19.2363   20.3093 C.ar    1  UNL1       -0.0018
      4 C         -10.3617  -19.2024   19.7281 C.ar    1  UNL1       -0.0003
      5 C         -11.4975  -18.6350   20.5269 C.ar    1  UNL1        0.0047
      6 C         -11.2509  -18.1015   21.9069 C.ar    1  UNL1        0.0817
      7 C          -9.8686  -18.1354   22.4882 C.ar    1  UNL1        0.0592
      8 CL         -9.6220  -17.6019   23.8683 Cl      1  UNL1       -0.0826
      9 C         -12.3867  -17.5341   22.7057 C.3     1  UNL1        0.4194
     10 F         -13.5225  -16.9667   23.5045 F       1  UNL1       -0.1658
     11 F         -12.4927  -18.8210   23.4691 F       1  UNL1       -0.1658
     12 F         -12.2807  -16.2473   21.9423 F       1  UNL1       -0.1658
     13 C          -4.8285  -18.9745   21.6930 C.2     1  UNL1        0.2408
     14 O          -4.6656  -19.9618   22.8104 O.2     1  UNL1       -0.2733
     15 N          -6.1710  -18.3619   21.4231 N.am    1  UNL1       -0.2991
     16 H          -6.2779  -17.7140   20.6897 H       1  UNL1        0.1498
     17 C          -2.4572  -16.8904   22.5195 C.3     1  UNL1        0.1153
     18 N          -2.5591  -17.6417   21.2253 N.am    1  UNL1       -0.2712
     19 C          -1.5889  -17.5671   20.0838 C.2     1  UNL1        0.2261
     20 O          -0.3465  -16.7279   20.0360 O.2     1  UNL1       -0.2749
     21 C          -2.0793  -18.4789   18.9983 C.3     1  UNL1        0.0875
     22 C          -3.3525  -19.1171   19.4690 C.3     1  UNL1        0.0388
     23 C          -3.6491  -18.5997   20.8454 C.3     1  UNL1        0.1523
@<TRIPOS>BOND
     1    17    18    1
     2    18    19   am
     3    19    20    2
     4    19    21    1
     5    21    22    1
     6    22    23    1
     7    23    13    1
     8    13    14    2
     9    13    15   am
    10    15     1    1
    11     1     2    1
    12     2     3   ar
    13     3     4   ar
    14     4     5   ar
    15     5     6   ar
    16     6     9    1
    17     9    10    1
    18     9    11    1
    19     9    12    1
    20     6     7   ar
    21     7     8    1
    22    23    18    1
    23     7     2   ar
    24    15    16    1
@<TRIPOS>MOLECULE
*****
 23 24 0 0 0
SMALL
GASTEIGER

@<TRIPOS>ATOM
      1 C          -7.7131  -17.8457   23.1559 C.3     1  UNL1        0.1172
      2 C          -9.0110  -18.2071   22.4962 C.ar    1  UNL1        0.0080
      3 C          -9.5439  -19.6050   22.6049 C.ar    1  UNL1       -0.0018
      4 C         -10.8416  -19.9662   21.9452 C.ar    1  UNL1       -0.0003
      5 C         -11.6065  -18.9296   21.1768 C.ar    1  UNL1        0.0047
      6 C         -11.0736  -17.5317   21.0681 C.ar    1  UNL1        0.0817
      7 C          -9.7758  -17.1705   21.7278 C.ar    1  UNL1        0.0592
      8 CL         -9.2428  -15.7725   21.6191 Cl      1  UNL1       -0.0826
      9 C         -11.8384  -16.4951   20.2996 C.3     1  UNL1        0.4194
     10 F         -12.6033  -15.4585   19.5312 F       1  UNL1       -0.1658
     11 F         -11.0954  -16.8716   19.0522 F       1  UNL1       -0.1658
     12 F         -12.5814  -16.1186   21.5471 F       1  UNL1       -0.1658
     13 C          -5.7417  -19.0476   21.9647 C.2     1  UNL1        0.2408
     14 O          -6.2923  -20.3755   22.3932 O.2     1  UNL1       -0.2733
     15 N          -6.4521  -17.7827   22.3461 N.am    1  UNL1       -0.2991
     16 H          -6.0908  -16.9112   22.0648 H       1  UNL1        0.1498
     17 C          -2.8408  -17.9807   23.0118 C.3     1  UNL1        0.1153
     18 N          -3.1473  -18.4942   21.6361 N.am    1  UNL1       -0.2712
     19 C          -2.1742  -18.6074   20.5003 C.2     1  UNL1        0.2261
     20 O          -0.7238  -18.2271   20.5406 O.2     1  UNL1       -0.2749
     21 C          -2.9062  -19.1679   19.3170 C.3     1  UNL1        0.0875
     22 C          -4.3317  -19.4009   19.7215 C.3     1  UNL1        0.0388
     23 C          -4.4807  -18.9846   21.1549 C.3     1  UNL1        0.1523
@<TRIPOS>BOND
     1    17    18    1
     2    18    19   am
     3    19    20    2
     4    19    21    1
     5    21    22    1
     6    22    23    1
     7    23    13    1
     8    13    14    2
     9    13    15   am
    10    15     1    1
    11     1     2    1
    12     2     3   ar
    13     3     4   ar
    14     4     5   ar
    15     5     6   ar
    16     6     9    1
    17     9    10    1
    18     9    11    1
    19     9    12    1
    20     6     7   ar
    21     7     8    1
    22    23    18    1
    23     7     2   ar
    24    15    16    1
@<TRIPOS>MOLECULE
*****
 23 24 0 0 0
SMALL
GASTEIGER

@<TRIPOS>ATOM
      1 C          -5.2400  -15.1287   24.2966 C.3     1  UNL1        0.1172
      2 C          -6.4290  -15.6443   25.0520 C.ar    1  UNL1        0.0080
      3 C          -6.4526  -15.5768   26.5503 C.ar    1  UNL1       -0.0018
      4 C          -7.6415  -16.0924   27.3056 C.ar    1  UNL1       -0.0003
      5 C          -8.8068  -16.6756   26.5626 C.ar    1  UNL1        0.0047
      6 C          -8.7832  -16.7431   25.0643 C.ar    1  UNL1        0.0817
      7 C          -7.5943  -16.2275   24.3090 C.ar    1  UNL1        0.0592
      8 CL         -7.5706  -16.2950   22.8107 Cl      1  UNL1       -0.0826
      9 C          -9.9485  -17.3263   24.3214 C.3     1  UNL1        0.4194
     10 F         -11.1138  -17.9095   23.5784 F       1  UNL1       -0.1658
     11 F          -9.4951  -18.7068   24.6938 F       1  UNL1       -0.1658
     12 F         -10.4020  -15.9458   23.9490 F       1  UNL1       -0.1658
     13 C          -3.9683  -17.2500   23.5011 C.2     1  UNL1        0.2408
     14 O          -3.8926  -17.7360   24.9182 O.2     1  UNL1       -0.2733
     15 N          -4.6420  -15.9463   23.1903 N.am    1  UNL1       -0.2991
     16 H          -4.6917  -15.6273   22.2603 H       1  UNL1        0.1498
     17 C          -1.6788  -16.2524   21.4005 C.3     1  UNL1        0.1153
     18 N          -2.3179  -17.6091   21.4293 N.am    1  UNL1       -0.2712
     19 C          -2.0169  -18.7454   20.4976 C.2     1  UNL1        0.2261
     20 O          -1.0239  -18.7246   19.3735 O.2     1  UNL1       -0.2749
     21 C          -2.8833  -19.9063   20.8873 C.3     1  UNL1        0.0875
     22 C          -3.7197  -19.4874   22.0599 C.3     1  UNL1        0.0388
     23 C          -3.3703  -18.0676   22.3948 C.3     1  UNL1        0.1523
@<TRIPOS>BOND
     1    17    18    1
     2    18    19   am
     3    19    20    2
     4    19    21    1
     5    21    22    1
     6    22    23    1
     7    23    13    1
     8    13    14    2
     9    13    15   am
    10    15     1    1
    11     1     2    1
    12     2     3   ar
    13     3     4   ar
    14     4     5   ar
    15     5     6   ar
    16     6     9    1
    17     9    10    1
    18     9    11    1
    19     9    12    1
    20     6     7   ar
    21     7     8    1
    22    23    18    1
    23     7     2   ar
    24    15    16    1
@<TRIPOS>MOLECULE
*****
 23 24 0 0 0
SMALL
GASTEIGER

@<TRIPOS>ATOM
      1 C          -6.7035  -20.1160   22.2443 C.3     1  UNL1        0.1172
      2 C          -5.4246  -19.8818   21.4963 C.ar    1  UNL1        0.0080
      3 C          -5.0538  -20.7721   20.3475 C.ar    1  UNL1       -0.0018
      4 C          -3.7749  -20.5379   19.5995 C.ar    1  UNL1       -0.0003
      5 C          -2.8668  -19.4133   20.0003 C.ar    1  UNL1        0.0047
      6 C          -3.2375  -18.5230   21.1491 C.ar    1  UNL1        0.0817
      7 C          -4.5164  -18.7572   21.8971 C.ar    1  UNL1        0.0592
      8 CL         -4.8872  -17.8669   23.0460 Cl      1  UNL1       -0.0826
      9 C          -2.3294  -17.3984   21.5500 C.3     1  UNL1        0.4194
     10 F          -1.4212  -16.2739   21.9508 F       1  UNL1       -0.1658
     11 F          -2.6412  -16.6889   20.2657 F       1  UNL1       -0.1658
     12 F          -2.0176  -18.1080   22.8342 F       1  UNL1       -0.1658
     13 C          -9.1835  -19.4970   22.7101 C.2     1  UNL1        0.2408
     14 O          -9.2597  -20.5807   23.7444 O.2     1  UNL1       -0.2733
     15 N          -7.9053  -19.2646   21.9600 N.am    1  UNL1       -0.2991
     16 H          -7.8553  -18.5534   21.2812 H       1  UNL1        0.1498
     17 C          -9.7550  -16.5203   23.9193 C.3     1  UNL1        0.1153
     18 N         -10.6480  -17.2775   22.9816 N.am    1  UNL1       -0.2712
     19 C         -11.9605  -16.7993   22.4351 C.2     1  UNL1        0.2261
     20 O         -12.6104  -15.4800   22.7303 O.2     1  UNL1       -0.2749
     21 C         -12.5089  -17.8720   21.5415 C.3     1  UNL1        0.0875
     22 C         -11.5354  -19.0131   21.5357 C.3     1  UNL1        0.0388
     23 C         -10.3853  -18.6457   22.4258 C.3     1  UNL1        0.1523
@<TRIPOS>BOND
     1    17    18    1
     2    18    19   am
     3    19    20    2
     4    19    21    1
     5    21    22    1
     6    22    23    1
     7    23    13    1
     8    13    14    2
     9    13    15   am
    10    15     1    1
    11     1     2    1
    12     2     3   ar
    13     3     4   ar
    14     4     5   ar
    15     5     6   ar
    16     6     9    1
    17     9    10    1
    18     9    11    1
    19     9    12    1
    20     6     7   ar
    21     7     8    1
    22    23    18    1
    23     7     2   ar
    24    15    16    1
@<TRIPOS>MOLECULE
*****
 23 24 0 0 0
SMALL
GASTEIGER

@<TRIPOS>ATOM
      1 C          -8.1400  -20.0144   22.6245 C.3     1  UNL1        0.1172
      2 C          -9.1263  -19.3130   21.7382 C.ar    1  UNL1        0.0080
      3 C          -9.1419  -19.5929   20.2647 C.ar    1  UNL1       -0.0018
      4 C         -10.1282  -18.8915   19.3786 C.ar    1  UNL1       -0.0003
      5 C         -11.0987  -17.9102   19.9659 C.ar    1  UNL1        0.0047
      6 C         -11.0830  -17.6302   21.4395 C.ar    1  UNL1        0.0817
      7 C         -10.0968  -18.3316   22.3256 C.ar    1  UNL1        0.0592
      8 CL        -10.0811  -18.0517   23.7992 Cl      1  UNL1       -0.0826
      9 C         -12.0536  -16.6489   22.0268 C.3     1  UNL1        0.4194
     10 F         -13.0242  -15.6676   22.6142 F       1  UNL1       -0.1658
     11 F         -11.1029  -15.5284   21.7257 F       1  UNL1       -0.1658
     12 F         -13.0043  -17.7694   22.3280 F       1  UNL1       -0.1658
     13 C          -5.9992  -18.5529   22.4480 C.2     1  UNL1        0.2408
     14 O          -6.7993  -17.3371   22.8109 O.2     1  UNL1       -0.2733
     15 N          -6.6696  -19.8916   22.3548 N.am    1  UNL1       -0.2991
     16 H          -6.1445  -20.6895   22.1166 H       1  UNL1        0.1498
     17 C          -4.3733  -19.9699   19.9989 C.3     1  UNL1        0.1153
     18 N          -3.7814  -19.0814   21.0525 N.am    1  UNL1       -0.2712
     19 C          -2.3383  -18.6882   21.1654 C.2     1  UNL1        0.2261
     20 O          -1.2337  -19.1145   20.2445 O.2     1  UNL1       -0.2749
     21 C          -2.1938  -17.7938   22.3610 C.3     1  UNL1        0.0875
     22 C          -3.5476  -17.6343   22.9869 C.3     1  UNL1        0.0388
     23 C          -4.5288  -18.4301   22.1783 C.3     1  UNL1        0.1523
@<TRIPOS>BOND
     1    17    18    1
     2    18    19   am
     3    19    20    2
     4    19    21    1
     5    21    22    1
     6    22    23    1
     7    23    13    1
     8    13    14    2
     9    13    15   am
    10    15     1    1
    11     1     2    1
    12     2     3   ar
    13     3     4   ar
    14     4     5   ar
    15     5     6   ar
    16     6     9    1
    17     9    10    1
    18     9    11    1
    19     9    12    1
    20     6     7   ar
    21     7     8    1
    22    23    18    1
    23     7     2   ar
    24    15    16    1
@<TRIPOS>MOLECULE
*****
 23 24 0 0 0
SMALL
GASTEIGER

@<TRIPOS>ATOM
      1 C         -10.9886  -18.9902   24.6772 C.3     1  UNL1        0.1172
      2 C         -11.1736  -18.7412   23.2096 C.ar    1  UNL1        0.0080
      3 C         -12.4016  -18.0340   22.7178 C.ar    1  UNL1       -0.0018
      4 C         -12.5865  -17.7850   21.2502 C.ar    1  UNL1       -0.0003
      5 C         -11.5435  -18.2432   20.2745 C.ar    1  UNL1        0.0047
      6 C         -10.3155  -18.9504   20.7662 C.ar    1  UNL1        0.0817
      7 C         -10.1306  -19.1994   22.2338 C.ar    1  UNL1        0.0592
      8 CL         -8.9026  -19.9066   22.7256 Cl      1  UNL1       -0.0826
      9 C          -9.2725  -19.4086   19.7905 C.3     1  UNL1        0.4194
     10 F          -8.2295  -19.8668   18.8147 F       1  UNL1       -0.1658
     11 F          -8.2743  -18.4854   20.4240 F       1  UNL1       -0.1658
     12 F         -10.2707  -20.3317   19.1569 F       1  UNL1       -0.1658
     13 C          -9.4078  -16.9588   25.0297 C.2     1  UNL1        0.2408
     14 O         -10.0961  -16.2295   23.9142 O.2     1  UNL1       -0.2733
     15 N          -9.8541  -18.3392   25.4112 N.am    1  UNL1       -0.2991
     16 H          -9.4023  -18.8178   26.1434 H       1  UNL1        0.1498
     17 C          -6.7694  -15.6033   23.6692 C.3     1  UNL1        0.1153
     18 N          -7.0605  -15.6847   25.1384 N.am    1  UNL1       -0.2712
     19 C          -6.1899  -15.1573   26.2402 C.2     1  UNL1        0.2261
     20 O          -4.8754  -14.4559   26.0662 O.2     1  UNL1       -0.2749
     21 C          -6.8646  -15.4544   27.5465 C.3     1  UNL1        0.0875
     22 C          -8.1522  -16.1654   27.2521 C.3     1  UNL1        0.0388
     23 C          -8.2732  -16.3077   25.7638 C.3     1  UNL1        0.1523
@<TRIPOS>BOND
     1    17    18    1
     2    18    19   am
     3    19    20    2
     4    19    21    1
     5    21    22    1
     6    22    23    1
     7    23    13    1
     8    13    14    2
     9    13    15   am
    10    15     1    1
    11     1     2    1
    12     2     3   ar
    13     3     4   ar
    14     4     5   ar
    15     5     6   ar
    16     6     9    1
    17     9    10    1
    18     9    11    1
    19     9    12    1
    20     6     7   ar
    21     7     8    1
    22    23    18    1
    23     7     2   ar
    24    15    16    1
