@<TRIPOS>MOLECULE
*****
 29 34 0 0 0
SMALL
GASTEIGER

@<TRIPOS>ATOM
      1 N          -4.9870  -19.1534   20.7132 N.ar    1  UNL1       -0.2937
      2 C          -5.7693  -20.3698   20.3152 C.ar    1  UNL1        0.1798
      3 N          -7.0535  -20.3690   21.0903 N.ar    1  UNL1       -0.2195
      4 C          -7.0649  -19.1521   21.9673 C.ar    1  UNL1        0.1483
      5 C          -8.0733  -18.6310   22.9480 C.ar    1  UNL1        0.1518
      6 N          -7.8045  -17.3587   23.6956 N.ar    1  UNL1       -0.2003
      7 C          -6.5272  -16.6074   23.4625 C.ar    1  UNL1        0.2264
      8 CL         -6.2584  -15.3351   24.2101 Cl      1  UNL1       -0.0409
      9 N          -5.5189  -17.1285   22.4818 N.ar    1  UNL1       -0.1976
     10 C          -5.7877  -18.4008   21.7342 C.ar    1  UNL1        0.1680
     11 O          -2.1095  -20.2944   21.7463 O.3     1  UNL1       -0.3801
     12 C          -2.3177  -19.2833   20.6580 C.3     1  UNL1        0.1577
     13 C          -1.2398  -18.6191   19.8536 C.3     1  UNL1        0.1390
     14 O           0.2354  -18.8494   19.9961 O.3     1  UNL1       -0.3819
     15 C          -1.8965  -17.6841   18.8815 C.3     1  UNL1        0.0314
     16 C          -2.8186  -16.8517   18.0410 C.3     1  UNL1        0.0046
     17 C          -3.3801  -17.7705   19.0853 C.3     1  UNL1        0.0258
     18 C          -3.6404  -18.7588   20.1832 C.3     1  UNL1        0.1175
     19 H          -1.1600  -20.4597   21.8566 H       1  UNL1        0.2105
     20 H           0.3947  -19.5016   20.6962 H       1  UNL1        0.2104
     21 N          -9.3505  -19.3823   23.1810 N.pl3   1  UNL1       -0.3184
     22 H          -9.3644  -20.1504   23.7967 H       1  UNL1        0.1482
     23 C         -10.6065  -18.9633   22.4760 C.3     1  UNL1        0.0703
     24 C         -11.8232  -18.5899   23.2699 C.3     1  UNL1        0.0179
     25 C         -13.1482  -17.8935   23.3660 C.3     1  UNL1        0.0017
     26 C         -12.6056  -18.6396   24.5487 C.3     1  UNL1        0.0017
     27 C         -10.6457  -18.9176   20.9773 C.3     1  UNL1        0.0179
     28 C         -10.3140  -19.5323   19.6498 C.3     1  UNL1        0.0017
     29 C         -11.0452  -18.2240   19.7088 C.3     1  UNL1        0.0017
@<TRIPOS>BOND
     1    12    11    1
     2    12    13    1
     3    13    14    1
     4    13    15    1
     5    15    16    1
     6    17    16    1
     7    17    18    1
     8    18     1    1
     9     1     2   ar
    10     2     3   ar
    11     3     4   ar
    12     4     5   ar
    13     5    21    1
    14    21    23    1
    15    23    24    1
    16    24    25    1
    17    25    26    1
    18    23    27    1
    19    27    28    1
    20    28    29    1
    21     5     6   ar
    22     6     7   ar
    23     7     8    1
    24     7     9   ar
    25     9    10   ar
    26    18    12    1
    27    10     1   ar
    28    17    15    1
    29    10     4   ar
    30    26    24    1
    31    29    27    1
    32    11    19    1
    33    14    20    1
    34    21    22    1
@<TRIPOS>MOLECULE
*****
 29 34 0 0 0
SMALL
GASTEIGER

@<TRIPOS>ATOM
      1 N          -4.9620  -19.1771   20.6553 N.ar    1  UNL1       -0.2937
      2 C          -5.7455  -20.3872   20.2407 C.ar    1  UNL1        0.1798
      3 N          -7.0299  -20.3955   21.0155 N.ar    1  UNL1       -0.2195
      4 C          -7.0402  -19.1906   21.9090 C.ar    1  UNL1        0.1483
      5 C          -8.0481  -18.6819   22.8964 C.ar    1  UNL1        0.1518
      6 N          -7.7781  -17.4201   23.6613 N.ar    1  UNL1       -0.2003
      7 C          -6.5000  -16.6671   23.4387 C.ar    1  UNL1        0.2264
      8 CL         -6.2300  -15.4054   24.2036 Cl      1  UNL1       -0.0409
      9 N          -5.4920  -17.1759   22.4512 N.ar    1  UNL1       -0.1976
     10 C          -5.7621  -18.4376   21.6863 C.ar    1  UNL1        0.1680
     11 O          -2.0829  -20.2881   21.7167 O.3     1  UNL1       -0.3801
     12 C          -2.2915  -19.2875   20.6189 C.3     1  UNL1        0.1577
     13 C          -1.2132  -18.6218   19.8161 C.3     1  UNL1        0.1390
     14 O           0.2627  -18.8399   19.9703 O.3     1  UNL1       -0.3819
     15 C          -1.8703  -17.6998   18.8321 C.3     1  UNL1        0.0314
     16 C          -2.7930  -16.8812   17.9787 C.3     1  UNL1        0.0046
     17 C          -3.3545  -17.7956   19.0267 C.3     1  UNL1        0.0258
     18 C          -3.6148  -18.7768   20.1310 C.3     1  UNL1        0.1175
     19 H          -1.1331  -20.4454   21.8347 H       1  UNL1        0.2105
     20 H           0.4222  -19.4852   20.6767 H       1  UNL1        0.2104
     21 N          -9.3262  -19.4349   23.1190 N.pl3   1  UNL1       -0.3184
     22 H          -9.3370  -20.2226   23.7095 H       1  UNL1        0.1482
     23 C         -10.5878  -18.9878   22.4419 C.3     1  UNL1        0.0703
     24 C         -10.6478  -18.9074   20.9453 C.3     1  UNL1        0.0179
     25 C         -11.1052  -18.2088   19.6992 C.3     1  UNL1        0.0017
     26 C         -10.2942  -19.4667   19.5991 C.3     1  UNL1        0.0017
     27 C         -11.7894  -18.6211   23.2614 C.3     1  UNL1        0.0179
     28 C         -12.5179  -18.6248   24.5727 C.3     1  UNL1        0.0017
     29 C         -13.1422  -17.9822   23.3697 C.3     1  UNL1        0.0017
@<TRIPOS>BOND
     1    12    11    1
     2    12    13    1
     3    13    14    1
     4    13    15    1
     5    15    16    1
     6    17    16    1
     7    17    18    1
     8    18     1    1
     9     1     2   ar
    10     2     3   ar
    11     3     4   ar
    12     4     5   ar
    13     5    21    1
    14    21    23    1
    15    23    24    1
    16    24    25    1
    17    25    26    1
    18    23    27    1
    19    27    28    1
    20    28    29    1
    21     5     6   ar
    22     6     7   ar
    23     7     8    1
    24     7     9   ar
    25     9    10   ar
    26    18    12    1
    27    10     1   ar
    28    17    15    1
    29    10     4   ar
    30    26    24    1
    31    29    27    1
    32    11    19    1
    33    14    20    1
    34    21    22    1
@<TRIPOS>MOLECULE
*****
 29 34 0 0 0
SMALL
GASTEIGER

@<TRIPOS>ATOM
      1 N          -9.3465  -18.2838   22.5335 N.ar    1  UNL1       -0.2937
      2 C          -8.2902  -17.9754   23.5527 C.ar    1  UNL1        0.1798
      3 N          -6.9879  -18.5259   23.0517 N.ar    1  UNL1       -0.2195
      4 C          -7.2394  -19.1745   21.7227 C.ar    1  UNL1        0.1483
      5 C          -6.3294  -19.8820   20.7629 C.ar    1  UNL1        0.1518
      6 N          -6.8772  -20.4400   19.4828 N.ar    1  UNL1       -0.2003
      7 C          -8.3349  -20.2904   19.1625 C.ar    1  UNL1        0.2264
      8 CL         -8.8827  -20.8483   17.8824 Cl      1  UNL1       -0.0409
      9 N          -9.2449  -19.5828   20.1224 N.ar    1  UNL1       -0.1976
     10 C          -8.6972  -19.0249   21.4025 C.ar    1  UNL1        0.1680
     11 O         -11.3815  -19.1120   24.9465 O.3     1  UNL1       -0.3801
     12 C         -11.7329  -18.2964   23.7376 C.3     1  UNL1        0.1577
     13 C         -13.0815  -17.7183   23.4256 C.3     1  UNL1        0.1390
     14 O         -14.3153  -17.8543   24.2676 O.3     1  UNL1       -0.3819
     15 C         -12.9795  -16.9804   22.1236 C.3     1  UNL1        0.0314
     16 C         -12.5781  -16.3351   20.8304 C.3     1  UNL1        0.0046
     17 C         -11.5680  -17.1024   21.6310 C.3     1  UNL1        0.0258
     18 C         -10.7976  -17.9158   22.6285 C.3     1  UNL1        0.1175
     19 H         -12.1664  -19.2134   25.5074 H       1  UNL1        0.2105
     20 H         -14.1116  -18.3795   25.0573 H       1  UNL1        0.2104
     21 N          -4.8717  -20.0317   21.0832 N.pl3   1  UNL1       -0.3184
     22 H          -4.4964  -20.9237   21.2637 H       1  UNL1        0.1482
     23 C          -3.9857  -18.8220   21.1285 C.3     1  UNL1        0.0703
     24 C          -3.8294  -18.0544   22.4077 C.3     1  UNL1        0.0179
     25 C          -3.5110  -18.0229   23.8731 C.3     1  UNL1        0.0017
     26 C          -3.8771  -16.7563   23.1577 C.3     1  UNL1        0.0017
     27 C          -3.2562  -18.3801   19.8947 C.3     1  UNL1        0.0179
     28 C          -3.1844  -17.5256   18.6639 C.3     1  UNL1        0.0017
     29 C          -2.0644  -18.4691   18.9883 C.3     1  UNL1        0.0017
@<TRIPOS>BOND
     1    12    11    1
     2    12    13    1
     3    13    14    1
     4    13    15    1
     5    15    16    1
     6    17    16    1
     7    17    18    1
     8    18     1    1
     9     1     2   ar
    10     2     3   ar
    11     3     4   ar
    12     4     5   ar
    13     5    21    1
    14    21    23    1
    15    23    24    1
    16    24    25    1
    17    25    26    1
    18    23    27    1
    19    27    28    1
    20    28    29    1
    21     5     6   ar
    22     6     7   ar
    23     7     8    1
    24     7     9   ar
    25     9    10   ar
    26    18    12    1
    27    10     1   ar
    28    17    15    1
    29    10     4   ar
    30    26    24    1
    31    29    27    1
    32    11    19    1
    33    14    20    1
    34    21    22    1
@<TRIPOS>MOLECULE
*****
 29 34 0 0 0
SMALL
GASTEIGER

@<TRIPOS>ATOM
      1 N          -9.3883  -18.3549   22.4989 N.ar    1  UNL1       -0.2937
      2 C          -8.3280  -18.0717   23.5214 C.ar    1  UNL1        0.1798
      3 N          -7.0303  -18.6213   23.0077 N.ar    1  UNL1       -0.2195
      4 C          -7.2886  -19.2441   21.6677 C.ar    1  UNL1        0.1483
      5 C          -6.3851  -19.9398   20.6933 C.ar    1  UNL1        0.1518
      6 N          -6.9389  -20.4709   19.4044 N.ar    1  UNL1       -0.2003
      7 C          -8.3963  -20.3062   19.0900 C.ar    1  UNL1        0.2264
      8 CL         -8.9502  -20.8373   17.8011 Cl      1  UNL1       -0.0409
      9 N          -9.2999  -19.6105   20.0645 N.ar    1  UNL1       -0.1976
     10 C          -8.7460  -19.0794   21.3533 C.ar    1  UNL1        0.1680
     11 O         -11.3996  -19.1336   24.9481 O.3     1  UNL1       -0.3801
     12 C         -11.7612  -18.3373   23.7294 C.3     1  UNL1        0.1577
     13 C         -13.1110  -17.7591   23.4225 C.3     1  UNL1        0.1390
     14 O         -14.3358  -17.8758   24.2804 O.3     1  UNL1       -0.3819
     15 C         -13.0206  -17.0439   22.1071 C.3     1  UNL1        0.0314
     16 C         -12.6310  -16.4223   20.7987 C.3     1  UNL1        0.0046
     17 C         -11.6151  -17.1800   21.6011 C.3     1  UNL1        0.0258
     18 C         -10.8368  -17.9794   22.6037 C.3     1  UNL1        0.1175
     19 H         -12.1785  -19.2223   25.5193 H       1  UNL1        0.2105
     20 H         -14.1253  -18.3883   25.0766 H       1  UNL1        0.2104
     21 N          -4.9277  -20.1045   21.0077 N.pl3   1  UNL1       -0.3184
     22 H          -4.5565  -21.0026   21.1655 H       1  UNL1        0.1482
     23 C          -4.0357  -18.9007   21.0818 C.3     1  UNL1        0.0703
     24 C          -3.2967  -18.4386   19.8610 C.3     1  UNL1        0.0179
     25 C          -3.2457  -17.6183   18.6063 C.3     1  UNL1        0.0017
     26 C          -2.0677  -18.4586   19.0013 C.3     1  UNL1        0.0017
     27 C          -3.8828  -18.1591   22.3766 C.3     1  UNL1        0.0179
     28 C          -3.5101  -18.1453   23.8295 C.3     1  UNL1        0.0017
     29 C          -3.9906  -16.8885   23.1665 C.3     1  UNL1        0.0017
@<TRIPOS>BOND
     1    12    11    1
     2    12    13    1
     3    13    14    1
     4    13    15    1
     5    15    16    1
     6    17    16    1
     7    17    18    1
     8    18     1    1
     9     1     2   ar
    10     2     3   ar
    11     3     4   ar
    12     4     5   ar
    13     5    21    1
    14    21    23    1
    15    23    24    1
    16    24    25    1
    17    25    26    1
    18    23    27    1
    19    27    28    1
    20    28    29    1
    21     5     6   ar
    22     6     7   ar
    23     7     8    1
    24     7     9   ar
    25     9    10   ar
    26    18    12    1
    27    10     1   ar
    28    17    15    1
    29    10     4   ar
    30    26    24    1
    31    29    27    1
    32    11    19    1
    33    14    20    1
    34    21    22    1
@<TRIPOS>MOLECULE
*****
 29 34 0 0 0
SMALL
GASTEIGER

@<TRIPOS>ATOM
      1 N           6.5695   -3.2016   26.5093 N.ar    1  UNL1       -0.2937
      2 C           5.9066   -1.9255   26.0826 C.ar    1  UNL1        0.1798
      3 N           5.8544   -1.9091   24.5836 N.ar    1  UNL1       -0.2195
      4 C           6.4851   -3.1750   24.0839 C.ar    1  UNL1        0.1483
      5 C           6.7140   -3.7036   22.6989 C.ar    1  UNL1        0.1518
      6 N           7.3849   -5.0310   22.5041 N.ar    1  UNL1       -0.2003
      7 C           7.8268   -5.8298   23.6942 C.ar    1  UNL1        0.2264
      8 CL          8.4977   -7.1572   23.4995 Cl      1  UNL1       -0.0409
      9 N           7.5979   -5.3012   25.0793 N.ar    1  UNL1       -0.1976
     10 C           6.9270   -3.9739   25.2741 C.ar    1  UNL1        0.1680
     11 O           5.4816   -5.9387   27.9145 O.3     1  UNL1       -0.3801
     12 C           6.3292   -4.8884   28.5690 C.3     1  UNL1        0.1577
     13 C           6.8256   -4.9117   29.9843 C.3     1  UNL1        0.1390
     14 O           6.5616   -5.9894   30.9936 O.3     1  UNL1       -0.3819
     15 C           7.6324   -3.6680   30.2131 C.3     1  UNL1        0.0314
     16 C           8.3676   -2.3624   30.1429 C.3     1  UNL1        0.0046
     17 C           7.6347   -2.8760   28.9392 C.3     1  UNL1        0.0258
     18 C           6.8293   -3.6303   27.9231 C.3     1  UNL1        0.1175
     19 H           5.2976   -6.6480   28.5501 H       1  UNL1        0.2105
     20 H           6.0136   -6.6816   30.5916 H       1  UNL1        0.2104
     21 N           6.2721   -2.9047   21.5087 N.pl3   1  UNL1       -0.3184
     22 H           6.9140   -2.3241   21.0396 H       1  UNL1        0.1482
     23 C           4.8519   -2.9905   21.0332 C.3     1  UNL1        0.0703
     24 C           3.8475   -1.9714   21.4833 C.3     1  UNL1        0.0179
     25 C           3.2112   -1.1713   22.5810 C.3     1  UNL1        0.0017
     26 C           2.7442   -1.0063   21.1652 C.3     1  UNL1        0.0017
     27 C           4.4363   -4.0953   20.1077 C.3     1  UNL1        0.0179
     28 C           4.6504   -4.8878   18.8523 C.3     1  UNL1        0.0017
     29 C           3.5024   -5.2164   19.7601 C.3     1  UNL1        0.0017
@<TRIPOS>BOND
     1    12    11    1
     2    12    13    1
     3    13    14    1
     4    13    15    1
     5    15    16    1
     6    17    16    1
     7    17    18    1
     8    18     1    1
     9     1     2   ar
    10     2     3   ar
    11     3     4   ar
    12     4     5   ar
    13     5    21    1
    14    21    23    1
    15    23    24    1
    16    24    25    1
    17    25    26    1
    18    23    27    1
    19    27    28    1
    20    28    29    1
    21     5     6   ar
    22     6     7   ar
    23     7     8    1
    24     7     9   ar
    25     9    10   ar
    26    18    12    1
    27    10     1   ar
    28    17    15    1
    29    10     4   ar
    30    26    24    1
    31    29    27    1
    32    11    19    1
    33    14    20    1
    34    21    22    1
@<TRIPOS>MOLECULE
*****
 29 34 0 0 0
SMALL
GASTEIGER

@<TRIPOS>ATOM
      1 N           6.2677   -3.0634   26.4174 N.ar    1  UNL1       -0.2937
      2 C           5.5507   -1.8210   25.9788 C.ar    1  UNL1        0.1798
      3 N           5.5386   -1.7979   24.4790 N.ar    1  UNL1       -0.2195
      4 C           6.2481   -3.0260   23.9907 C.ar    1  UNL1        0.1483
      5 C           6.5421   -3.5331   22.6100 C.ar    1  UNL1        0.1518
      6 N           7.2867   -4.8224   22.4273 N.ar    1  UNL1       -0.2003
      7 C           7.7373   -5.6046   23.6253 C.ar    1  UNL1        0.2264
      8 CL          8.4818   -6.8938   23.4426 Cl      1  UNL1       -0.0409
      9 N           7.4433   -5.0974   25.0061 N.ar    1  UNL1       -0.1976
     10 C           6.6987   -3.8081   25.1887 C.ar    1  UNL1        0.1680
     11 O           5.7515   -6.0426   27.6453 O.3     1  UNL1       -0.3801
     12 C           6.2737   -4.8561   28.4001 C.3     1  UNL1        0.1577
     13 C           6.6503   -4.8308   29.8519 C.3     1  UNL1        0.1390
     14 O           6.5708   -5.9873   30.8037 O.3     1  UNL1       -0.3819
     15 C           7.1203   -3.4457   30.1846 C.3     1  UNL1        0.0314
     16 C           7.5295   -2.0029   30.2153 C.3     1  UNL1        0.0046
     17 C           7.0342   -2.6151   28.9386 C.3     1  UNL1        0.0258
     18 C           6.5110   -3.4868   27.8357 C.3     1  UNL1        0.1175
     19 H           5.6914   -6.8047   28.2423 H       1  UNL1        0.2105
     20 H           6.2347   -6.7681   30.3364 H       1  UNL1        0.2104
     21 N           6.0915   -2.7510   21.4120 N.pl3   1  UNL1       -0.3184
     22 H           6.7132   -2.1310   20.9666 H       1  UNL1        0.1482
     23 C           4.6936   -2.9134   20.8927 C.3     1  UNL1        0.0703
     24 C           4.3396   -4.1040   20.0517 C.3     1  UNL1        0.0179
     25 C           4.5846   -4.9615   18.8457 C.3     1  UNL1        0.0017
     26 C           3.4815   -5.3084   19.8011 C.3     1  UNL1        0.0017
     27 C           3.6498   -1.8853   21.2144 C.3     1  UNL1        0.0179
     28 C           3.0094   -0.9467   22.1935 C.3     1  UNL1        0.0017
     29 C           2.4824   -1.0433   20.7925 C.3     1  UNL1        0.0017
@<TRIPOS>BOND
     1    12    11    1
     2    12    13    1
     3    13    14    1
     4    13    15    1
     5    15    16    1
     6    17    16    1
     7    17    18    1
     8    18     1    1
     9     1     2   ar
    10     2     3   ar
    11     3     4   ar
    12     4     5   ar
    13     5    21    1
    14    21    23    1
    15    23    24    1
    16    24    25    1
    17    25    26    1
    18    23    27    1
    19    27    28    1
    20    28    29    1
    21     5     6   ar
    22     6     7   ar
    23     7     8    1
    24     7     9   ar
    25     9    10   ar
    26    18    12    1
    27    10     1   ar
    28    17    15    1
    29    10     4   ar
    30    26    24    1
    31    29    27    1
    32    11    19    1
    33    14    20    1
    34    21    22    1
@<TRIPOS>MOLECULE
*****
 29 34 0 0 0
SMALL
GASTEIGER

@<TRIPOS>ATOM
      1 N           4.3559   -1.7887   21.2041 N.ar    1  UNL1       -0.2937
      2 C           3.5587   -1.5112   22.4440 C.ar    1  UNL1        0.1798
      3 N           4.1750   -2.2820   23.5736 N.ar    1  UNL1       -0.2195
      4 C           5.3532   -3.0359   23.0318 C.ar    1  UNL1        0.1483
      5 C           6.3387   -3.9606   23.6827 C.ar    1  UNL1        0.1518
      6 N           7.4361   -4.5804   22.8692 N.ar    1  UNL1       -0.2003
      7 C           7.5479   -4.2755   21.4048 C.ar    1  UNL1        0.2264
      8 CL          8.6452   -4.8953   20.5913 Cl      1  UNL1       -0.0409
      9 N           6.5623   -3.3508   20.7539 N.ar    1  UNL1       -0.1976
     10 C           5.4651   -2.7310   21.5674 C.ar    1  UNL1        0.1680
     11 O           4.3651   -3.4582   18.4002 O.3     1  UNL1       -0.3801
     12 C           4.0949   -1.9906   18.5516 C.3     1  UNL1        0.1577
     13 C           3.7815   -1.0326   17.4406 C.3     1  UNL1        0.1390
     14 O           3.6833   -1.3741   15.9834 O.3     1  UNL1       -0.3819
     15 C           3.5836    0.3269   18.0429 C.3     1  UNL1        0.0314
     16 C           3.4452    1.5390   18.9156 C.3     1  UNL1        0.0046
     17 C           3.7747    0.2091   19.5260 C.3     1  UNL1        0.0258
     18 C           4.0907   -1.2231   19.8404 C.3     1  UNL1        0.1175
     19 H           4.3068   -3.7028   17.4633 H       1  UNL1        0.2105
     20 H           3.8547   -2.3209   15.8609 H       1  UNL1        0.2104
     21 N           6.2269   -4.2655   25.1472 N.pl3   1  UNL1       -0.3184
     22 H           5.4149   -4.0111   25.6423 H       1  UNL1        0.1482
     23 C           7.3523   -4.9580   25.8571 C.3     1  UNL1        0.0703
     24 C           7.5168   -6.4437   25.7318 C.3     1  UNL1        0.0179
     25 C           7.2635   -7.8272   26.2529 C.3     1  UNL1        0.0017
     26 C           8.0551   -7.6333   24.9936 C.3     1  UNL1        0.0017
     27 C           8.3131   -4.1648   26.6924 C.3     1  UNL1        0.0179
     28 C           9.0484   -3.9584   27.9834 C.3     1  UNL1        0.0017
     29 C           9.2420   -2.9974   26.8481 C.3     1  UNL1        0.0017
@<TRIPOS>BOND
     1    12    11    1
     2    12    13    1
     3    13    14    1
     4    13    15    1
     5    15    16    1
     6    17    16    1
     7    17    18    1
     8    18     1    1
     9     1     2   ar
    10     2     3   ar
    11     3     4   ar
    12     4     5   ar
    13     5    21    1
    14    21    23    1
    15    23    24    1
    16    24    25    1
    17    25    26    1
    18    23    27    1
    19    27    28    1
    20    28    29    1
    21     5     6   ar
    22     6     7   ar
    23     7     8    1
    24     7     9   ar
    25     9    10   ar
    26    18    12    1
    27    10     1   ar
    28    17    15    1
    29    10     4   ar
    30    26    24    1
    31    29    27    1
    32    11    19    1
    33    14    20    1
    34    21    22    1
@<TRIPOS>MOLECULE
*****
 29 34 0 0 0
SMALL
GASTEIGER

@<TRIPOS>ATOM
      1 N           7.1038   -4.5916   24.0100 N.ar    1  UNL1       -0.2937
      2 C           7.9780   -4.9502   22.8450 C.ar    1  UNL1        0.1798
      3 N           7.5942   -4.0732   21.6903 N.ar    1  UNL1       -0.2195
      4 C           6.4828   -3.1725   22.1416 C.ar    1  UNL1        0.1483
      5 C           5.7076   -2.1020   21.4323 C.ar    1  UNL1        0.1518
      6 N           4.6293   -1.3519   22.1567 N.ar    1  UNL1       -0.2003
      7 C           4.3263   -1.6723   23.5904 C.ar    1  UNL1        0.2264
      8 CL          3.2481   -0.9223   24.3148 Cl      1  UNL1       -0.0409
      9 N           5.1015   -2.7428   24.2997 N.ar    1  UNL1       -0.1976
     10 C           6.1798   -3.4929   23.5753 C.ar    1  UNL1        0.1680
     11 O           6.4694   -3.0916   26.8380 O.3     1  UNL1       -0.3801
     12 C           6.8547   -4.5316   26.6707 C.3     1  UNL1        0.1577
     13 C           7.0159   -5.5351   27.7741 C.3     1  UNL1        0.1390
     14 O           6.8203   -5.2746   29.2382 O.3     1  UNL1       -0.3819
     15 C           7.4072   -6.8446   27.1560 C.3     1  UNL1        0.0314
     16 C           7.7811   -7.9947   26.2685 C.3     1  UNL1        0.0046
     17 C           7.4878   -6.6506   25.6708 C.3     1  UNL1        0.0258
     18 C           7.1463   -5.2211   25.3709 C.3     1  UNL1        0.1175
     19 H           6.3373   -2.8995   27.7795 H       1  UNL1        0.2105
     20 H           6.5699   -4.3470   29.3709 H       1  UNL1        0.2104
     21 N           6.0107   -1.7817   19.9986 N.pl3   1  UNL1       -0.3184
     22 H           6.8306   -1.2883   19.7671 H       1  UNL1        0.1482
     23 C           5.0644   -2.2130   18.9175 C.3     1  UNL1        0.0703
     24 C           4.7040   -1.2636   17.8135 C.3     1  UNL1        0.0179
     25 C           3.7640   -0.8305   16.7279 C.3     1  UNL1        0.0017
     26 C           5.0199   -0.0524   16.9870 C.3     1  UNL1        0.0017
     27 C           4.4787   -3.5937   18.9404 C.3     1  UNL1        0.0179
     28 C           4.6350   -5.0743   18.7580 C.3     1  UNL1        0.0017
     29 C           3.3078   -4.5045   19.1625 C.3     1  UNL1        0.0017
@<TRIPOS>BOND
     1    12    11    1
     2    12    13    1
     3    13    14    1
     4    13    15    1
     5    15    16    1
     6    17    16    1
     7    17    18    1
     8    18     1    1
     9     1     2   ar
    10     2     3   ar
    11     3     4   ar
    12     4     5   ar
    13     5    21    1
    14    21    23    1
    15    23    24    1
    16    24    25    1
    17    25    26    1
    18    23    27    1
    19    27    28    1
    20    28    29    1
    21     5     6   ar
    22     6     7   ar
    23     7     8    1
    24     7     9   ar
    25     9    10   ar
    26    18    12    1
    27    10     1   ar
    28    17    15    1
    29    10     4   ar
    30    26    24    1
    31    29    27    1
    32    11    19    1
    33    14    20    1
    34    21    22    1
@<TRIPOS>MOLECULE
*****
 29 34 0 0 0
SMALL
GASTEIGER

@<TRIPOS>ATOM
      1 N           6.9909   -4.5730   24.0685 N.ar    1  UNL1       -0.2937
      2 C           7.7603   -4.9804   22.8470 C.ar    1  UNL1        0.1798
      3 N           7.3141   -4.1130   21.7075 N.ar    1  UNL1       -0.2195
      4 C           6.2690   -3.1695   22.2248 C.ar    1  UNL1        0.1483
      5 C           5.4734   -2.0883   21.5556 C.ar    1  UNL1        0.1518
      6 N           4.4780   -1.2912   22.3456 N.ar    1  UNL1       -0.2003
      7 C           4.2783   -1.5755   23.8048 C.ar    1  UNL1        0.2264
      8 CL          3.2830   -0.7785   24.5948 Cl      1  UNL1       -0.0409
      9 N           5.0740   -2.6568   24.4740 N.ar    1  UNL1       -0.1976
     10 C           6.0693   -3.4538   23.6840 C.ar    1  UNL1        0.1680
     11 O           6.6741   -2.9914   26.9054 O.3     1  UNL1       -0.3801
     12 C           6.9749   -4.4515   26.7387 C.3     1  UNL1        0.1577
     13 C           7.1829   -5.4409   27.8469 C.3     1  UNL1        0.1390
     14 O           7.1265   -5.1441   29.3160 O.3     1  UNL1       -0.3819
     15 C           7.4570   -6.7794   27.2276 C.3     1  UNL1        0.0314
     16 C           7.6982   -7.9627   26.3379 C.3     1  UNL1        0.0046
     17 C           7.4185   -6.6172   25.7369 C.3     1  UNL1        0.0258
     18 C           7.1205   -5.1784   25.4348 C.3     1  UNL1        0.1175
     19 H           6.6328   -2.7756   27.8502 H       1  UNL1        0.2105
     20 H           6.9327   -4.2029   29.4485 H       1  UNL1        0.2104
     21 N           5.6731   -1.8040   20.0963 N.pl3   1  UNL1       -0.3184
     22 H           6.4655   -1.3026   19.7964 H       1  UNL1        0.1482
     23 C           4.6654   -2.2837   19.0940 C.3     1  UNL1        0.0703
     24 C           4.2855   -3.7340   19.0476 C.3     1  UNL1        0.0179
     25 C           3.2838   -4.8230   19.2937 C.3     1  UNL1        0.0017
     26 C           4.6294   -5.1571   18.7210 C.3     1  UNL1        0.0017
     27 C           4.0376   -1.3130   18.1382 C.3     1  UNL1        0.0179
     28 C           3.1725   -0.1139   17.8856 C.3     1  UNL1        0.0017
     29 C           3.8152   -0.8307   16.7354 C.3     1  UNL1        0.0017
@<TRIPOS>BOND
     1    12    11    1
     2    12    13    1
     3    13    14    1
     4    13    15    1
     5    15    16    1
     6    17    16    1
     7    17    18    1
     8    18     1    1
     9     1     2   ar
    10     2     3   ar
    11     3     4   ar
    12     4     5   ar
    13     5    21    1
    14    21    23    1
    15    23    24    1
    16    24    25    1
    17    25    26    1
    18    23    27    1
    19    27    28    1
    20    28    29    1
    21     5     6   ar
    22     6     7   ar
    23     7     8    1
    24     7     9   ar
    25     9    10   ar
    26    18    12    1
    27    10     1   ar
    28    17    15    1
    29    10     4   ar
    30    26    24    1
    31    29    27    1
    32    11    19    1
    33    14    20    1
    34    21    22    1
