@<TRIPOS>MOLECULE
*****
 26 27 0 0 0
SMALL
GASTEIGER

@<TRIPOS>ATOM
      1 C          -9.7009  -18.4927   23.4356 C.ar    1  UNL1        0.0505
      2 C          -9.2534  -19.5767   22.5004 C.ar    1  UNL1        0.0178
      3 C          -7.8793  -19.5299   21.9007 C.ar    1  UNL1        0.0382
      4 C          -6.9528  -18.3990   22.2362 C.ar    1  UNL1        0.1387
      5 C          -7.4003  -17.3149   23.1714 C.ar    1  UNL1        0.0352
      6 C          -6.4737  -16.1841   23.5069 C.ar    1  UNL1        0.0031
      7 C          -6.9212  -15.1001   24.4421 C.ar    1  UNL1        0.0001
      8 C          -8.2953  -15.1469   25.0418 C.ar    1  UNL1        0.0000
      9 C          -9.2219  -16.2778   24.7063 C.ar    1  UNL1        0.0013
     10 C          -8.7743  -17.3618   23.7711 C.ar    1  UNL1        0.0164
     11 C         -13.6097  -17.9855   23.8989 C.3     1  UNL1        0.0949
     12 C         -12.2356  -17.9387   23.2991 C.2     1  UNL1        0.2266
     13 O         -12.0220  -17.2909   21.9631 O.2     1  UNL1       -0.2748
     14 N         -11.0750  -18.5396   24.0353 N.am    1  UNL1       -0.2839
     15 H         -11.2152  -18.9647   24.9122 H       1  UNL1        0.1549
     16 O          -5.5787  -18.3522   21.6365 O.3     1  UNL1       -0.4728
     17 C          -4.6597  -19.5296   21.7743 C.3     1  UNL1        0.2358
     18 C          -3.3897  -19.5870   20.9781 C.3     1  UNL1        0.1697
     19 O          -2.1942  -20.3100   21.5241 O.3     1  UNL1       -0.3793
     20 H          -1.4633  -20.2518   20.8891 H       1  UNL1        0.2106
     21 C          -3.3151  -18.9213   19.6359 C.3     1  UNL1        0.1020
     22 N          -2.8321  -17.5054   19.5269 N.3     1  UNL1       -0.2964
     23 H          -3.6357  -16.9051   19.7119 H       1  UNL1        0.1233
     24 C          -1.7189  -17.0226   20.4086 C.3     1  UNL1        0.0541
     25 C          -0.2961  -17.3570   20.0712 C.3     1  UNL1        0.0171
     26 C          -2.0284  -16.2056   21.6279 C.3     1  UNL1        0.0171
@<TRIPOS>BOND
     1    11    12    1
     2    12    13    2
     3    12    14   am
     4    14     1    1
     5     1     2   ar
     6     2     3   ar
     7     3     4   ar
     8     4    16    1
     9    16    17    1
    10    17    18    1
    11    18    19    1
    12    18    21    1
    13    21    22    1
    14    22    24    1
    15    24    25    1
    16    24    26    1
    17     4     5   ar
    18     5     6   ar
    19     6     7   ar
    20     7     8   ar
    21     8     9   ar
    22     9    10   ar
    23    10     1   ar
    24    10     5   ar
    25    14    15    1
    26    19    20    1
    27    22    23    1
@<TRIPOS>MOLECULE
*****
 26 27 0 0 0
SMALL
GASTEIGER

@<TRIPOS>ATOM
      1 C          -9.9202  -17.4857   22.6421 C.ar    1  UNL1        0.0505
      2 C          -8.9424  -16.8962   23.6149 C.ar    1  UNL1        0.0178
      3 C          -7.4716  -17.1287   23.4338 C.ar    1  UNL1        0.0382
      4 C          -6.9786  -17.9507   22.2800 C.ar    1  UNL1        0.1387
      5 C          -7.9565  -18.5402   21.3072 C.ar    1  UNL1        0.0352
      6 C          -7.4635  -19.3622   20.1534 C.ar    1  UNL1        0.0031
      7 C          -8.4413  -19.9517   19.1806 C.ar    1  UNL1        0.0001
      8 C          -9.9121  -19.7192   19.3616 C.ar    1  UNL1        0.0000
      9 C         -10.4050  -18.8973   20.5154 C.ar    1  UNL1        0.0013
     10 C          -9.4272  -18.3078   21.4882 C.ar    1  UNL1        0.0164
     11 C         -13.6564  -17.9143   23.9097 C.3     1  UNL1        0.0949
     12 C         -12.1856  -18.1468   23.7287 C.2     1  UNL1        0.2266
     13 O         -11.5095  -19.2728   24.4533 O.2     1  UNL1       -0.2748
     14 N         -11.3909  -17.2533   22.8231 N.am    1  UNL1       -0.2839
     15 H         -11.8347  -16.5142   22.3476 H       1  UNL1        0.1549
     16 O          -5.5078  -18.1832   22.0990 O.3     1  UNL1       -0.4728
     17 C          -4.5244  -17.5088   23.0088 C.3     1  UNL1        0.2358
     18 C          -3.1456  -17.1848   22.5148 C.3     1  UNL1        0.1697
     19 O          -2.8541  -15.8307   21.9393 O.3     1  UNL1       -0.3793
     20 H          -1.9232  -15.7874   21.6700 H       1  UNL1        0.2106
     21 C          -2.0583  -18.2150   22.5964 C.3     1  UNL1        0.1020
     22 N          -1.8173  -19.1440   21.4436 N.3     1  UNL1       -0.2964
     23 H          -2.2357  -20.0397   21.6948 H       1  UNL1        0.1233
     24 C          -2.3307  -18.7940   20.0784 C.3     1  UNL1        0.0541
     25 C          -1.5788  -17.8191   19.2215 C.3     1  UNL1        0.0171
     26 C          -3.5960  -19.4188   19.5700 C.3     1  UNL1        0.0171
@<TRIPOS>BOND
     1    11    12    1
     2    12    13    2
     3    12    14   am
     4    14     1    1
     5     1     2   ar
     6     2     3   ar
     7     3     4   ar
     8     4    16    1
     9    16    17    1
    10    17    18    1
    11    18    19    1
    12    18    21    1
    13    21    22    1
    14    22    24    1
    15    24    25    1
    16    24    26    1
    17     4     5   ar
    18     5     6   ar
    19     6     7   ar
    20     7     8   ar
    21     8     9   ar
    22     9    10   ar
    23    10     1   ar
    24    10     5   ar
    25    14    15    1
    26    19    20    1
    27    22    23    1
@<TRIPOS>MOLECULE
*****
 26 27 0 0 0
SMALL
GASTEIGER

@<TRIPOS>ATOM
      1 C          -4.4947  -18.7930   21.8700 C.ar    1  UNL1        0.0505
      2 C          -5.2448  -19.8841   21.1653 C.ar    1  UNL1        0.0178
      3 C          -6.7410  -19.9441   21.2543 C.ar    1  UNL1        0.0382
      4 C          -7.4870  -18.9130   22.0482 C.ar    1  UNL1        0.1387
      5 C          -6.7368  -17.8218   22.7530 C.ar    1  UNL1        0.0352
      6 C          -7.4828  -16.7907   23.5469 C.ar    1  UNL1        0.0031
      7 C          -6.7326  -15.6996   24.2517 C.ar    1  UNL1        0.0001
      8 C          -5.2365  -15.6397   24.1626 C.ar    1  UNL1        0.0000
      9 C          -4.4905  -16.6708   23.3687 C.ar    1  UNL1        0.0013
     10 C          -5.2406  -17.7618   22.6640 C.ar    1  UNL1        0.0164
     11 C          -0.8462  -18.0910   20.4752 C.3     1  UNL1        0.0949
     12 C          -2.3423  -18.1510   20.5642 C.2     1  UNL1        0.2266
     13 O          -3.1823  -17.6287   19.4365 O.2     1  UNL1       -0.2748
     14 N          -2.9985  -18.7331   21.7810 N.am    1  UNL1       -0.2839
     15 H          -2.4472  -19.0758   22.5211 H       1  UNL1        0.1549
     16 O          -8.9831  -18.9729   22.1373 O.3     1  UNL1       -0.4728
     17 C          -9.6451  -20.0799   22.9029 C.3     1  UNL1        0.2358
     18 C         -10.0969  -19.8496   24.3146 C.3     1  UNL1        0.1697
     19 O          -9.9655  -20.9438   25.3321 O.3     1  UNL1       -0.3793
     20 H         -10.3016  -20.6323   26.1871 H       1  UNL1        0.2106
     21 C         -10.6802  -18.5249   24.7087 C.3     1  UNL1        0.1020
     22 N         -11.1628  -17.5742   23.6536 N.3     1  UNL1       -0.2964
     23 H         -10.4894  -17.6168   22.8886 H       1  UNL1        0.1233
     24 C         -12.5216  -17.7561   23.0449 C.3     1  UNL1        0.0541
     25 C         -13.7144  -17.9798   23.9265 C.3     1  UNL1        0.0171
     26 C         -12.6876  -17.7142   21.5548 C.3     1  UNL1        0.0171
@<TRIPOS>BOND
     1    11    12    1
     2    12    13    2
     3    12    14   am
     4    14     1    1
     5     1     2   ar
     6     2     3   ar
     7     3     4   ar
     8     4    16    1
     9    16    17    1
    10    17    18    1
    11    18    19    1
    12    18    21    1
    13    21    22    1
    14    22    24    1
    15    24    25    1
    16    24    26    1
    17     4     5   ar
    18     5     6   ar
    19     6     7   ar
    20     7     8   ar
    21     8     9   ar
    22     9    10   ar
    23    10     1   ar
    24    10     5   ar
    25    14    15    1
    26    19    20    1
    27    22    23    1
@<TRIPOS>MOLECULE
*****
 26 27 0 0 0
SMALL
GASTEIGER

@<TRIPOS>ATOM
      1 C          -7.1015  -15.7894   24.7187 C.ar    1  UNL1        0.0505
      2 C          -5.6229  -16.0028   24.5833 C.ar    1  UNL1        0.0178
      3 C          -5.0924  -16.9316   23.5317 C.ar    1  UNL1        0.0382
      4 C          -6.0404  -17.6470   22.6155 C.ar    1  UNL1        0.1387
      5 C          -7.5190  -17.4336   22.7509 C.ar    1  UNL1        0.0352
      6 C          -8.4670  -18.1491   21.8347 C.ar    1  UNL1        0.0031
      7 C          -9.9455  -17.9357   21.9701 C.ar    1  UNL1        0.0001
      8 C         -10.4761  -17.0068   23.0217 C.ar    1  UNL1        0.0000
      9 C          -9.5281  -16.2914   23.9379 C.ar    1  UNL1        0.0013
     10 C          -8.0495  -16.5048   23.8025 C.ar    1  UNL1        0.0164
     11 C          -8.7462  -14.4865   28.0872 C.3     1  UNL1        0.0949
     12 C          -8.2157  -15.4154   27.0357 C.2     1  UNL1        0.2266
     13 O          -8.2689  -16.8991   27.2496 O.2     1  UNL1       -0.2748
     14 N          -7.6320  -14.8605   25.7702 N.am    1  UNL1       -0.2839
     15 H          -7.5971  -13.8867   25.6298 H       1  UNL1        0.1549
     16 O          -5.5099  -18.5759   21.5639 O.3     1  UNL1       -0.4728
     17 C          -4.3876  -19.5159   21.8906 C.3     1  UNL1        0.2358
     18 C          -3.2024  -19.6153   20.9766 C.3     1  UNL1        0.1697
     19 O          -1.9864  -20.3816   21.4057 O.3     1  UNL1       -0.3793
     20 H          -1.3180  -20.3470   20.7037 H       1  UNL1        0.2106
     21 C          -3.2332  -18.9483   19.6333 C.3     1  UNL1        0.1020
     22 N          -2.7106  -17.5510   19.4776 N.3     1  UNL1       -0.2964
     23 H          -3.5036  -16.9234   19.6109 H       1  UNL1        0.1233
     24 C          -1.6124  -17.0569   20.3720 C.3     1  UNL1        0.0541
     25 C          -0.1873  -17.4254   20.0835 C.3     1  UNL1        0.0171
     26 C          -1.9394  -16.1945   21.5548 C.3     1  UNL1        0.0171
@<TRIPOS>BOND
     1    11    12    1
     2    12    13    2
     3    12    14   am
     4    14     1    1
     5     1     2   ar
     6     2     3   ar
     7     3     4   ar
     8     4    16    1
     9    16    17    1
    10    17    18    1
    11    18    19    1
    12    18    21    1
    13    21    22    1
    14    22    24    1
    15    24    25    1
    16    24    26    1
    17     4     5   ar
    18     5     6   ar
    19     6     7   ar
    20     7     8   ar
    21     8     9   ar
    22     9    10   ar
    23    10     1   ar
    24    10     5   ar
    25    14    15    1
    26    19    20    1
    27    22    23    1
@<TRIPOS>MOLECULE
*****
 26 27 0 0 0
SMALL
GASTEIGER

@<TRIPOS>ATOM
      1 C          -3.5990  -19.3398   21.0962 C.ar    1  UNL1        0.0505
      2 C          -4.3008  -20.3854   20.2813 C.ar    1  UNL1        0.0178
      3 C          -5.7928  -20.5199   20.3582 C.ar    1  UNL1        0.0382
      4 C          -6.5830  -19.6088   21.2501 C.ar    1  UNL1        0.1387
      5 C          -5.8812  -18.5631   22.0651 C.ar    1  UNL1        0.0352
      6 C          -6.6713  -17.6520   22.9569 C.ar    1  UNL1        0.0031
      7 C          -5.9695  -16.6064   23.7719 C.ar    1  UNL1        0.0001
      8 C          -4.4776  -16.4719   23.6949 C.ar    1  UNL1        0.0000
      9 C          -3.6874  -17.3830   22.8030 C.ar    1  UNL1        0.0013
     10 C          -4.3892  -18.4286   21.9881 C.ar    1  UNL1        0.0164
     11 C           0.0018  -18.1004   19.9791 C.3     1  UNL1        0.0949
     12 C          -1.4902  -18.2349   20.0560 C.2     1  UNL1        0.2266
     13 O          -2.3653  -17.3989   19.1697 O.2     1  UNL1       -0.2748
     14 N          -2.1070  -19.2053   21.0192 N.am    1  UNL1       -0.2839
     15 H          -1.5327  -19.7539   21.6009 H       1  UNL1        0.1549
     16 O          -8.0749  -19.7433   21.3271 O.3     1  UNL1       -0.4728
     17 C          -8.9289  -19.2913   20.1797 C.3     1  UNL1        0.2358
     18 C         -10.3999  -19.0756   20.3791 C.3     1  UNL1        0.1697
     19 O         -11.1118  -18.0035   19.6086 O.3     1  UNL1       -0.3793
     20 H         -12.0502  -17.9979   19.8541 H       1  UNL1        0.2106
     21 C         -11.1589  -19.9320   21.3489 C.3     1  UNL1        0.1020
     22 N         -10.6612  -20.0949   22.7545 N.3     1  UNL1       -0.2964
     23 H          -9.6446  -20.1578   22.7015 H       1  UNL1        0.1233
     24 C         -10.9774  -19.0541   23.7874 C.3     1  UNL1        0.0541
     25 C         -10.0077  -18.7817   24.8989 C.3     1  UNL1        0.0171
     26 C         -12.2632  -18.2858   23.7087 C.3     1  UNL1        0.0171
@<TRIPOS>BOND
     1    11    12    1
     2    12    13    2
     3    12    14   am
     4    14     1    1
     5     1     2   ar
     6     2     3   ar
     7     3     4   ar
     8     4    16    1
     9    16    17    1
    10    17    18    1
    11    18    19    1
    12    18    21    1
    13    21    22    1
    14    22    24    1
    15    24    25    1
    16    24    26    1
    17     4     5   ar
    18     5     6   ar
    19     6     7   ar
    20     7     8   ar
    21     8     9   ar
    22     9    10   ar
    23    10     1   ar
    24    10     5   ar
    25    14    15    1
    26    19    20    1
    27    22    23    1
@<TRIPOS>MOLECULE
*****
 26 27 0 0 0
SMALL
GASTEIGER

@<TRIPOS>ATOM
      1 C          -6.9713  -16.4932   23.2523 C.ar    1  UNL1        0.0505
      2 C          -8.3050  -15.8120   23.1689 C.ar    1  UNL1        0.0178
      3 C          -9.3964  -16.4008   22.3248 C.ar    1  UNL1        0.0382
      4 C          -9.1539  -17.6707   21.5642 C.ar    1  UNL1        0.1387
      5 C          -7.8201  -18.3519   21.6476 C.ar    1  UNL1        0.0352
      6 C          -7.5776  -19.6218   20.8870 C.ar    1  UNL1        0.0031
      7 C          -6.2439  -20.3029   20.9705 C.ar    1  UNL1        0.0001
      8 C          -5.1525  -19.7142   21.8145 C.ar    1  UNL1        0.0000
      9 C          -5.3950  -18.4443   22.5751 C.ar    1  UNL1        0.0013
     10 C          -6.7288  -17.7631   22.4917 C.ar    1  UNL1        0.0164
     11 C          -5.0758  -14.8948   26.3511 C.3     1  UNL1        0.0949
     12 C          -6.1672  -15.4836   25.5071 C.2     1  UNL1        0.2266
     13 O          -7.5458  -15.6515   26.0739 O.2     1  UNL1       -0.2748
     14 N          -5.8799  -15.9044   24.0963 N.am    1  UNL1       -0.2839
     15 H          -4.9751  -15.7942   23.7243 H       1  UNL1        0.1549
     16 O         -10.2453  -18.2594   20.7202 O.3     1  UNL1       -0.4728
     17 C         -10.9083  -17.4264   19.6636 C.3     1  UNL1        0.2358
     18 C         -12.0538  -16.5282   20.0258 C.3     1  UNL1        0.1697
     19 O         -12.5172  -15.4776   19.0608 O.3     1  UNL1       -0.3793
     20 H         -13.2604  -14.9886   19.4475 H       1  UNL1        0.2106
     21 C         -12.7358  -16.6807   21.3532 C.3     1  UNL1        0.1020
     22 N         -12.8572  -18.0368   21.9825 N.3     1  UNL1       -0.2964
     23 H         -12.0779  -18.5944   21.6332 H       1  UNL1        0.1233
     24 C         -12.8523  -18.1736   23.4762 C.3     1  UNL1        0.0541
     25 C         -11.5761  -18.4958   24.1956 C.3     1  UNL1        0.0171
     26 C         -14.1235  -17.9882   24.2506 C.3     1  UNL1        0.0171
@<TRIPOS>BOND
     1    11    12    1
     2    12    13    2
     3    12    14   am
     4    14     1    1
     5     1     2   ar
     6     2     3   ar
     7     3     4   ar
     8     4    16    1
     9    16    17    1
    10    17    18    1
    11    18    19    1
    12    18    21    1
    13    21    22    1
    14    22    24    1
    15    24    25    1
    16    24    26    1
    17     4     5   ar
    18     5     6   ar
    19     6     7   ar
    20     7     8   ar
    21     8     9   ar
    22     9    10   ar
    23    10     1   ar
    24    10     5   ar
    25    14    15    1
    26    19    20    1
    27    22    23    1
@<TRIPOS>MOLECULE
*****
 26 27 0 0 0
SMALL
GASTEIGER

@<TRIPOS>ATOM
      1 C          -5.0350  -18.7078   22.0722 C.ar    1  UNL1        0.0505
      2 C          -6.0704  -19.5600   21.4001 C.ar    1  UNL1        0.0178
      3 C          -7.5277  -19.2614   21.5927 C.ar    1  UNL1        0.0382
      4 C          -7.9496  -18.1107   22.4574 C.ar    1  UNL1        0.1387
      5 C          -6.9142  -17.2585   23.1296 C.ar    1  UNL1        0.0352
      6 C          -7.3362  -16.1078   23.9943 C.ar    1  UNL1        0.0031
      7 C          -6.3008  -15.2556   24.6664 C.ar    1  UNL1        0.0001
      8 C          -4.8435  -15.5541   24.4738 C.ar    1  UNL1        0.0000
      9 C          -4.4215  -16.7049   23.6090 C.ar    1  UNL1        0.0013
     10 C          -5.4569  -17.5570   22.9369 C.ar    1  UNL1        0.0164
     11 C          -1.4348  -18.9055   20.4140 C.3     1  UNL1        0.0949
     12 C          -2.8921  -18.6069   20.6066 C.2     1  UNL1        0.2266
     13 O          -3.6639  -17.9089   19.5262 O.2     1  UNL1       -0.2748
     14 N          -3.5777  -19.0064   21.8795 N.am    1  UNL1       -0.2839
     15 H          -3.0711  -19.4645   22.5886 H       1  UNL1        0.1549
     16 O          -9.4069  -17.8122   22.6500 O.3     1  UNL1       -0.4728
     17 C          -9.9800  -16.5190   22.1508 C.3     1  UNL1        0.2358
     18 C         -11.4456  -16.4152   21.8487 C.3     1  UNL1        0.1697
     19 O         -12.3196  -15.5176   22.6735 O.3     1  UNL1       -0.3793
     20 H         -13.2321  -15.5669   22.3483 H       1  UNL1        0.2106
     21 C         -12.0371  -17.2089   20.7217 C.3     1  UNL1        0.1020
     22 N         -11.1393  -17.8808   19.7254 N.3     1  UNL1       -0.2964
     23 H         -10.3106  -17.2933   19.6327 H       1  UNL1        0.1233
     24 C         -10.6539  -19.2778   19.9757 C.3     1  UNL1        0.0541
     25 C         -11.1402  -20.0373   21.1744 C.3     1  UNL1        0.0171
     26 C          -9.6822  -19.9153   19.0274 C.3     1  UNL1        0.0171
@<TRIPOS>BOND
     1    11    12    1
     2    12    13    2
     3    12    14   am
     4    14     1    1
     5     1     2   ar
     6     2     3   ar
     7     3     4   ar
     8     4    16    1
     9    16    17    1
    10    17    18    1
    11    18    19    1
    12    18    21    1
    13    21    22    1
    14    22    24    1
    15    24    25    1
    16    24    26    1
    17     4     5   ar
    18     5     6   ar
    19     6     7   ar
    20     7     8   ar
    21     8     9   ar
    22     9    10   ar
    23    10     1   ar
    24    10     5   ar
    25    14    15    1
    26    19    20    1
    27    22    23    1
@<TRIPOS>MOLECULE
*****
 26 27 0 0 0
SMALL
GASTEIGER

@<TRIPOS>ATOM
      1 C          -8.7206  -16.3347   24.2859 C.ar    1  UNL1        0.0505
      2 C          -7.7747  -15.7096   23.3038 C.ar    1  UNL1        0.0178
      3 C          -7.4496  -16.4165   22.0214 C.ar    1  UNL1        0.0382
      4 C          -8.0704  -17.7486   21.7211 C.ar    1  UNL1        0.1387
      5 C          -9.0163  -18.3738   22.7031 C.ar    1  UNL1        0.0352
      6 C          -9.6371  -19.7058   22.4028 C.ar    1  UNL1        0.0031
      7 C         -10.5830  -20.3309   23.3849 C.ar    1  UNL1        0.0001
      8 C         -10.9081  -19.6240   24.6673 C.ar    1  UNL1        0.0000
      9 C         -10.2873  -18.2920   24.9676 C.ar    1  UNL1        0.0013
     10 C          -9.3414  -17.6668   23.9855 C.ar    1  UNL1        0.0164
     11 C          -8.3107  -14.7379   27.8958 C.3     1  UNL1        0.0949
     12 C          -7.9855  -15.4448   26.6134 C.2     1  UNL1        0.2266
     13 O          -6.6001  -15.9688   26.3762 O.2     1  UNL1       -0.2748
     14 N          -9.0457  -15.6278   25.5683 N.am    1  UNL1       -0.2839
     15 H          -9.9550  -15.2839   25.7239 H       1  UNL1        0.1549
     16 O          -7.7452  -18.4555   20.4387 O.3     1  UNL1       -0.4728
     17 C          -6.3751  -19.0269   20.2238 C.3     1  UNL1        0.2358
     18 C          -5.6815  -19.7520   21.3387 C.3     1  UNL1        0.1697
     19 O          -6.4243  -20.7773   22.1430 O.3     1  UNL1       -0.3793
     20 H          -5.8347  -21.1479   22.8182 H       1  UNL1        0.2106
     21 C          -4.2450  -19.4518   21.6494 C.3     1  UNL1        0.1020
     22 N          -3.8276  -18.0512   21.9871 N.3     1  UNL1       -0.2964
     23 H          -3.8448  -17.9759   23.0041 H       1  UNL1        0.1233
     24 C          -2.4920  -17.5375   21.5374 C.3     1  UNL1        0.0541
     25 C          -2.1068  -16.1131   21.8067 C.3     1  UNL1        0.0171
     26 C          -1.5416  -18.4484   20.8183 C.3     1  UNL1        0.0171
@<TRIPOS>BOND
     1    11    12    1
     2    12    13    2
     3    12    14   am
     4    14     1    1
     5     1     2   ar
     6     2     3   ar
     7     3     4   ar
     8     4    16    1
     9    16    17    1
    10    17    18    1
    11    18    19    1
    12    18    21    1
    13    21    22    1
    14    22    24    1
    15    24    25    1
    16    24    26    1
    17     4     5   ar
    18     5     6   ar
    19     6     7   ar
    20     7     8   ar
    21     8     9   ar
    22     9    10   ar
    23    10     1   ar
    24    10     5   ar
    25    14    15    1
    26    19    20    1
    27    22    23    1
@<TRIPOS>MOLECULE
*****
 26 27 0 0 0
SMALL
GASTEIGER

@<TRIPOS>ATOM
      1 C         -13.5216   -7.4073   18.4592 C.ar    1  UNL1        0.0505
      2 C         -14.1422   -8.2569   17.3902 C.ar    1  UNL1        0.0178
      3 C         -15.5158   -7.9358   16.8801 C.ar    1  UNL1        0.0382
      4 C         -16.2688   -6.7652   17.4392 C.ar    1  UNL1        0.1387
      5 C         -15.6481   -5.9155   18.5083 C.ar    1  UNL1        0.0352
      6 C         -16.4011   -4.7449   19.0674 C.ar    1  UNL1        0.0031
      7 C         -15.7805   -3.8953   20.1365 C.ar    1  UNL1        0.0001
      8 C         -14.4069   -4.2164   20.6465 C.ar    1  UNL1        0.0000
      9 C         -13.6539   -5.3870   20.0874 C.ar    1  UNL1        0.0013
     10 C         -14.2745   -6.2366   19.0183 C.ar    1  UNL1        0.0164
     11 C          -9.5673   -7.4913   18.7855 C.3     1  UNL1        0.0949
     12 C         -10.9409   -7.1702   18.2755 C.2     1  UNL1        0.2266
     13 O         -11.1074   -6.2910   17.0716 O.2     1  UNL1       -0.2748
     14 N         -12.1480   -7.7284   18.9693 N.am    1  UNL1       -0.2839
     15 H         -12.0387   -8.3054   19.7594 H       1  UNL1        0.1549
     16 O         -17.6424   -6.4441   16.9292 O.3     1  UNL1       -0.4728
     17 C         -18.8482   -7.0295   17.6023 C.3     1  UNL1        0.2358
     18 C         -19.1892   -8.4767   17.4041 C.3     1  UNL1        0.1697
     19 O         -18.8961   -9.1435   16.0928 O.3     1  UNL1       -0.3793
     20 H         -19.1762  -10.0714   16.1322 H       1  UNL1        0.2106
     21 C         -19.8233   -9.2572   18.5172 C.3     1  UNL1        0.1020
     22 N         -18.9886   -9.7353   19.6682 N.3     1  UNL1       -0.2964
     23 H         -19.3730  -10.6348   19.9570 H       1  UNL1        0.1233
     24 C         -17.5118   -9.9316   19.4931 C.3     1  UNL1        0.0541
     25 C         -17.0012  -11.0030   18.5758 C.3     1  UNL1        0.0171
     26 C         -16.5458   -9.0566   20.2353 C.3     1  UNL1        0.0171
@<TRIPOS>BOND
     1    11    12    1
     2    12    13    2
     3    12    14   am
     4    14     1    1
     5     1     2   ar
     6     2     3   ar
     7     3     4   ar
     8     4    16    1
     9    16    17    1
    10    17    18    1
    11    18    19    1
    12    18    21    1
    13    21    22    1
    14    22    24    1
    15    24    25    1
    16    24    26    1
    17     4     5   ar
    18     5     6   ar
    19     6     7   ar
    20     7     8   ar
    21     8     9   ar
    22     9    10   ar
    23    10     1   ar
    24    10     5   ar
    25    14    15    1
    26    19    20    1
    27    22    23    1
