@<TRIPOS>MOLECULE
*****
 19 20 0 0 0
SMALL
GASTEIGER

@<TRIPOS>ATOM
      1 N          -8.1614  -19.6202   22.3165 N.am    1  UNL1       -0.2791
      2 C          -7.1715  -18.6212   21.7948 C.2     1  UNL1        0.2672
      3 O          -7.5694  -17.1836   21.6364 O.2     1  UNL1       -0.2682
      4 H          -7.9003  -20.5637   22.4205 H       1  UNL1        0.1552
      5 C         -11.8181  -18.1091   22.0083 C.ar    1  UNL1        0.1504
      6 C         -10.4305  -18.5477   21.6449 C.ar    1  UNL1        0.0524
      7 C          -9.5490  -19.1815   22.6800 C.ar    1  UNL1        0.0537
      8 C         -10.0552  -19.3766   24.0784 C.ar    1  UNL1        0.0157
      9 C         -11.4428  -18.9380   24.4418 C.ar    1  UNL1        0.0157
     10 C         -12.3242  -18.3042   23.4068 C.ar    1  UNL1        0.0916
     11 CL        -13.7119  -17.8655   23.7703 Cl      1  UNL1       -0.0791
     12 C         -12.2096  -16.2906   20.1945 C.3     1  UNL1        0.2525
     13 O         -12.6996  -17.4753   20.9733 O.3     1  UNL1       -0.4705
     14 C          -5.7839  -19.0598   21.4313 C.ar    1  UNL1        0.1348
     15 C          -5.5823  -20.1471   20.4178 C.ar    1  UNL1        0.0238
     16 C          -4.1946  -20.5857   20.0544 C.ar    1  UNL1        0.0033
     17 C          -3.0086  -19.9370   20.7044 C.ar    1  UNL1        0.0207
     18 C          -3.2103  -18.8497   21.7178 C.ar    1  UNL1        0.0990
     19 N          -4.5978  -18.4111   22.0813 N.ar    1  UNL1       -0.2392
@<TRIPOS>BOND
     1    12    13    1
     2    13     5    1
     3     5     6   ar
     4     6     7   ar
     5     7     1    1
     6     1     2   am
     7     2     3    2
     8     2    14    1
     9    14    15   ar
    10    15    16   ar
    11    16    17   ar
    12    17    18   ar
    13    18    19   ar
    14     7     8   ar
    15     8     9   ar
    16     9    10   ar
    17    10    11    1
    18    10     5   ar
    19    19    14   ar
    20     1     4    1
@<TRIPOS>MOLECULE
*****
 19 20 0 0 0
SMALL
GASTEIGER

@<TRIPOS>ATOM
      1 N          -7.4904  -19.4238   22.2904 N.am    1  UNL1       -0.2791
      2 C          -8.3498  -18.2101   22.0940 C.2     1  UNL1        0.2672
      3 O          -7.7927  -17.0004   21.4039 O.2     1  UNL1       -0.2682
      4 H          -7.8560  -20.2178   22.7433 H       1  UNL1        0.1552
      5 C          -3.6316  -18.5572   21.9609 C.ar    1  UNL1        0.1504
      6 C          -5.0480  -18.5534   22.4546 C.ar    1  UNL1        0.0524
      7 C          -6.0740  -19.4277   21.7966 C.ar    1  UNL1        0.0537
      8 C          -5.6836  -20.3058   20.6449 C.ar    1  UNL1        0.0157
      9 C          -4.2672  -20.3096   20.1512 C.ar    1  UNL1        0.0157
     10 C          -3.2412  -19.4353   20.8092 C.ar    1  UNL1        0.0916
     11 CL         -1.8247  -19.4392   20.3155 Cl      1  UNL1       -0.0791
     12 C          -2.2723  -16.3442   22.0302 C.3     1  UNL1        0.2525
     13 O          -2.6056  -17.6829   22.6189 O.3     1  UNL1       -0.4705
     14 C          -9.7662  -18.2062   22.5877 C.ar    1  UNL1        0.1348
     15 C         -10.0842  -18.7268   23.9581 C.ar    1  UNL1        0.0238
     16 C         -11.5007  -18.7229   24.4517 C.ar    1  UNL1        0.0033
     17 C         -12.5990  -18.1984   23.5751 C.ar    1  UNL1        0.0207
     18 C         -12.2810  -17.6778   22.2048 C.ar    1  UNL1        0.0990
     19 N         -10.8646  -17.6817   21.7111 N.ar    1  UNL1       -0.2392
@<TRIPOS>BOND
     1    12    13    1
     2    13     5    1
     3     5     6   ar
     4     6     7   ar
     5     7     1    1
     6     1     2   am
     7     2     3    2
     8     2    14    1
     9    14    15   ar
    10    15    16   ar
    11    16    17   ar
    12    17    18   ar
    13    18    19   ar
    14     7     8   ar
    15     8     9   ar
    16     9    10   ar
    17    10    11    1
    18    10     5   ar
    19    19    14   ar
    20     1     4    1
@<TRIPOS>MOLECULE
*****
 19 20 0 0 0
SMALL
GASTEIGER

@<TRIPOS>ATOM
      1 N          -4.4447  -15.9743   23.1337 N.am    1  UNL1       -0.2791
      2 C          -3.7390  -17.2900   22.9896 C.2     1  UNL1        0.2672
      3 O          -4.0611  -18.4200   23.9221 O.2     1  UNL1       -0.2682
      4 H          -4.2333  -15.2327   22.5217 H       1  UNL1        0.1552
      5 C          -7.9598  -15.7091   24.9568 C.ar    1  UNL1        0.1504
      6 C          -6.9320  -15.8948   23.8803 C.ar    1  UNL1        0.0524
      7 C          -5.4726  -15.7886   24.2103 C.ar    1  UNL1        0.0537
      8 C          -5.0411  -15.4965   25.6169 C.ar    1  UNL1        0.0157
      9 C          -6.0689  -15.3108   26.6934 C.ar    1  UNL1        0.0157
     10 C          -7.5283  -15.4171   26.3634 C.ar    1  UNL1        0.0916
     11 CL         -8.5562  -15.2313   27.4400 Cl      1  UNL1       -0.0791
     12 C          -9.8597  -16.5741   23.4101 C.3     1  UNL1        0.2525
     13 O          -9.4192  -15.8154   24.6268 O.3     1  UNL1       -0.4705
     14 C          -2.7112  -17.4759   21.9130 C.ar    1  UNL1        0.1348
     15 C          -1.8176  -16.3355   21.5243 C.ar    1  UNL1        0.0238
     16 C          -0.7897  -16.5213   20.4477 C.ar    1  UNL1        0.0033
     17 C          -0.6555  -17.8475   19.7598 C.ar    1  UNL1        0.0207
     18 C          -1.5490  -18.9879   20.1485 C.ar    1  UNL1        0.0990
     19 N          -2.5768  -18.8021   21.2251 N.ar    1  UNL1       -0.2392
@<TRIPOS>BOND
     1    12    13    1
     2    13     5    1
     3     5     6   ar
     4     6     7   ar
     5     7     1    1
     6     1     2   am
     7     2     3    2
     8     2    14    1
     9    14    15   ar
    10    15    16   ar
    11    16    17   ar
    12    17    18   ar
    13    18    19   ar
    14     7     8   ar
    15     8     9   ar
    16     9    10   ar
    17    10    11    1
    18    10     5   ar
    19    19    14   ar
    20     1     4    1
@<TRIPOS>MOLECULE
*****
 19 20 0 0 0
SMALL
GASTEIGER

@<TRIPOS>ATOM
      1 N          -4.5988  -17.1466   23.7085 N.am    1  UNL1       -0.2791
      2 C          -5.3179  -15.8411   23.8775 C.2     1  UNL1        0.2672
      3 O          -5.0732  -14.7195   22.9119 O.2     1  UNL1       -0.2682
      4 H          -4.7594  -17.8827   24.3422 H       1  UNL1        0.1552
      5 C          -2.8485  -18.6553   20.4821 C.ar    1  UNL1        0.1504
      6 C          -3.8123  -18.4714   21.6165 C.ar    1  UNL1        0.0524
      7 C          -3.6349  -17.3305   22.5740 C.ar    1  UNL1        0.0537
      8 C          -2.4935  -16.3734   22.3970 C.ar    1  UNL1        0.0157
      9 C          -1.5296  -16.5574   21.2625 C.ar    1  UNL1        0.0157
     10 C          -1.7071  -17.6983   20.3050 C.ar    1  UNL1        0.0916
     11 CL         -0.7432  -17.8822   19.1705 Cl      1  UNL1       -0.0791
     12 C          -4.1009  -20.8150   19.7628 C.3     1  UNL1        0.2525
     13 O          -3.0260  -19.7963   19.5246 O.3     1  UNL1       -0.4705
     14 C          -6.2818  -15.6572   25.0119 C.ar    1  UNL1        0.1348
     15 C          -5.7685  -15.4316   26.4032 C.ar    1  UNL1        0.0238
     16 C          -6.7325  -15.2476   27.5377 C.ar    1  UNL1        0.0033
     17 C          -8.2097  -15.2893   27.2809 C.ar    1  UNL1        0.0207
     18 C          -8.7231  -15.5149   25.8896 C.ar    1  UNL1        0.0990
     19 N          -7.7592  -15.6988   24.7552 N.ar    1  UNL1       -0.2392
@<TRIPOS>BOND
     1    12    13    1
     2    13     5    1
     3     5     6   ar
     4     6     7   ar
     5     7     1    1
     6     1     2   am
     7     2     3    2
     8     2    14    1
     9    14    15   ar
    10    15    16   ar
    11    16    17   ar
    12    17    18   ar
    13    18    19   ar
    14     7     8   ar
    15     8     9   ar
    16     9    10   ar
    17    10    11    1
    18    10     5   ar
    19    19    14   ar
    20     1     4    1
@<TRIPOS>MOLECULE
*****
 19 20 0 0 0
SMALL
GASTEIGER

@<TRIPOS>ATOM
      1 N          -7.4213  -18.9641   21.3197 N.am    1  UNL1       -0.2791
      2 C          -8.1965  -17.7856   21.8297 C.2     1  UNL1        0.2672
      3 O          -7.4723  -16.5921   22.3785 O.2     1  UNL1       -0.2682
      4 H          -7.8966  -19.7474   20.9595 H       1  UNL1        0.1552
      5 C          -3.6393  -18.9147   20.1181 C.ar    1  UNL1        0.1504
      6 C          -5.1387  -18.9297   20.0793 C.ar    1  UNL1        0.0524
      7 C          -5.9218  -18.9492   21.3585 C.ar    1  UNL1        0.0537
      8 C          -5.2056  -18.9537   22.6764 C.ar    1  UNL1        0.0157
      9 C          -3.7062  -18.9388   22.7152 C.ar    1  UNL1        0.0157
     10 C          -2.9230  -18.9193   21.4360 C.ar    1  UNL1        0.0916
     11 CL         -1.4236  -18.9043   21.4748 Cl      1  UNL1       -0.0791
     12 C          -2.1713  -17.6357   18.3979 C.3     1  UNL1        0.2525
     13 O          -2.8561  -18.8952   18.8389 O.3     1  UNL1       -0.4705
     14 C          -9.6959  -17.8005   21.7909 C.ar    1  UNL1        0.1348
     15 C         -10.4153  -17.5479   20.4991 C.ar    1  UNL1        0.0238
     16 C         -11.9148  -17.5628   20.4604 C.ar    1  UNL1        0.0033
     17 C         -12.6948  -17.8303   21.7134 C.ar    1  UNL1        0.0207
     18 C         -11.9754  -18.0829   23.0051 C.ar    1  UNL1        0.0990
     19 N         -10.4760  -18.0680   23.0439 N.ar    1  UNL1       -0.2392
@<TRIPOS>BOND
     1    12    13    1
     2    13     5    1
     3     5     6   ar
     4     6     7   ar
     5     7     1    1
     6     1     2   am
     7     2     3    2
     8     2    14    1
     9    14    15   ar
    10    15    16   ar
    11    16    17   ar
    12    17    18   ar
    13    18    19   ar
    14     7     8   ar
    15     8     9   ar
    16     9    10   ar
    17    10    11    1
    18    10     5   ar
    19    19    14   ar
    20     1     4    1
@<TRIPOS>MOLECULE
*****
 19 20 0 0 0
SMALL
GASTEIGER

@<TRIPOS>ATOM
      1 N          -7.3428  -17.4573   21.6849 N.am    1  UNL1       -0.2791
      2 C          -6.5618  -18.7377   21.6584 C.2     1  UNL1        0.2672
      3 O          -7.2241  -20.0282   22.0405 O.2     1  UNL1       -0.2682
      4 H          -6.9081  -16.6103   21.4342 H       1  UNL1        0.1552
      5 C         -10.7031  -18.4319   23.5581 C.ar    1  UNL1        0.1504
      6 C          -9.2599  -18.4217   23.1495 C.ar    1  UNL1        0.0524
      7 C          -8.7861  -17.4675   22.0935 C.ar    1  UNL1        0.0537
      8 C          -9.7555  -16.5235   21.4462 C.ar    1  UNL1        0.0157
      9 C         -11.1987  -16.5337   21.8549 C.ar    1  UNL1        0.0157
     10 C         -11.6725  -17.4879   22.9108 C.ar    1  UNL1        0.0916
     11 CL        -13.1158  -17.4981   23.3194 Cl      1  UNL1       -0.0791
     12 C         -10.2924  -20.5135   25.0575 C.3     1  UNL1        0.2525
     13 O         -11.1769  -19.3862   24.6140 O.3     1  UNL1       -0.4705
     14 C          -5.1186  -18.7276   21.2498 C.ar    1  UNL1        0.1348
     15 C          -4.7053  -19.3334   19.9413 C.ar    1  UNL1        0.0238
     16 C          -3.2620  -19.3232   19.5328 C.ar    1  UNL1        0.0033
     17 C          -2.2321  -18.7073   20.4327 C.ar    1  UNL1        0.0207
     18 C          -2.6454  -18.1015   21.7412 C.ar    1  UNL1        0.0990
     19 N          -4.0886  -18.1116   22.1498 N.ar    1  UNL1       -0.2392
@<TRIPOS>BOND
     1    12    13    1
     2    13     5    1
     3     5     6   ar
     4     6     7   ar
     5     7     1    1
     6     1     2   am
     7     2     3    2
     8     2    14    1
     9    14    15   ar
    10    15    16   ar
    11    16    17   ar
    12    17    18   ar
    13    18    19   ar
    14     7     8   ar
    15     8     9   ar
    16     9    10   ar
    17    10    11    1
    18    10     5   ar
    19    19    14   ar
    20     1     4    1
@<TRIPOS>MOLECULE
*****
 19 20 0 0 0
SMALL
GASTEIGER

@<TRIPOS>ATOM
      1 N          -8.2368  -17.2642   22.5154 N.am    1  UNL1       -0.2791
      2 C          -9.1929  -18.2680   23.0886 C.2     1  UNL1        0.2672
      3 O          -8.6706  -19.4631   23.8296 O.2     1  UNL1       -0.2682
      4 H          -8.5796  -16.4798   22.0291 H       1  UNL1        0.1552
      5 C          -4.5831  -18.7666   22.1368 C.ar    1  UNL1        0.1504
      6 C          -6.0613  -18.5752   21.9689 C.ar    1  UNL1        0.0524
      7 C          -6.7586  -17.4556   22.6833 C.ar    1  UNL1        0.0537
      8 C          -5.9775  -16.5273   23.5655 C.ar    1  UNL1        0.0157
      9 C          -4.4993  -16.7186   23.7333 C.ar    1  UNL1        0.0157
     10 C          -3.8021  -17.8383   23.0189 C.ar    1  UNL1        0.0916
     11 CL         -2.3238  -18.0296   23.1868 Cl      1  UNL1       -0.0791
     12 C          -4.4729  -20.4537   20.1641 C.3     1  UNL1        0.2525
     13 O          -3.8859  -19.8862   21.4224 O.3     1  UNL1       -0.4705
     14 C         -10.6711  -18.0767   22.9208 C.ar    1  UNL1        0.1348
     15 C         -11.6027  -18.4037   24.0500 C.ar    1  UNL1        0.0238
     16 C         -13.0810  -18.2123   23.8821 C.ar    1  UNL1        0.0033
     17 C         -13.6276  -17.6941   22.5850 C.ar    1  UNL1        0.0207
     18 C         -12.6960  -17.3671   21.4558 C.ar    1  UNL1        0.0990
     19 N         -11.2178  -17.5584   21.6236 N.ar    1  UNL1       -0.2392
@<TRIPOS>BOND
     1    12    13    1
     2    13     5    1
     3     5     6   ar
     4     6     7   ar
     5     7     1    1
     6     1     2   am
     7     2     3    2
     8     2    14    1
     9    14    15   ar
    10    15    16   ar
    11    16    17   ar
    12    17    18   ar
    13    18    19   ar
    14     7     8   ar
    15     8     9   ar
    16     9    10   ar
    17    10    11    1
    18    10     5   ar
    19    19    14   ar
    20     1     4    1
@<TRIPOS>MOLECULE
*****
 19 20 0 0 0
SMALL
GASTEIGER

@<TRIPOS>ATOM
      1 N         -14.0754   -6.7150   19.6014 N.am    1  UNL1       -0.2791
      2 C         -14.8493   -7.2771   18.4459 C.2     1  UNL1        0.2672
      3 O         -14.8766   -6.5475   17.1356 O.2     1  UNL1       -0.2682
      4 H         -14.0575   -7.1939   20.4614 H       1  UNL1        0.1552
      5 C         -11.1559   -4.1407   18.8270 C.ar    1  UNL1        0.1504
      6 C         -11.9026   -5.4324   18.9819 C.ar    1  UNL1        0.0524
      7 C         -13.3288   -5.4232   19.4465 C.ar    1  UNL1        0.0537
      8 C         -14.0083   -4.1224   19.7562 C.ar    1  UNL1        0.0157
      9 C         -13.2617   -2.8307   19.6013 C.ar    1  UNL1        0.0157
     10 C         -11.8355   -2.8399   19.1367 C.ar    1  UNL1        0.0916
     11 CL        -11.0889   -1.5481   18.9818 Cl      1  UNL1       -0.0791
     12 C          -9.4186   -4.1198   16.8954 C.3     1  UNL1        0.2525
     13 O          -9.7297   -4.1498   18.3624 O.3     1  UNL1       -0.4705
     14 C         -15.5959   -8.5689   18.6008 C.ar    1  UNL1        0.1348
     15 C         -16.9336   -8.5853   19.2792 C.ar    1  UNL1        0.0238
     16 C         -17.6802   -9.8771   19.4340 C.ar    1  UNL1        0.0033
     17 C         -17.0891  -11.1524   18.9104 C.ar    1  UNL1        0.0207
     18 C         -15.7514  -11.1359   18.2320 C.ar    1  UNL1        0.0990
     19 N         -15.0048   -9.8442   18.0772 N.ar    1  UNL1       -0.2392
@<TRIPOS>BOND
     1    12    13    1
     2    13     5    1
     3     5     6   ar
     4     6     7   ar
     5     7     1    1
     6     1     2   am
     7     2     3    2
     8     2    14    1
     9    14    15   ar
    10    15    16   ar
    11    16    17   ar
    12    17    18   ar
    13    18    19   ar
    14     7     8   ar
    15     8     9   ar
    16     9    10   ar
    17    10    11    1
    18    10     5   ar
    19    19    14   ar
    20     1     4    1
@<TRIPOS>MOLECULE
*****
 19 20 0 0 0
SMALL
GASTEIGER

@<TRIPOS>ATOM
      1 N         -14.1620   -6.1130   18.0084 N.am    1  UNL1       -0.2791
      2 C         -13.0864   -5.5243   18.8724 C.2     1  UNL1        0.2672
      3 O         -13.2456   -5.5114   20.3639 O.2     1  UNL1       -0.2682
      4 H         -14.0575   -6.1215   17.0295 H       1  UNL1        0.1552
      5 C         -16.7039   -8.7319   19.5672 C.ar    1  UNL1        0.1504
      6 C         -15.4692   -8.1560   18.9397 C.ar    1  UNL1        0.0524
      7 C         -15.3968   -6.6889   18.6359 C.ar    1  UNL1        0.0537
      8 C         -16.5590   -5.7977   18.9596 C.ar    1  UNL1        0.0157
      9 C         -17.7937   -6.3736   19.5871 C.ar    1  UNL1        0.0157
     10 C         -17.8662   -7.8407   19.8909 C.ar    1  UNL1        0.0916
     11 CL        -19.1010   -8.4166   20.5184 Cl      1  UNL1       -0.0791
     12 C         -17.0217  -11.1827   18.7655 C.3     1  UNL1        0.2525
     13 O         -16.7764  -10.1990   19.8710 O.3     1  UNL1       -0.4705
     14 C         -11.8516   -4.9484   18.2450 C.ar    1  UNL1        0.1348
     15 C         -10.6808   -5.8356   17.9417 C.ar    1  UNL1        0.0238
     16 C          -9.4460   -5.2597   17.3142 C.ar    1  UNL1        0.0033
     17 C          -9.3821   -3.7966   16.9900 C.ar    1  UNL1        0.0207
     18 C         -10.5529   -2.9093   17.2933 C.ar    1  UNL1        0.0990
     19 N         -11.7877   -3.4852   17.9207 N.ar    1  UNL1       -0.2392
@<TRIPOS>BOND
     1    12    13    1
     2    13     5    1
     3     5     6   ar
     4     6     7   ar
     5     7     1    1
     6     1     2   am
     7     2     3    2
     8     2    14    1
     9    14    15   ar
    10    15    16   ar
    11    16    17   ar
    12    17    18   ar
    13    18    19   ar
    14     7     8   ar
    15     8     9   ar
    16     9    10   ar
    17    10    11    1
    18    10     5   ar
    19    19    14   ar
    20     1     4    1
