@<TRIPOS>MOLECULE
*****
 29 32 0 0 0
SMALL
GASTEIGER

@<TRIPOS>ATOM
      1 C         -13.5770   -5.1898   18.4288 C.2     1  UNL1        0.0196
      2 C         -14.0289   -3.7639   18.3161 C.2     1  UNL1        0.0145
      3 C         -13.0302   -2.6499   18.4241 C.3     1  UNL1        0.1542
      4 C         -14.4807   -2.3380   18.2035 C.3     1  UNL1        0.0614
      5 C         -14.9325   -0.9122   18.0908 C.3     1  UNL1        0.0725
      6 N         -13.9338    0.2018   18.1988 N.3     1  UNL1       -0.2972
      7 C         -12.4833   -0.1101   18.4193 C.3     1  UNL1        0.0725
      8 C         -12.0315   -1.5359   18.5320 C.3     1  UNL1        0.0614
      9 O         -11.5796   -2.9619   18.6446 O.3     1  UNL1       -0.4785
     10 C         -11.1278   -4.3877   18.7573 C.ar    1  UNL1        0.1386
     11 C          -9.6772   -4.6997   18.9779 C.ar    1  UNL1        0.0369
     12 C          -9.2254   -6.1255   19.0905 C.ar    1  UNL1        0.0031
     13 C         -10.2241   -7.2395   18.9826 C.ar    1  UNL1        0.0002
     14 C         -11.6746   -6.9276   18.7620 C.ar    1  UNL1        0.0031
     15 C         -12.1265   -5.5017   18.6494 C.ar    1  UNL1        0.0352
     16 H         -14.2306    0.7888   18.9783 H       1  UNL1        0.1233
     17 C         -16.5731   -8.5318   18.1050 C.ar    1  UNL1        0.0727
     18 C         -16.3816   -7.8201   19.4115 C.ar    1  UNL1        0.0076
     19 C         -15.3829   -6.7062   19.5194 C.ar    1  UNL1        0.0193
     20 C         -14.5757   -6.3038   18.3209 C.ar    1  UNL1        0.0812
     21 N         -14.7672   -7.0155   17.0143 N.ar    1  UNL1       -0.2437
     22 C         -15.7659   -8.1295   16.9064 C.ar    1  UNL1        0.1033
     23 N         -18.9892   -9.3472   17.6077 N.am    1  UNL1       -0.2760
     24 C         -17.5718   -9.6458   17.9971 C.2     1  UNL1        0.2505
     25 O         -17.1530  -11.0584   18.2787 O.2     1  UNL1       -0.2699
     26 C         -20.4148  -10.9577   16.1502 C.3     1  UNL1        0.0233
     27 C         -19.9879  -10.4612   17.4998 C.3     1  UNL1        0.0938
     28 C         -19.4080   -7.9346   17.3262 C.3     1  UNL1        0.0938
     29 C         -20.0379   -7.1091   18.4087 C.3     1  UNL1        0.0233
@<TRIPOS>BOND
     1    26    27    1
     2    27    23    1
     3    23    28    1
     4    28    29    1
     5    23    24   am
     6    24    25    2
     7    24    17    1
     8    17    18   ar
     9    18    19   ar
    10    19    20   ar
    11    20     1    1
    12     1     2    2
    13     2     3    1
    14     3     4    1
    15     4     5    1
    16     5     6    1
    17     6     7    1
    18     7     8    1
    19     3     9    1
    20     9    10    1
    21    10    11   ar
    22    11    12   ar
    23    12    13   ar
    24    13    14   ar
    25    14    15   ar
    26    20    21   ar
    27    21    22   ar
    28    22    17   ar
    29    15     1    1
    30     8     3    1
    31    15    10   ar
    32     6    16    1
@<TRIPOS>MOLECULE
*****
 29 32 0 0 0
SMALL
GASTEIGER

@<TRIPOS>ATOM
      1 C          -7.6083  -17.2091   22.9957 C.2     1  UNL1        0.0196
      2 C          -8.8166  -17.4487   22.1398 C.2     1  UNL1        0.0145
      3 C         -10.1663  -16.9843   22.6008 C.3     1  UNL1        0.1542
      4 C         -10.0249  -17.6883   21.2839 C.3     1  UNL1        0.0614
      5 C         -11.2332  -17.9279   20.4281 C.3     1  UNL1        0.0725
      6 N         -12.5830  -17.4635   20.8891 N.3     1  UNL1       -0.2972
      7 C         -12.7244  -16.7595   22.2061 C.3     1  UNL1        0.0725
      8 C         -11.5161  -16.5199   23.0619 C.3     1  UNL1        0.0614
      9 O         -10.3077  -16.2803   23.9179 O.3     1  UNL1       -0.4785
     10 C          -9.0994  -16.0407   24.7737 C.ar    1  UNL1        0.1386
     11 C          -9.2408  -15.3367   26.0907 C.ar    1  UNL1        0.0369
     12 C          -8.0325  -15.0971   26.9466 C.ar    1  UNL1        0.0031
     13 C          -6.6827  -15.5615   26.4855 C.ar    1  UNL1        0.0002
     14 C          -6.5413  -16.2655   25.1686 C.ar    1  UNL1        0.0031
     15 C          -7.7497  -16.5051   24.3126 C.ar    1  UNL1        0.0352
     16 H         -13.1800  -18.2895   20.9312 H       1  UNL1        0.1233
     17 C          -3.5591  -18.6022   21.6124 C.ar    1  UNL1        0.0727
     18 C          -4.8004  -19.2286   21.0496 C.ar    1  UNL1        0.0076
     19 C          -6.1501  -18.7642   21.5107 C.ar    1  UNL1        0.0193
     20 C          -6.2585  -17.6735   22.5346 C.ar    1  UNL1        0.0812
     21 N          -5.0172  -17.0470   23.0975 N.ar    1  UNL1       -0.2437
     22 C          -3.6675  -17.5114   22.6364 C.ar    1  UNL1        0.1033
     23 N          -1.4226  -18.2378   20.1797 N.am    1  UNL1       -0.2760
     24 C          -2.2094  -19.0666   21.1513 C.2     1  UNL1        0.2505
     25 O          -1.6464  -20.3599   21.6619 O.2     1  UNL1       -0.2699
     26 C           1.1562  -17.9320   20.1011 C.3     1  UNL1        0.0233
     27 C          -0.0729  -18.7021   19.7187 C.3     1  UNL1        0.0938
     28 C          -1.9856  -16.9445   19.6692 C.3     1  UNL1        0.0938
     29 C          -2.8031  -16.9268   18.4117 C.3     1  UNL1        0.0233
@<TRIPOS>BOND
     1    26    27    1
     2    27    23    1
     3    23    28    1
     4    28    29    1
     5    23    24   am
     6    24    25    2
     7    24    17    1
     8    17    18   ar
     9    18    19   ar
    10    19    20   ar
    11    20     1    1
    12     1     2    2
    13     2     3    1
    14     3     4    1
    15     4     5    1
    16     5     6    1
    17     6     7    1
    18     7     8    1
    19     3     9    1
    20     9    10    1
    21    10    11   ar
    22    11    12   ar
    23    12    13   ar
    24    13    14   ar
    25    14    15   ar
    26    20    21   ar
    27    21    22   ar
    28    22    17   ar
    29    15     1    1
    30     8     3    1
    31    15    10   ar
    32     6    16    1
@<TRIPOS>MOLECULE
*****
 29 32 0 0 0
SMALL
GASTEIGER

@<TRIPOS>ATOM
      1 C         -13.9578   -4.8776   18.6487 C.2     1  UNL1        0.0196
      2 C         -15.0331   -5.9057   18.4567 C.2     1  UNL1        0.0145
      3 C         -14.6733   -7.3591   18.3654 C.3     1  UNL1        0.1542
      4 C         -16.1082   -6.9339   18.2648 C.3     1  UNL1        0.0614
      5 C         -17.1834   -7.9620   18.0728 C.3     1  UNL1        0.0725
      6 N         -16.8236   -9.4154   17.9815 N.3     1  UNL1       -0.2972
      7 C         -15.3887   -9.8406   18.0821 C.3     1  UNL1        0.0725
      8 C         -14.3136   -8.8124   18.2741 C.3     1  UNL1        0.0614
      9 O         -13.2383   -7.7843   18.4660 O.3     1  UNL1       -0.4785
     10 C         -12.1631   -6.7561   18.6580 C.ar    1  UNL1        0.1386
     11 C         -10.7281   -7.1813   18.7587 C.ar    1  UNL1        0.0369
     12 C          -9.6530   -6.1532   18.9506 C.ar    1  UNL1        0.0031
     13 C         -10.0127   -4.6998   19.0420 C.ar    1  UNL1        0.0002
     14 C         -11.4476   -4.2746   18.9413 C.ar    1  UNL1        0.0031
     15 C         -12.5229   -5.3028   18.7494 C.ar    1  UNL1        0.0352
     16 H         -17.1666   -9.7475   17.0801 H       1  UNL1        0.1233
     17 C         -15.0370   -0.5175   18.9227 C.ar    1  UNL1        0.0727
     18 C         -15.0966   -1.3832   20.1462 C.ar    1  UNL1        0.0076
     19 C         -14.7368   -2.8365   20.0549 C.ar    1  UNL1        0.0193
     20 C         -14.3175   -3.4242   18.7401 C.ar    1  UNL1        0.0812
     21 N         -14.2580   -2.5585   17.5165 N.ar    1  UNL1       -0.2437
     22 C         -14.6178   -1.1051   17.6078 C.ar    1  UNL1        0.1033
     23 N         -16.8372    1.3541   19.0030 N.am    1  UNL1       -0.2760
     24 C         -15.3968    0.9359   19.0141 C.2     1  UNL1        0.2505
     25 O         -14.3160    1.9710   19.1165 O.2     1  UNL1       -0.2699
     26 C         -17.2831    3.4760   20.4344 C.3     1  UNL1        0.0233
     27 C         -17.1970    2.8074   19.0943 C.3     1  UNL1        0.0938
     28 C         -17.9180    0.3189   18.9006 C.3     1  UNL1        0.0938
     29 C         -18.6182   -0.1593   20.1379 C.3     1  UNL1        0.0233
@<TRIPOS>BOND
     1    26    27    1
     2    27    23    1
     3    23    28    1
     4    28    29    1
     5    23    24   am
     6    24    25    2
     7    24    17    1
     8    17    18   ar
     9    18    19   ar
    10    19    20   ar
    11    20     1    1
    12     1     2    2
    13     2     3    1
    14     3     4    1
    15     4     5    1
    16     5     6    1
    17     6     7    1
    18     7     8    1
    19     3     9    1
    20     9    10    1
    21    10    11   ar
    22    11    12   ar
    23    12    13   ar
    24    13    14   ar
    25    14    15   ar
    26    20    21   ar
    27    21    22   ar
    28    22    17   ar
    29    15     1    1
    30     8     3    1
    31    15    10   ar
    32     6    16    1
@<TRIPOS>MOLECULE
*****
 29 32 0 0 0
SMALL
GASTEIGER

@<TRIPOS>ATOM
      1 C           7.2501   -4.1772   24.3962 C.2     1  UNL1        0.0196
      2 C           6.7654   -3.4558   25.6188 C.2     1  UNL1        0.0145
      3 C           7.0426   -4.0190   26.9811 C.3     1  UNL1        0.1542
      4 C           6.2807   -2.7345   26.8413 C.3     1  UNL1        0.0614
      5 C           5.7960   -2.0132   28.0639 C.3     1  UNL1        0.0725
      6 N           6.0732   -2.5763   29.4262 N.3     1  UNL1       -0.2972
      7 C           6.8351   -3.8608   29.5660 C.3     1  UNL1        0.0725
      8 C           7.3198   -4.5821   28.3435 C.3     1  UNL1        0.0614
      9 O           7.8045   -5.3035   27.1209 O.3     1  UNL1       -0.4785
     10 C           8.2892   -6.0248   25.8983 C.ar    1  UNL1        0.1386
     11 C           9.0512   -7.3094   26.0381 C.ar    1  UNL1        0.0369
     12 C           9.5359   -8.0307   24.8155 C.ar    1  UNL1        0.0031
     13 C           9.2587   -7.4676   23.4532 C.ar    1  UNL1        0.0002
     14 C           8.4968   -6.1831   23.3134 C.ar    1  UNL1        0.0031
     15 C           8.0120   -5.4617   24.5360 C.ar    1  UNL1        0.0352
     16 H           5.1686   -2.7202   29.8750 H       1  UNL1        0.1233
     17 C           6.4185   -2.4878   20.3091 C.ar    1  UNL1        0.0727
     18 C           7.4905   -1.8833   21.1666 C.ar    1  UNL1        0.0076
     19 C           7.7677   -2.4464   22.5290 C.ar    1  UNL1        0.0193
     20 C           6.9729   -3.6141   23.0338 C.ar    1  UNL1        0.0812
     21 N           5.9009   -4.2187   22.1763 N.ar    1  UNL1       -0.2437
     22 C           5.6236   -3.6555   20.8139 C.ar    1  UNL1        0.1033
     23 N           5.0676   -0.8929   18.7659 N.am    1  UNL1       -0.2760
     24 C           6.1413   -1.9247   18.9467 C.2     1  UNL1        0.2505
     25 O           6.9378   -2.3933   17.7652 O.2     1  UNL1       -0.2699
     26 C           3.6548   -0.8698   16.5856 C.3     1  UNL1        0.0233
     27 C           4.7904   -0.3298   17.4035 C.3     1  UNL1        0.0938
     28 C           4.2711   -0.4243   19.9474 C.3     1  UNL1        0.0938
     29 C           2.9555   -1.0694   20.2686 C.3     1  UNL1        0.0233
@<TRIPOS>BOND
     1    26    27    1
     2    27    23    1
     3    23    28    1
     4    28    29    1
     5    23    24   am
     6    24    25    2
     7    24    17    1
     8    17    18   ar
     9    18    19   ar
    10    19    20   ar
    11    20     1    1
    12     1     2    2
    13     2     3    1
    14     3     4    1
    15     4     5    1
    16     5     6    1
    17     6     7    1
    18     7     8    1
    19     3     9    1
    20     9    10    1
    21    10    11   ar
    22    11    12   ar
    23    12    13   ar
    24    13    14   ar
    25    14    15   ar
    26    20    21   ar
    27    21    22   ar
    28    22    17   ar
    29    15     1    1
    30     8     3    1
    31    15    10   ar
    32     6    16    1
@<TRIPOS>MOLECULE
*****
 29 32 0 0 0
SMALL
GASTEIGER

@<TRIPOS>ATOM
      1 C           2.3509   -0.0280   22.5241 C.2     1  UNL1        0.0196
      2 C           3.2044   -1.2551   22.3979 C.2     1  UNL1        0.0145
      3 C           3.4854   -1.8373   21.0444 C.3     1  UNL1        0.1542
      4 C           4.0578   -2.4821   22.2717 C.3     1  UNL1        0.0614
      5 C           4.9113   -3.7092   22.1455 C.3     1  UNL1        0.0725
      6 N           5.1923   -4.2914   20.7920 N.3     1  UNL1       -0.2972
      7 C           4.6198   -3.6465   19.5646 C.3     1  UNL1        0.0725
      8 C           3.7664   -2.4195   19.6908 C.3     1  UNL1        0.0614
      9 O           2.9128   -1.1924   19.8170 O.3     1  UNL1       -0.4785
     10 C           2.0594    0.0346   19.9432 C.ar    1  UNL1        0.1386
     11 C           1.4869    0.6795   18.7158 C.ar    1  UNL1        0.0369
     12 C           0.6334    1.9065   18.8420 C.ar    1  UNL1        0.0031
     13 C           0.3524    2.4887   20.1956 C.ar    1  UNL1        0.0002
     14 C           0.9249    1.8439   21.4229 C.ar    1  UNL1        0.0031
     15 C           1.7784    0.6168   21.2967 C.ar    1  UNL1        0.0352
     16 H           4.8489   -5.2517   20.8074 H       1  UNL1        0.1233
     17 C           1.5079    1.7186   26.5847 C.ar    1  UNL1        0.0727
     18 C           0.3902    1.5314   25.6021 C.ar    1  UNL1        0.0076
     19 C           0.6712    0.9492   24.2485 C.ar    1  UNL1        0.0193
     20 C           2.0699    0.5542   23.8776 C.ar    1  UNL1        0.0812
     21 N           3.1877    0.7413   24.8603 N.ar    1  UNL1       -0.2437
     22 C           2.9067    1.3235   26.2139 C.ar    1  UNL1        0.1033
     23 N           0.6535    1.4367   29.0220 N.am    1  UNL1       -0.2760
     24 C           1.2269    2.3007   27.9383 C.2     1  UNL1        0.2505
     25 O           1.5193    3.7471   28.2080 O.2     1  UNL1       -0.2699
     26 C           1.3851    1.8855   31.4743 C.3     1  UNL1        0.0233
     27 C           0.3726    2.0189   30.3756 C.3     1  UNL1        0.0938
     28 C           0.3611   -0.0096   28.7523 C.3     1  UNL1        0.0938
     29 C          -1.0570   -0.4981   28.7381 C.3     1  UNL1        0.0233
@<TRIPOS>BOND
     1    26    27    1
     2    27    23    1
     3    23    28    1
     4    28    29    1
     5    23    24   am
     6    24    25    2
     7    24    17    1
     8    17    18   ar
     9    18    19   ar
    10    19    20   ar
    11    20     1    1
    12     1     2    2
    13     2     3    1
    14     3     4    1
    15     4     5    1
    16     5     6    1
    17     6     7    1
    18     7     8    1
    19     3     9    1
    20     9    10    1
    21    10    11   ar
    22    11    12   ar
    23    12    13   ar
    24    13    14   ar
    25    14    15   ar
    26    20    21   ar
    27    21    22   ar
    28    22    17   ar
    29    15     1    1
    30     8     3    1
    31    15    10   ar
    32     6    16    1
@<TRIPOS>MOLECULE
*****
 29 32 0 0 0
SMALL
GASTEIGER

@<TRIPOS>ATOM
      1 C         -16.6486   -1.8275   19.8142 C.2     1  UNL1        0.0196
      2 C         -16.7693   -0.3702   20.1488 C.2     1  UNL1        0.0145
      3 C         -18.1198    0.2324   20.3992 C.3     1  UNL1        0.1542
      4 C         -16.8900    1.0870   20.4834 C.3     1  UNL1        0.0614
      5 C         -17.0107    2.5441   20.8180 C.3     1  UNL1        0.0725
      6 N         -18.3613    3.1468   21.0684 N.3     1  UNL1       -0.2972
      7 C         -19.5911    2.2923   20.9842 C.3     1  UNL1        0.0725
      8 C         -19.4704    0.8351   20.6496 C.3     1  UNL1        0.0614
      9 O         -19.3498   -0.6222   20.3150 O.3     1  UNL1       -0.4785
     10 C         -19.2291   -2.0793   19.9804 C.ar    1  UNL1        0.1386
     11 C         -20.4590   -2.9339   19.8961 C.ar    1  UNL1        0.0369
     12 C         -20.3383   -4.3911   19.5615 C.ar    1  UNL1        0.0031
     13 C         -18.9877   -4.9938   19.3111 C.ar    1  UNL1        0.0002
     14 C         -17.7578   -4.1393   19.3953 C.ar    1  UNL1        0.0031
     15 C         -17.8785   -2.6820   19.7300 C.ar    1  UNL1        0.0352
     16 H         -18.4784    3.8991   20.3897 H       1  UNL1        0.1233
     17 C         -12.5968   -3.6355   19.0630 C.ar    1  UNL1        0.0727
     18 C         -13.1091   -3.4998   20.4662 C.ar    1  UNL1        0.0076
     19 C         -14.4597   -2.8972   20.7166 C.ar    1  UNL1        0.0193
     20 C         -15.2980   -2.4302   19.5638 C.ar    1  UNL1        0.0812
     21 N         -14.7857   -2.5658   18.1604 N.ar    1  UNL1       -0.2437
     22 C         -13.4351   -3.1684   17.9100 C.ar    1  UNL1        0.1033
     23 N         -11.0788   -5.7287   18.8102 N.am    1  UNL1       -0.2760
     24 C         -11.2462   -4.2381   18.8126 C.2     1  UNL1        0.2505
     25 O         -10.0630   -3.3501   18.5645 O.2     1  UNL1       -0.2699
     26 C          -9.5197   -7.8058   18.7407 C.3     1  UNL1        0.0233
     27 C          -9.7282   -6.3314   18.5598 C.3     1  UNL1        0.0938
     28 C         -12.2621   -6.6168   19.0582 C.3     1  UNL1        0.0938
     29 C         -13.0810   -7.1148   17.9044 C.3     1  UNL1        0.0233
@<TRIPOS>BOND
     1    26    27    1
     2    27    23    1
     3    23    28    1
     4    28    29    1
     5    23    24   am
     6    24    25    2
     7    24    17    1
     8    17    18   ar
     9    18    19   ar
    10    19    20   ar
    11    20     1    1
    12     1     2    2
    13     2     3    1
    14     3     4    1
    15     4     5    1
    16     5     6    1
    17     6     7    1
    18     7     8    1
    19     3     9    1
    20     9    10    1
    21    10    11   ar
    22    11    12   ar
    23    12    13   ar
    24    13    14   ar
    25    14    15   ar
    26    20    21   ar
    27    21    22   ar
    28    22    17   ar
    29    15     1    1
    30     8     3    1
    31    15    10   ar
    32     6    16    1
@<TRIPOS>MOLECULE
*****
 29 32 0 0 0
SMALL
GASTEIGER

@<TRIPOS>ATOM
      1 C         -14.5052   -4.0242   18.9944 C.2     1  UNL1        0.0196
      2 C         -13.0128   -4.1562   18.9195 C.2     1  UNL1        0.0145
      3 C         -12.3754   -5.5123   18.9884 C.3     1  UNL1        0.1542
      4 C         -11.5205   -4.2882   18.8445 C.3     1  UNL1        0.0614
      5 C         -10.0283   -4.4202   18.7696 C.3     1  UNL1        0.0725
      6 N          -9.3909   -5.7763   18.8385 N.3     1  UNL1       -0.2972
      7 C         -10.2458   -7.0004   18.9823 C.3     1  UNL1        0.0725
      8 C         -11.7380   -6.8684   19.0573 C.3     1  UNL1        0.0614
      9 O         -13.2304   -6.7364   19.1322 O.3     1  UNL1       -0.4785
     10 C         -14.7227   -6.6044   19.2072 C.ar    1  UNL1        0.1386
     11 C         -15.5776   -7.8285   19.3510 C.ar    1  UNL1        0.0369
     12 C         -17.0699   -7.6965   19.4259 C.ar    1  UNL1        0.0031
     13 C         -17.7073   -6.3404   19.3570 C.ar    1  UNL1        0.0002
     14 C         -16.8524   -5.1163   19.2132 C.ar    1  UNL1        0.0031
     15 C         -15.3600   -5.2483   19.1383 C.ar    1  UNL1        0.0352
     16 H          -8.7577   -5.7638   19.6380 H       1  UNL1        0.1233
     17 C         -16.4173    0.0441   18.7877 C.ar    1  UNL1        0.0727
     18 C         -15.9647   -0.5057   20.1079 C.ar    1  UNL1        0.0076
     19 C         -15.3273   -1.8618   20.1768 C.ar    1  UNL1        0.0193
     20 C         -15.1425   -2.6681   18.9255 C.ar    1  UNL1        0.0812
     21 N         -15.5952   -2.1184   17.6053 N.ar    1  UNL1       -0.2437
     22 C         -16.2325   -0.7623   17.5364 C.ar    1  UNL1        0.1033
     23 N         -18.5407    1.5389   18.8682 N.am    1  UNL1       -0.2760
     24 C         -17.0547    1.4002   18.7189 C.2     1  UNL1        0.2505
     25 O         -16.2059    2.6176   18.5006 O.2     1  UNL1       -0.2699
     26 C         -19.5440    3.6168   20.0623 C.3     1  UNL1        0.0233
     27 C         -19.1781    2.8950   18.7993 C.3     1  UNL1        0.0938
     28 C         -19.3895    0.3214   19.0864 C.3     1  UNL1        0.0938
     29 C         -19.7141   -0.1264   20.4807 C.3     1  UNL1        0.0233
@<TRIPOS>BOND
     1    26    27    1
     2    27    23    1
     3    23    28    1
     4    28    29    1
     5    23    24   am
     6    24    25    2
     7    24    17    1
     8    17    18   ar
     9    18    19   ar
    10    19    20   ar
    11    20     1    1
    12     1     2    2
    13     2     3    1
    14     3     4    1
    15     4     5    1
    16     5     6    1
    17     6     7    1
    18     7     8    1
    19     3     9    1
    20     9    10    1
    21    10    11   ar
    22    11    12   ar
    23    12    13   ar
    24    13    14   ar
    25    14    15   ar
    26    20    21   ar
    27    21    22   ar
    28    22    17   ar
    29    15     1    1
    30     8     3    1
    31    15    10   ar
    32     6    16    1
@<TRIPOS>MOLECULE
*****
 29 32 0 0 0
SMALL
GASTEIGER

@<TRIPOS>ATOM
      1 C           0.0864    2.0095   22.1387 C.2     1  UNL1        0.0196
      2 C           0.1587    1.8105   23.6237 C.2     1  UNL1        0.0145
      3 C          -0.7759    2.5592   24.5271 C.3     1  UNL1        0.1542
      4 C           0.2309    1.6116   25.1086 C.3     1  UNL1        0.0614
      5 C           0.3031    1.4126   26.5936 C.3     1  UNL1        0.0725
      6 N          -0.6314    2.1613   27.4970 N.3     1  UNL1       -0.2972
      7 C          -1.6382    3.1089   26.9154 C.3     1  UNL1        0.0725
      8 C          -1.7105    3.3079   25.4304 C.3     1  UNL1        0.0614
      9 O          -1.7828    3.5069   23.9454 O.3     1  UNL1       -0.4785
     10 C          -1.8550    3.7058   22.4604 C.ar    1  UNL1        0.1386
     11 C          -2.8618    4.6535   21.8788 C.ar    1  UNL1        0.0369
     12 C          -2.9341    4.8525   20.3938 C.ar    1  UNL1        0.0031
     13 C          -1.9995    4.1038   19.4904 C.ar    1  UNL1        0.0002
     14 C          -0.9927    3.1561   20.0720 C.ar    1  UNL1        0.0031
     15 C          -0.9204    2.9571   21.5571 C.ar    1  UNL1        0.0352
     16 H          -0.0511    2.7042   28.1363 H       1  UNL1        0.1233
     17 C           2.8901   -0.2365   19.4285 C.ar    1  UNL1        0.0727
     18 C           1.5621   -0.8312   19.7928 C.ar    1  UNL1        0.0076
     19 C           0.6275   -0.0825   20.6962 C.ar    1  UNL1        0.0193
     20 C           1.0209    1.2608   21.2353 C.ar    1  UNL1        0.0812
     21 N           2.3490    1.8556   20.8710 N.ar    1  UNL1       -0.2437
     22 C           3.2836    1.1069   19.9676 C.ar    1  UNL1        0.1033
     23 N           4.8164   -1.9495   19.1051 N.am    1  UNL1       -0.2760
     24 C           3.8246   -0.9852   18.5252 C.2     1  UNL1        0.2505
     25 O           3.7673   -0.7695   17.0418 O.2     1  UNL1       -0.2699
     26 C           7.2063   -2.3365   18.1622 C.3     1  UNL1        0.0233
     27 C           5.7510   -2.6982   18.2017 C.3     1  UNL1        0.0938
     28 C           4.8738   -2.1652   20.5884 C.3     1  UNL1        0.0938
     29 C           4.5368   -3.5085   21.1646 C.3     1  UNL1        0.0233
@<TRIPOS>BOND
     1    26    27    1
     2    27    23    1
     3    23    28    1
     4    28    29    1
     5    23    24   am
     6    24    25    2
     7    24    17    1
     8    17    18   ar
     9    18    19   ar
    10    19    20   ar
    11    20     1    1
    12     1     2    2
    13     2     3    1
    14     3     4    1
    15     4     5    1
    16     5     6    1
    17     6     7    1
    18     7     8    1
    19     3     9    1
    20     9    10    1
    21    10    11   ar
    22    11    12   ar
    23    12    13   ar
    24    13    14   ar
    25    14    15   ar
    26    20    21   ar
    27    21    22   ar
    28    22    17   ar
    29    15     1    1
    30     8     3    1
    31    15    10   ar
    32     6    16    1
@<TRIPOS>MOLECULE
*****
 29 32 0 0 0
SMALL
GASTEIGER

@<TRIPOS>ATOM
      1 C         -14.4734   -4.0334   18.9923 C.2     1  UNL1        0.0196
      2 C         -12.9803   -4.1567   18.9172 C.2     1  UNL1        0.0145
      3 C         -12.3350   -5.5090   18.9871 C.3     1  UNL1        0.1542
      4 C         -11.4873   -4.2801   18.8422 C.3     1  UNL1        0.0614
      5 C          -9.9943   -4.4034   18.7672 C.3     1  UNL1        0.0725
      6 N          -9.3490   -5.7557   18.8370 N.3     1  UNL1       -0.2972
      7 C         -10.1967   -6.9847   18.9819 C.3     1  UNL1        0.0725
      8 C         -11.6897   -6.8613   19.0569 C.3     1  UNL1        0.0614
      9 O         -13.1828   -6.7380   19.1320 O.3     1  UNL1       -0.4785
     10 C         -14.6758   -6.6146   19.2070 C.ar    1  UNL1        0.1386
     11 C         -15.5236   -7.8436   19.3519 C.ar    1  UNL1        0.0369
     12 C         -17.0166   -7.7203   19.4269 C.ar    1  UNL1        0.0031
     13 C         -17.6619   -6.3680   19.3571 C.ar    1  UNL1        0.0002
     14 C         -16.8142   -5.1390   19.2122 C.ar    1  UNL1        0.0031
     15 C         -15.3211   -5.2623   19.1371 C.ar    1  UNL1        0.0352
     16 H          -8.7158   -5.7389   19.6365 H       1  UNL1        0.1233
     17 C         -16.4093    0.0235   18.7827 C.ar    1  UNL1        0.0727
     18 C         -16.2043   -0.7753   17.5298 C.ar    1  UNL1        0.0076
     19 C         -15.5590   -2.1276   17.5996 C.ar    1  UNL1        0.0193
     20 C         -15.1187   -2.6811   18.9224 C.ar    1  UNL1        0.0812
     21 N         -15.3237   -1.8823   20.1754 N.ar    1  UNL1       -0.2437
     22 C         -15.9690   -0.5300   20.1055 C.ar    1  UNL1        0.1033
     23 N         -16.2208    2.5912   18.4347 N.am    1  UNL1       -0.2760
     24 C         -17.0546    1.3758   18.7128 C.2     1  UNL1        0.2505
     25 O         -18.5338    1.5126   18.9211 O.2     1  UNL1       -0.2699
     26 C         -16.8061    4.8651   19.5469 C.3     1  UNL1        0.0233
     27 C         -16.8661    3.9435   18.3648 C.3     1  UNL1        0.0938
     28 C         -14.7416    2.4544   18.2264 C.3     1  UNL1        0.0938
     29 C         -14.1521    2.6767   16.8652 C.3     1  UNL1        0.0233
@<TRIPOS>BOND
     1    26    27    1
     2    27    23    1
     3    23    28    1
     4    28    29    1
     5    23    24   am
     6    24    25    2
     7    24    17    1
     8    17    18   ar
     9    18    19   ar
    10    19    20   ar
    11    20     1    1
    12     1     2    2
    13     2     3    1
    14     3     4    1
    15     4     5    1
    16     5     6    1
    17     6     7    1
    18     7     8    1
    19     3     9    1
    20     9    10    1
    21    10    11   ar
    22    11    12   ar
    23    12    13   ar
    24    13    14   ar
    25    14    15   ar
    26    20    21   ar
    27    21    22   ar
    28    22    17   ar
    29    15     1    1
    30     8     3    1
    31    15    10   ar
    32     6    16    1
