@<TRIPOS>MOLECULE
*****
 39 42 0 0 0
SMALL
GASTEIGER

@<TRIPOS>ATOM
      1 C           6.6336   -2.9879   25.7717 C.2     1  UNL1        0.2485
      2 O           7.1617   -1.6822   25.2556 O.2     1  UNL1       -0.2726
      3 N           5.7731   -3.8482   24.8944 N.am    1  UNL1       -0.2823
      4 H           5.4265   -4.7051   25.2331 H       1  UNL1        0.1549
      5 C           9.1403   -6.8080   27.0980 C.3     1  UNL1        0.0949
      6 C           8.3660   -5.6334   26.5777 C.2     1  UNL1        0.2269
      7 O           8.1953   -5.4430   25.0997 O.2     1  UNL1       -0.2748
      8 N           7.7623   -4.6493   27.5354 N.am    1  UNL1       -0.2655
      9 C           7.8489   -4.7084   29.0317 C.3     1  UNL1        0.1206
     10 C           7.1062   -3.5289   29.5860 C.ar    1  UNL1       -0.0030
     11 C           6.8563   -3.0708   30.9922 C.ar    1  UNL1        0.0155
     12 C           6.0607   -1.8245   31.2447 C.ar    1  UNL1        0.1053
     13 C           5.5151   -1.0364   30.0909 C.ar    1  UNL1        0.0181
     14 C           5.7650   -1.4946   28.6847 C.ar    1  UNL1       -0.0011
     15 C           6.5606   -2.7409   28.4322 C.ar    1  UNL1        0.0022
     16 C           6.9661   -3.4333   27.1649 C.3     1  UNL1        0.1750
     17 S           5.8108   -1.3662   32.6510 S.O2    1  UNL1        0.0070
     18 O           6.3335   -0.0047   32.3003 O.2     1  UNL1       -0.1687
     19 O           5.2880   -2.7277   33.0017 O.2     1  UNL1       -0.1687
     20 C           5.5608   -0.9080   34.0572 C.3     1  UNL1        0.1339
     21 C           4.6049   -0.5630   35.1605 C.3     1  UNL1        0.0257
     22 C           6.0836   -0.4595   35.3897 C.3     1  UNL1        0.0257
     23 C           5.4407   -3.4027   23.5012 C.ar    1  UNL1        0.0503
     24 C           6.2470   -3.9054   22.3406 C.ar    1  UNL1        0.0144
     25 C           5.9146   -3.4600   20.9474 C.ar    1  UNL1       -0.0002
     26 C           4.7758   -2.5119   20.7148 C.ar    1  UNL1        0.0182
     27 C           3.9694   -2.0092   21.8755 C.ar    1  UNL1       -0.0002
     28 C           4.3019   -2.4546   23.2687 C.ar    1  UNL1        0.0144
     29 C           4.4433   -2.0664   19.3216 C.3     1  UNL1        0.2827
     30 O           5.2435   -0.8150   19.5307 O.3     1  UNL1       -0.3692
     31 H           5.2132   -0.2737   18.7263 H       1  UNL1        0.2112
     32 C           4.1107   -1.6210   17.9284 C.3     1  UNL1        0.4311
     33 F           3.7782   -1.1756   16.5352 F       1  UNL1       -0.1669
     34 F           3.0408   -0.7208   18.4716 F       1  UNL1       -0.1669
     35 F           4.7138   -2.1165   17.5097 F       1  UNL1       -0.1669
     36 C           3.6431   -3.3178   19.1126 C.3     1  UNL1        0.4311
     37 F           2.8428   -4.5691   18.9035 F       1  UNL1       -0.1669
     38 F           2.8880   -3.0242   19.4707 F       1  UNL1       -0.1669
     39 F           4.6040   -4.2558   18.4441 F       1  UNL1       -0.1669
@<TRIPOS>BOND
     1     5     6    1
     2     6     7    2
     3     6     8   am
     4     8     9    1
     5     9    10    1
     6    10    11   ar
     7    11    12   ar
     8    12    17    1
     9    17    18    2
    10    17    19    2
    11    17    20    1
    12    20    21    1
    13    21    22    1
    14    12    13   ar
    15    13    14   ar
    16    14    15   ar
    17    15    16    1
    18    16     1    1
    19     1     2    2
    20     1     3   am
    21     3    23    1
    22    23    24   ar
    23    24    25   ar
    24    25    26   ar
    25    26    29    1
    26    29    30    1
    27    29    32    1
    28    32    33    1
    29    32    34    1
    30    32    35    1
    31    29    36    1
    32    36    37    1
    33    36    38    1
    34    36    39    1
    35    26    27   ar
    36    27    28   ar
    37    16     8    1
    38    28    23   ar
    39    15    10   ar
    40    22    20    1
    41     3     4    1
    42    30    31    1
@<TRIPOS>MOLECULE
*****
 39 42 0 0 0
SMALL
GASTEIGER

@<TRIPOS>ATOM
      1 C          -0.5596    2.8103   20.4925 C.2     1  UNL1        0.2485
      2 O           0.7412    3.4389   20.8957 O.2     1  UNL1       -0.2726
      3 N          -0.5841    1.4015   19.9778 N.am    1  UNL1       -0.2823
      4 H          -1.4378    0.9888   19.7132 H       1  UNL1        0.1549
      5 C          -3.1204    4.7408   16.9780 C.3     1  UNL1        0.0949
      6 C          -2.2442    4.0968   18.0112 C.2     1  UNL1        0.2269
      7 O          -1.0020    3.3680   17.5923 O.2     1  UNL1       -0.2748
      8 N          -2.6103    4.1816   19.4634 N.am    1  UNL1       -0.2655
      9 C          -3.8150    4.8727   20.0301 C.3     1  UNL1        0.1206
     10 C          -3.7853    4.7085   21.5207 C.ar    1  UNL1       -0.0030
     11 C          -4.7139    5.1783   22.6010 C.ar    1  UNL1        0.0155
     12 C          -4.4194    4.8554   24.0359 C.ar    1  UNL1        0.1053
     13 C          -3.1962    4.0629   24.3906 C.ar    1  UNL1        0.0181
     14 C          -2.2676    3.5931   23.3103 C.ar    1  UNL1       -0.0011
     15 C          -2.5622    3.9159   21.8754 C.ar    1  UNL1        0.0022
     16 C          -1.8360    3.5903   20.6039 C.3     1  UNL1        0.1750
     17 S          -5.3480    5.3252   25.1162 S.O2    1  UNL1        0.0070
     18 O          -5.2162    6.7336   24.6171 O.2     1  UNL1       -0.1687
     19 O          -5.4797    3.9169   25.6153 O.2     1  UNL1       -0.1687
     20 C          -6.2766    5.7949   26.1965 C.3     1  UNL1        0.1339
     21 C          -7.6384    6.2479   26.6327 C.3     1  UNL1        0.0257
     22 C          -6.5231    6.1556   27.6314 C.3     1  UNL1        0.0257
     23 C           0.6923    0.6214   19.8664 C.ar    1  UNL1        0.0503
     24 C           1.1801   -0.1890   21.0306 C.ar    1  UNL1        0.0144
     25 C           2.4565   -0.9690   20.9192 C.ar    1  UNL1       -0.0002
     26 C           3.2450   -0.9385   19.6436 C.ar    1  UNL1        0.0182
     27 C           2.7572   -0.1282   18.4794 C.ar    1  UNL1       -0.0002
     28 C           1.4809    0.6519   18.5908 C.ar    1  UNL1        0.0144
     29 C           4.5214   -1.7186   19.5321 C.3     1  UNL1        0.2827
     30 O           5.3094   -0.4568   19.7244 O.3     1  UNL1       -0.3692
     31 H           6.2574   -0.6604   19.6979 H       1  UNL1        0.2112
     32 C           5.7978   -2.4986   19.4206 C.3     1  UNL1        0.4311
     33 F           7.0742   -3.2787   19.3091 F       1  UNL1       -0.1669
     34 F           6.0941   -2.2203   20.8645 F       1  UNL1       -0.1669
     35 F           5.7161   -2.7179   18.5664 F       1  UNL1       -0.1669
     36 C           3.7335   -2.9803   19.3398 C.3     1  UNL1        0.4311
     37 F           2.9455   -4.2421   19.1473 F       1  UNL1       -0.1669
     38 F           3.4537   -2.8086   18.5171 F       1  UNL1       -0.1669
     39 F           3.9120   -3.7204   20.6322 F       1  UNL1       -0.1669
@<TRIPOS>BOND
     1     5     6    1
     2     6     7    2
     3     6     8   am
     4     8     9    1
     5     9    10    1
     6    10    11   ar
     7    11    12   ar
     8    12    17    1
     9    17    18    2
    10    17    19    2
    11    17    20    1
    12    20    21    1
    13    21    22    1
    14    12    13   ar
    15    13    14   ar
    16    14    15   ar
    17    15    16    1
    18    16     1    1
    19     1     2    2
    20     1     3   am
    21     3    23    1
    22    23    24   ar
    23    24    25   ar
    24    25    26   ar
    25    26    29    1
    26    29    30    1
    27    29    32    1
    28    32    33    1
    29    32    34    1
    30    32    35    1
    31    29    36    1
    32    36    37    1
    33    36    38    1
    34    36    39    1
    35    26    27   ar
    36    27    28   ar
    37    16     8    1
    38    28    23   ar
    39    15    10   ar
    40    22    20    1
    41     3     4    1
    42    30    31    1
@<TRIPOS>MOLECULE
*****
 39 42 0 0 0
SMALL
GASTEIGER

@<TRIPOS>ATOM
      1 C          -1.1132    3.3422   20.6826 C.2     1  UNL1        0.2485
      2 O          -0.9743    3.4125   22.1744 O.2     1  UNL1       -0.2726
      3 N          -2.4375    3.6274   20.0384 N.am    1  UNL1       -0.2823
      4 H          -2.5287    3.5812   19.0592 H       1  UNL1        0.1549
      5 C           1.0841    6.0527   17.4483 C.3     1  UNL1        0.0949
      6 C           0.3241    5.2804   18.4855 C.2     1  UNL1        0.2269
      7 O          -0.8445    5.9107   19.1831 O.2     1  UNL1       -0.2748
      8 N           0.7328    3.8776   18.8250 N.am    1  UNL1       -0.2655
      9 C           1.8739    3.1194   18.2142 C.3     1  UNL1        0.1206
     10 C           1.9185    1.7600   18.8466 C.ar    1  UNL1       -0.0030
     11 C           2.8292    0.5862   18.6398 C.ar    1  UNL1        0.0155
     12 C           2.6263   -0.6696   19.4347 C.ar    1  UNL1        0.1053
     13 C           1.5128   -0.7516   20.4363 C.ar    1  UNL1        0.0181
     14 C           0.6021    0.4222   20.6431 C.ar    1  UNL1       -0.0011
     15 C           0.8049    1.6780   19.8483 C.ar    1  UNL1        0.0022
     16 C           0.0722    2.9867   19.8349 C.3     1  UNL1        0.1750
     17 S           3.5371   -1.8435   19.2279 S.O2    1  UNL1        0.0070
     18 O           3.4038   -2.2024   20.6782 O.2     1  UNL1       -0.1687
     19 O           3.6703   -1.4846   17.7776 O.2     1  UNL1       -0.1687
     20 C           4.4477   -3.0173   19.0211 C.3     1  UNL1        0.1339
     21 C           5.8316   -3.5926   18.9588 C.3     1  UNL1        0.0257
     22 C           4.6413   -4.4750   18.7252 C.3     1  UNL1        0.0257
     23 C          -3.6229    3.9828   20.8861 C.ar    1  UNL1        0.0503
     24 C          -4.2504    2.9464   21.7704 C.ar    1  UNL1        0.0144
     25 C          -5.4357    3.3019   22.6181 C.ar    1  UNL1       -0.0002
     26 C          -5.9935    4.6938   22.5814 C.ar    1  UNL1        0.0182
     27 C          -5.3660    5.7302   21.6971 C.ar    1  UNL1       -0.0002
     28 C          -4.1806    5.3748   20.8494 C.ar    1  UNL1        0.0144
     29 C          -7.1789    5.0493   23.4291 C.3     1  UNL1        0.2827
     30 O          -8.0203    5.1870   22.1950 O.3     1  UNL1       -0.3692
     31 H          -8.9243    5.4334   22.4458 H       1  UNL1        0.2112
     32 C          -8.3642    5.4049   24.2769 C.3     1  UNL1        0.4311
     33 F          -9.5495    5.7604   25.1246 F       1  UNL1       -0.1669
     34 F          -8.9946    4.0838   23.9494 F       1  UNL1       -0.1669
     35 F          -8.0800    6.2047   24.5298 F       1  UNL1       -0.1669
     36 C          -6.3375    4.9117   24.6632 C.3     1  UNL1        0.4311
     37 F          -5.4961    4.7739   25.8974 F       1  UNL1       -0.1669
     38 F          -6.6533    4.1257   24.9221 F       1  UNL1       -0.1669
     39 F          -5.5107    6.1631   24.6804 F       1  UNL1       -0.1669
@<TRIPOS>BOND
     1     5     6    1
     2     6     7    2
     3     6     8   am
     4     8     9    1
     5     9    10    1
     6    10    11   ar
     7    11    12   ar
     8    12    17    1
     9    17    18    2
    10    17    19    2
    11    17    20    1
    12    20    21    1
    13    21    22    1
    14    12    13   ar
    15    13    14   ar
    16    14    15   ar
    17    15    16    1
    18    16     1    1
    19     1     2    2
    20     1     3   am
    21     3    23    1
    22    23    24   ar
    23    24    25   ar
    24    25    26   ar
    25    26    29    1
    26    29    30    1
    27    29    32    1
    28    32    33    1
    29    32    34    1
    30    32    35    1
    31    29    36    1
    32    36    37    1
    33    36    38    1
    34    36    39    1
    35    26    27   ar
    36    27    28   ar
    37    16     8    1
    38    28    23   ar
    39    15    10   ar
    40    22    20    1
    41     3     4    1
    42    30    31    1
@<TRIPOS>MOLECULE
*****
 39 42 0 0 0
SMALL
GASTEIGER

@<TRIPOS>ATOM
      1 C          -1.5486    3.6265   21.5234 C.2     1  UNL1        0.2485
      2 O          -0.7787    4.2185   22.6664 O.2     1  UNL1       -0.2726
      3 N          -3.0454    3.5499   21.5871 N.am    1  UNL1       -0.2823
      4 H          -3.5508    3.1614   20.8369 H       1  UNL1        0.1549
      5 C          -1.8115    5.2259   17.0503 C.3     1  UNL1        0.0949
      6 C          -1.7995    4.7979   18.4878 C.2     1  UNL1        0.2269
      7 O          -2.6496    5.5183   19.4919 O.2     1  UNL1       -0.2748
      8 N          -0.9373    3.6496   18.9213 N.am    1  UNL1       -0.2655
      9 C          -0.0391    2.8380   18.0356 C.3     1  UNL1        0.1206
     10 C           0.6314    1.7979   18.8834 C.ar    1  UNL1       -0.0030
     11 C           1.6200    0.7190   18.5539 C.ar    1  UNL1        0.0155
     12 C           2.1247   -0.1911   19.6342 C.ar    1  UNL1        0.1053
     13 C           1.6408   -0.0222   21.0439 C.ar    1  UNL1        0.0181
     14 C           0.6522    1.0567   21.3734 C.ar    1  UNL1       -0.0011
     15 C           0.1475    1.9668   20.2932 C.ar    1  UNL1        0.0022
     16 C          -0.8220    3.1111   20.3165 C.3     1  UNL1        0.1750
     17 S           3.1133   -1.2700   19.3047 S.O2    1  UNL1        0.0070
     18 O           3.0806   -1.7354   20.7303 O.2     1  UNL1       -0.1687
     19 O           3.1460   -0.8047   17.8791 O.2     1  UNL1       -0.1687
     20 C           4.1019   -2.3489   18.9752 C.3     1  UNL1        0.1339
     21 C           5.5006   -2.7687   18.6326 C.3     1  UNL1        0.0257
     22 C           4.4155   -3.7979   18.7470 C.3     1  UNL1        0.0257
     23 C          -3.7720    4.0653   22.7939 C.ar    1  UNL1        0.0503
     24 C          -4.3457    3.1033   23.7916 C.ar    1  UNL1        0.0144
     25 C          -5.0723    3.6187   24.9984 C.ar    1  UNL1       -0.0002
     26 C          -5.2252    5.0961   25.2075 C.ar    1  UNL1        0.0182
     27 C          -4.6515    6.0581   24.2098 C.ar    1  UNL1       -0.0002
     28 C          -3.9248    5.5427   23.0030 C.ar    1  UNL1        0.0144
     29 C          -5.9518    5.6116   26.4143 C.3     1  UNL1        0.2827
     30 O          -4.9950    4.8757   27.3048 O.3     1  UNL1       -0.3692
     31 H          -5.2318    5.0314   28.2325 H       1  UNL1        0.2112
     32 C          -6.6785    6.1271   27.6210 C.3     1  UNL1        0.4311
     33 F          -7.4051    6.6427   28.8278 F       1  UNL1       -0.1669
     34 F          -5.4074    6.7465   28.1218 F       1  UNL1       -0.1669
     35 F          -7.4758    5.8013   27.4144 F       1  UNL1       -0.1669
     36 C          -6.9086    6.3475   25.5238 C.3     1  UNL1        0.4311
     37 F          -7.8653    7.0835   24.6332 F       1  UNL1       -0.1669
     38 F          -6.6411    7.1661   25.7311 F       1  UNL1       -0.1669
     39 F          -7.6969    5.2582   24.8590 F       1  UNL1       -0.1669
@<TRIPOS>BOND
     1     5     6    1
     2     6     7    2
     3     6     8   am
     4     8     9    1
     5     9    10    1
     6    10    11   ar
     7    11    12   ar
     8    12    17    1
     9    17    18    2
    10    17    19    2
    11    17    20    1
    12    20    21    1
    13    21    22    1
    14    12    13   ar
    15    13    14   ar
    16    14    15   ar
    17    15    16    1
    18    16     1    1
    19     1     2    2
    20     1     3   am
    21     3    23    1
    22    23    24   ar
    23    24    25   ar
    24    25    26   ar
    25    26    29    1
    26    29    30    1
    27    29    32    1
    28    32    33    1
    29    32    34    1
    30    32    35    1
    31    29    36    1
    32    36    37    1
    33    36    38    1
    34    36    39    1
    35    26    27   ar
    36    27    28   ar
    37    16     8    1
    38    28    23   ar
    39    15    10   ar
    40    22    20    1
    41     3     4    1
    42    30    31    1
@<TRIPOS>MOLECULE
*****
 39 42 0 0 0
SMALL
GASTEIGER

@<TRIPOS>ATOM
      1 C           3.1312   -0.0786   27.5089 C.2     1  UNL1        0.2485
      2 O           2.6808   -1.3470   28.1708 O.2     1  UNL1       -0.2726
      3 N           3.8807    0.9539   28.2979 N.am    1  UNL1       -0.2823
      4 H           4.1763    1.7864   27.8635 H       1  UNL1        0.1549
      5 C           0.4187    3.3337   25.6025 C.3     1  UNL1        0.0949
      6 C           1.2511    2.2992   26.3002 C.2     1  UNL1        0.2269
      7 O           1.3667    2.3136   27.7957 O.2     1  UNL1       -0.2748
      8 N           1.9679    1.2505   25.5026 N.am    1  UNL1       -0.2655
      9 C           1.9464    1.1105   24.0093 C.3     1  UNL1        0.1206
     10 C           2.7972   -0.0690   23.6419 C.ar    1  UNL1       -0.0030
     11 C           3.1443   -0.6827   22.3180 C.ar    1  UNL1        0.0155
     12 C           4.0387   -1.8855   22.2604 C.ar    1  UNL1        0.1053
     13 C           4.5861   -2.4744   23.5266 C.ar    1  UNL1        0.0181
     14 C           4.2391   -1.8607   24.8506 C.ar    1  UNL1       -0.0011
     15 C           3.3446   -0.6580   24.9082 C.ar    1  UNL1        0.0022
     16 C           2.8320    0.1575   26.0581 C.3     1  UNL1        0.1750
     17 S           4.3858   -2.4993   20.9364 S.O2    1  UNL1        0.0070
     18 O           3.1408   -1.9140   20.3386 O.2     1  UNL1       -0.1687
     19 O           5.6308   -3.0845   21.5342 O.2     1  UNL1       -0.1687
     20 C           4.7329   -3.1131   19.6125 C.3     1  UNL1        0.1339
     21 C           5.3718   -3.0079   18.2594 C.3     1  UNL1        0.0257
     22 C           4.6953   -4.2814   18.6725 C.3     1  UNL1        0.0257
     23 C           4.1798    0.7178   29.7487 C.ar    1  UNL1        0.0503
     24 C           5.5854    0.4329   30.1880 C.ar    1  UNL1        0.0144
     25 C           5.8846    0.1968   31.6388 C.ar    1  UNL1       -0.0002
     26 C           4.7780    0.2456   32.6502 C.ar    1  UNL1        0.0182
     27 C           3.3723    0.5305   32.2109 C.ar    1  UNL1       -0.0002
     28 C           3.0732    0.7666   30.7601 C.ar    1  UNL1        0.0144
     29 C           5.0770    0.0095   34.1010 C.3     1  UNL1        0.2827
     30 O           5.5127    1.4378   34.2437 O.3     1  UNL1       -0.3692
     31 H           5.7889    1.6016   35.1590 H       1  UNL1        0.2112
     32 C           5.3760   -0.2266   35.5518 C.3     1  UNL1        0.4311
     33 F           5.6750   -0.4628   37.0027 F       1  UNL1       -0.1669
     34 F           4.1619    0.5683   35.9315 F       1  UNL1       -0.1669
     35 F           6.1090   -0.7095   35.4339 F       1  UNL1       -0.1669
     36 C           4.6413   -1.4187   33.9583 C.3     1  UNL1        0.4311
     37 F           4.2054   -2.8469   33.8157 F       1  UNL1       -0.1669
     38 F           3.8326   -1.3201   34.3061 F       1  UNL1       -0.1669
     39 F           5.8225   -2.0977   33.3311 F       1  UNL1       -0.1669
@<TRIPOS>BOND
     1     5     6    1
     2     6     7    2
     3     6     8   am
     4     8     9    1
     5     9    10    1
     6    10    11   ar
     7    11    12   ar
     8    12    17    1
     9    17    18    2
    10    17    19    2
    11    17    20    1
    12    20    21    1
    13    21    22    1
    14    12    13   ar
    15    13    14   ar
    16    14    15   ar
    17    15    16    1
    18    16     1    1
    19     1     2    2
    20     1     3   am
    21     3    23    1
    22    23    24   ar
    23    24    25   ar
    24    25    26   ar
    25    26    29    1
    26    29    30    1
    27    29    32    1
    28    32    33    1
    29    32    34    1
    30    32    35    1
    31    29    36    1
    32    36    37    1
    33    36    38    1
    34    36    39    1
    35    26    27   ar
    36    27    28   ar
    37    16     8    1
    38    28    23   ar
    39    15    10   ar
    40    22    20    1
    41     3     4    1
    42    30    31    1
@<TRIPOS>MOLECULE
*****
 39 42 0 0 0
SMALL
GASTEIGER

@<TRIPOS>ATOM
      1 C           3.4309    0.2637   27.3787 C.2     1  UNL1        0.2485
      2 O           4.7409    0.9050   27.7287 O.2     1  UNL1       -0.2726
      3 N           2.6002   -0.3783   28.4502 N.am    1  UNL1       -0.2823
      4 H           1.7404   -0.7992   28.2205 H       1  UNL1        0.1549
      5 C           0.1214    3.0594   25.4123 C.3     1  UNL1        0.0949
      6 C           1.1474    2.2294   26.1252 C.2     1  UNL1        0.2269
      7 O           1.4189    2.4610   27.5821 O.2     1  UNL1       -0.2748
      8 N           1.9020    1.1677   25.3812 N.am    1  UNL1       -0.2655
      9 C           1.7395    0.8232   23.9304 C.3     1  UNL1        0.1206
     10 C           2.6886   -0.2933   23.6099 C.ar    1  UNL1       -0.0030
     11 C           2.9675   -1.0399   22.3392 C.ar    1  UNL1        0.0155
     12 C           3.9955   -2.1321   22.3213 C.ar    1  UNL1        0.1053
     13 C           4.7447   -2.4775   23.5740 C.ar    1  UNL1        0.0181
     14 C           4.4658   -1.7309   24.8447 C.ar    1  UNL1       -0.0011
     15 C           3.4377   -0.6387   24.8627 C.ar    1  UNL1        0.0022
     16 C           2.9516    0.2642   25.9574 C.3     1  UNL1        0.1750
     17 S           4.2744   -2.8788   21.0506 S.O2    1  UNL1        0.0070
     18 O           4.0577   -1.6204   20.2635 O.2     1  UNL1       -0.1687
     19 O           4.4912   -4.1371   21.8376 O.2     1  UNL1       -0.1687
     20 C           4.5533   -3.6255   19.7799 C.3     1  UNL1        0.1339
     21 C           4.3899   -4.8513   18.9309 C.3     1  UNL1        0.0257
     22 C           5.1998   -3.6932   18.4281 C.3     1  UNL1        0.0257
     23 C           3.0795   -0.3788   29.8715 C.ar    1  UNL1        0.0503
     24 C           2.4088    0.4951   30.8896 C.ar    1  UNL1        0.0144
     25 C           2.8881    0.4946   32.3109 C.ar    1  UNL1       -0.0002
     26 C           4.0382   -0.3798   32.7141 C.ar    1  UNL1        0.0182
     27 C           4.7090   -1.2537   31.6961 C.ar    1  UNL1       -0.0002
     28 C           4.2296   -1.2532   30.2748 C.ar    1  UNL1        0.0144
     29 C           4.5176   -0.3804   34.1355 C.3     1  UNL1        0.2827
     30 O           4.0309   -1.7898   34.2992 O.3     1  UNL1       -0.3692
     31 H           4.2183   -2.0939   35.2010 H       1  UNL1        0.2112
     32 C           4.9971   -0.3809   35.5568 C.3     1  UNL1        0.4311
     33 F           5.4765   -0.3814   36.9781 F       1  UNL1       -0.1669
     34 F           6.3788   -0.7323   35.0906 F       1  UNL1       -0.1669
     35 F           4.2218   -0.1750   35.9324 F       1  UNL1       -0.1669
     36 C           5.0043    1.0290   33.9718 C.3     1  UNL1        0.4311
     37 F           5.4911    2.4383   33.8081 F       1  UNL1       -0.1669
     38 F           5.7527    0.8352   33.5394 F       1  UNL1       -0.1669
     39 F           3.9412    1.8588   34.6285 F       1  UNL1       -0.1669
@<TRIPOS>BOND
     1     5     6    1
     2     6     7    2
     3     6     8   am
     4     8     9    1
     5     9    10    1
     6    10    11   ar
     7    11    12   ar
     8    12    17    1
     9    17    18    2
    10    17    19    2
    11    17    20    1
    12    20    21    1
    13    21    22    1
    14    12    13   ar
    15    13    14   ar
    16    14    15   ar
    17    15    16    1
    18    16     1    1
    19     1     2    2
    20     1     3   am
    21     3    23    1
    22    23    24   ar
    23    24    25   ar
    24    25    26   ar
    25    26    29    1
    26    29    30    1
    27    29    32    1
    28    32    33    1
    29    32    34    1
    30    32    35    1
    31    29    36    1
    32    36    37    1
    33    36    38    1
    34    36    39    1
    35    26    27   ar
    36    27    28   ar
    37    16     8    1
    38    28    23   ar
    39    15    10   ar
    40    22    20    1
    41     3     4    1
    42    30    31    1
@<TRIPOS>MOLECULE
*****
 39 42 0 0 0
SMALL
GASTEIGER

@<TRIPOS>ATOM
      1 C          -1.8246    3.3283   20.6247 C.2     1  UNL1        0.2485
      2 O          -1.4915    4.3886   21.6320 O.2     1  UNL1       -0.2726
      3 N          -3.2361    2.8388   20.4900 N.am    1  UNL1       -0.2823
      4 H          -3.4548    2.1429   19.8288 H       1  UNL1        0.1549
      5 C          -0.7556    4.5187   16.1441 C.3     1  UNL1        0.0949
      6 C          -1.1709    4.2171   17.5535 C.2     1  UNL1        0.2269
      7 O          -2.3113    4.9668   18.1760 O.2     1  UNL1       -0.2748
      8 N          -0.4459    3.1660   18.3405 N.am    1  UNL1       -0.2655
      9 C           0.7070    2.3388   17.8540 C.3     1  UNL1        0.1206
     10 C           1.1190    1.4190   18.9649 C.ar    1  UNL1       -0.0030
     11 C           2.1960    0.3793   19.0599 C.ar    1  UNL1        0.0155
     12 C           2.3748   -0.4016   20.3279 C.ar    1  UNL1        0.1053
     13 C           1.4767   -0.1429   21.5011 C.ar    1  UNL1        0.0181
     14 C           0.3996    0.8968   21.4062 C.ar    1  UNL1       -0.0011
     15 C           0.2208    1.6777   20.1381 C.ar    1  UNL1        0.0022
     16 C          -0.7463    2.7574   19.7521 C.3     1  UNL1        0.1750
     17 S           3.4519   -1.4414   20.4229 S.O2    1  UNL1        0.0070
     18 O           3.6816   -1.3386   18.9442 O.2     1  UNL1       -0.1687
     19 O           3.2222   -1.5442   21.9016 O.2     1  UNL1       -0.1687
     20 C           4.5289   -2.4811   20.5180 C.3     1  UNL1        0.1339
     21 C           4.9403   -3.9136   20.6879 C.3     1  UNL1        0.0257
     22 C           5.9829   -2.8495   20.5127 C.3     1  UNL1        0.0257
     23 C          -4.3144    3.4097   21.3625 C.ar    1  UNL1        0.0503
     24 C          -5.4433    4.1846   20.7499 C.ar    1  UNL1        0.0144
     25 C          -6.5215    4.7555   21.6225 C.ar    1  UNL1       -0.0002
     26 C          -6.4709    4.5514   23.1077 C.ar    1  UNL1        0.0182
     27 C          -5.3421    3.7765   23.7203 C.ar    1  UNL1       -0.0002
     28 C          -4.2638    3.2057   22.8477 C.ar    1  UNL1        0.0144
     29 C          -7.5492    5.1223   23.9804 C.3     1  UNL1        0.2827
     30 O          -8.5050    4.0792   23.4819 O.3     1  UNL1       -0.3692
     31 H          -9.3683    4.2024   23.9066 H       1  UNL1        0.2112
     32 C          -8.6274    5.6932   24.8530 C.3     1  UNL1        0.4311
     33 F          -9.7056    6.2641   25.7257 F       1  UNL1       -0.1669
     34 F          -9.2024    6.4150   23.6705 F       1  UNL1       -0.1669
     35 F          -8.3681    5.3113   25.6090 F       1  UNL1       -0.1669
     36 C          -6.5934    6.1654   24.4788 C.3     1  UNL1        0.4311
     37 F          -5.6377    7.2086   24.9771 F       1  UNL1       -0.1669
     38 F          -6.6721    6.7204   23.7929 F       1  UNL1       -0.1669
     39 F          -6.1181    5.6235   25.7942 F       1  UNL1       -0.1669
@<TRIPOS>BOND
     1     5     6    1
     2     6     7    2
     3     6     8   am
     4     8     9    1
     5     9    10    1
     6    10    11   ar
     7    11    12   ar
     8    12    17    1
     9    17    18    2
    10    17    19    2
    11    17    20    1
    12    20    21    1
    13    21    22    1
    14    12    13   ar
    15    13    14   ar
    16    14    15   ar
    17    15    16    1
    18    16     1    1
    19     1     2    2
    20     1     3   am
    21     3    23    1
    22    23    24   ar
    23    24    25   ar
    24    25    26   ar
    25    26    29    1
    26    29    30    1
    27    29    32    1
    28    32    33    1
    29    32    34    1
    30    32    35    1
    31    29    36    1
    32    36    37    1
    33    36    38    1
    34    36    39    1
    35    26    27   ar
    36    27    28   ar
    37    16     8    1
    38    28    23   ar
    39    15    10   ar
    40    22    20    1
    41     3     4    1
    42    30    31    1
@<TRIPOS>MOLECULE
*****
 39 42 0 0 0
SMALL
GASTEIGER

@<TRIPOS>ATOM
      1 C           5.3631   -0.5712   31.5336 C.2     1  UNL1        0.2485
      2 O           6.5465    0.2151   32.0142 O.2     1  UNL1       -0.2726
      3 N           4.1142   -0.6290   32.3625 N.am    1  UNL1       -0.2823
      4 H           3.3374   -1.1450   32.0471 H       1  UNL1        0.1549
      5 C           3.4911    0.7437   27.3619 C.3     1  UNL1        0.0949
      6 C           4.0409    0.4195   28.7193 C.2     1  UNL1        0.2269
      7 O           3.8110    1.3593   29.8656 O.2     1  UNL1       -0.2748
      8 N           4.8206   -0.8444   28.9305 N.am    1  UNL1       -0.2655
      9 C           5.1295   -1.8749   27.8851 C.3     1  UNL1        0.1206
     10 C           5.9282   -2.9671   28.5326 C.ar    1  UNL1       -0.0030
     11 C           6.5111   -4.2393   27.9927 C.ar    1  UNL1        0.0155
     12 C           7.2787   -5.1562   28.8983 C.ar    1  UNL1        0.1053
     13 C           7.4633   -4.8008   30.3438 C.ar    1  UNL1        0.0181
     14 C           6.8805   -3.5285   30.8837 C.ar    1  UNL1       -0.0011
     15 C           6.1129   -2.6117   29.9781 C.ar    1  UNL1        0.0022
     16 C           5.4284   -1.2998   30.2240 C.3     1  UNL1        0.1750
     17 S           7.8616   -6.4285   28.3584 S.O2    1  UNL1        0.0070
     18 O           6.9017   -6.3797   27.2068 O.2     1  UNL1       -0.1687
     19 O           8.8215   -6.4773   29.5099 O.2     1  UNL1       -0.1687
     20 C           8.4445   -7.7008   27.8185 C.3     1  UNL1        0.1339
     21 C           9.5250   -8.4170   27.0639 C.3     1  UNL1        0.0257
     22 C           8.3738   -9.1882   27.6381 C.3     1  UNL1        0.0257
     23 C           4.0489    0.0996   33.6721 C.ar    1  UNL1        0.0503
     24 C           4.6732   -0.5012   34.8966 C.ar    1  UNL1        0.0144
     25 C           4.6079    0.2274   36.2061 C.ar    1  UNL1       -0.0002
     26 C           3.9184    1.5567   36.2911 C.ar    1  UNL1        0.0182
     27 C           3.2941    2.1575   35.0667 C.ar    1  UNL1       -0.0002
     28 C           3.3594    1.4290   33.7571 C.ar    1  UNL1        0.0144
     29 C           3.8530    2.2854   37.6007 C.3     1  UNL1        0.2827
     30 O           4.8808    3.2611   37.1091 O.3     1  UNL1       -0.3692
     31 H           5.0625    3.9157   37.8016 H       1  UNL1        0.2112
     32 C           3.7877    3.0140   38.9102 C.3     1  UNL1        0.4311
     33 F           3.7223    3.7425   40.2198 F       1  UNL1       -0.1669
     34 F           2.4444    3.5666   38.5357 F       1  UNL1       -0.1669
     35 F           4.5702    2.7425   39.2241 F       1  UNL1       -0.1669
     36 C           2.8253    1.3096   38.0922 C.3     1  UNL1        0.4311
     37 F           1.7975    0.3339   38.5837 F       1  UNL1       -0.1669
     38 F           2.1931    1.5145   37.5066 F       1  UNL1       -0.1669
     39 F           3.5006    0.6180   39.2392 F       1  UNL1       -0.1669
@<TRIPOS>BOND
     1     5     6    1
     2     6     7    2
     3     6     8   am
     4     8     9    1
     5     9    10    1
     6    10    11   ar
     7    11    12   ar
     8    12    17    1
     9    17    18    2
    10    17    19    2
    11    17    20    1
    12    20    21    1
    13    21    22    1
    14    12    13   ar
    15    13    14   ar
    16    14    15   ar
    17    15    16    1
    18    16     1    1
    19     1     2    2
    20     1     3   am
    21     3    23    1
    22    23    24   ar
    23    24    25   ar
    24    25    26   ar
    25    26    29    1
    26    29    30    1
    27    29    32    1
    28    32    33    1
    29    32    34    1
    30    32    35    1
    31    29    36    1
    32    36    37    1
    33    36    38    1
    34    36    39    1
    35    26    27   ar
    36    27    28   ar
    37    16     8    1
    38    28    23   ar
    39    15    10   ar
    40    22    20    1
    41     3     4    1
    42    30    31    1
@<TRIPOS>MOLECULE
*****
 39 42 0 0 0
SMALL
GASTEIGER

@<TRIPOS>ATOM
      1 C           4.9731    0.2551   33.2148 C.2     1  UNL1        0.2485
      2 O           6.4019    0.5986   32.9144 O.2     1  UNL1       -0.2726
      3 N           4.3985   -1.0462   32.7387 N.am    1  UNL1       -0.2823
      4 H           3.4607   -1.2718   32.9359 H       1  UNL1        0.1549
      5 C           0.8874    2.2834   31.8624 C.3     1  UNL1        0.0949
      6 C           2.1780    1.5943   32.1933 C.2     1  UNL1        0.2269
      7 O           2.8125    0.6711   31.1958 O.2     1  UNL1       -0.2748
      8 N           2.8340    1.8283   33.5218 N.am    1  UNL1       -0.2655
      9 C           2.3204    2.7189   34.6141 C.3     1  UNL1        0.1206
     10 C           3.2877    2.6538   35.7586 C.ar    1  UNL1       -0.0030
     11 C           3.3001    3.3219   37.1016 C.ar    1  UNL1        0.0155
     12 C           4.4239    3.0591   38.0596 C.ar    1  UNL1        0.1053
     13 C           5.5354    2.1282   37.6747 C.ar    1  UNL1        0.0181
     14 C           5.5230    1.4601   36.3318 C.ar    1  UNL1       -0.0011
     15 C           4.3992    1.7229   35.3738 C.ar    1  UNL1        0.0022
     16 C           4.1187    1.2127   33.9914 C.3     1  UNL1        0.1750
     17 S           4.4363    3.7272   39.4026 S.O2    1  UNL1        0.0070
     18 O           5.0047    2.4823   40.0167 O.2     1  UNL1       -0.1687
     19 O           3.8680    4.9721   38.7885 O.2     1  UNL1       -0.1687
     20 C           4.4487    4.3953   40.7455 C.3     1  UNL1        0.1339
     21 C           3.7195    5.0858   41.8596 C.3     1  UNL1        0.0257
     22 C           5.1994    4.8620   41.9573 C.3     1  UNL1        0.0257
     23 C           5.2529   -2.0039   31.9622 C.ar    1  UNL1        0.0503
     24 C           5.5464   -1.7429   30.5145 C.ar    1  UNL1        0.0144
     25 C           6.4008   -2.7006   29.7380 C.ar    1  UNL1       -0.0002
     26 C           6.9616   -3.9191   30.4092 C.ar    1  UNL1        0.0182
     27 C           6.6681   -4.1800   31.8568 C.ar    1  UNL1       -0.0002
     28 C           5.8137   -3.2224   32.6334 C.ar    1  UNL1        0.0144
     29 C           7.8160   -4.8768   29.6327 C.3     1  UNL1        0.2827
     30 O           9.0043   -4.4890   30.4618 O.3     1  UNL1       -0.3692
     31 H           9.7813   -4.9893   30.1671 H       1  UNL1        0.2112
     32 C           8.6703   -5.8345   28.8562 C.3     1  UNL1        0.4311
     33 F           9.5246   -6.7922   28.0797 F       1  UNL1       -0.1669
     34 F           9.4481   -4.6829   28.2916 F       1  UNL1       -0.1669
     35 F           8.2760   -6.5784   29.1312 F       1  UNL1       -0.1669
     36 C           6.6276   -5.2646   28.8036 C.3     1  UNL1        0.4311
     37 F           5.4392   -5.6524   27.9745 F       1  UNL1       -0.1669
     38 F           6.1966   -5.7117   29.4351 F       1  UNL1       -0.1669
     39 F           6.9120   -4.6644   27.4586 F       1  UNL1       -0.1669
@<TRIPOS>BOND
     1     5     6    1
     2     6     7    2
     3     6     8   am
     4     8     9    1
     5     9    10    1
     6    10    11   ar
     7    11    12   ar
     8    12    17    1
     9    17    18    2
    10    17    19    2
    11    17    20    1
    12    20    21    1
    13    21    22    1
    14    12    13   ar
    15    13    14   ar
    16    14    15   ar
    17    15    16    1
    18    16     1    1
    19     1     2    2
    20     1     3   am
    21     3    23    1
    22    23    24   ar
    23    24    25   ar
    24    25    26   ar
    25    26    29    1
    26    29    30    1
    27    29    32    1
    28    32    33    1
    29    32    34    1
    30    32    35    1
    31    29    36    1
    32    36    37    1
    33    36    38    1
    34    36    39    1
    35    26    27   ar
    36    27    28   ar
    37    16     8    1
    38    28    23   ar
    39    15    10   ar
    40    22    20    1
    41     3     4    1
    42    30    31    1
