@<TRIPOS>MOLECULE
*****
 44 49 0 0 0
SMALL
GASTEIGER

@<TRIPOS>ATOM
      1 C           0.3380    1.8313   25.3322 C.ar    1  UNL1        0.1066
      2 C          -0.4726    2.9926   24.8379 C.ar    1  UNL1        0.1093
      3 N          -0.4172    3.3841   23.3910 N.ar    1  UNL1       -0.2118
      4 C           0.4488    2.6143   22.4383 C.ar    1  UNL1        0.2218
      5 N           1.2594    1.4530   22.9326 N.ar    1  UNL1       -0.1986
      6 C           1.2040    1.0615   24.3795 C.ar    1  UNL1        0.1377
      7 C           0.9453    0.8780   29.0453 C.ar    1  UNL1        0.1804
      8 N          -0.5504    0.7963   28.9660 N.ar    1  UNL1       -0.0602
      9 O          -0.9599    1.1434   27.5654 O.2     1  UNL1       -0.3326
     10 C           0.2827    1.4397   26.7791 C.ar    1  UNL1        0.2639
     11 N           1.4602    1.2757   27.6937 N.ar    1  UNL1       -0.1910
     12 C           4.2828   -0.1970   33.9143 C.3     1  UNL1        0.0896
     13 N           3.4485    0.0718   32.6970 N.3     1  UNL1       -0.2715
     14 C           3.4687   -0.8905   31.5465 C.3     1  UNL1        0.0726
     15 C           2.6343   -0.6217   30.3293 C.3     1  UNL1        0.0250
     16 C           1.7797    0.6093   30.2626 C.3     1  UNL1        0.0648
     17 C           1.7596    1.5715   31.4131 C.3     1  UNL1        0.0250
     18 C           2.5939    1.3028   32.6303 C.3     1  UNL1        0.0726
     19 N           0.5042    3.0059   20.9914 N.pl3   1  UNL1       -0.2825
     20 H          -0.0067    3.7846   20.6723 H       1  UNL1        0.1551
     21 C           1.3379    2.2109   20.0306 C.ar    1  UNL1        0.0503
     22 C           0.7178    1.0922   19.2472 C.ar    1  UNL1        0.0149
     23 C           1.5515    0.2973   18.2865 C.ar    1  UNL1        0.0075
     24 C           3.0053    0.6211   18.1092 C.ar    1  UNL1        0.0750
     25 C           3.6255    1.7399   18.8926 C.ar    1  UNL1        0.0211
     26 C           2.7917    2.5348   19.8533 C.ar    1  UNL1        0.0139
     27 C           5.0732    1.8270   18.5098 C.3     1  UNL1        0.1553
     28 C           5.1025    2.9597   19.4927 C.3     1  UNL1        0.0484
     29 C           6.5270    2.1508   18.3325 C.3     1  UNL1        0.0484
     30 O           5.3478    0.7620   17.4898 O.3     1  UNL1       -0.4485
     31 C           4.0698    0.0167   17.2422 C.2     1  UNL1        0.3411
     32 O           3.8881   -1.1314   16.2941 O.2     1  UNL1       -0.2449
     33 N           2.0146   -0.0998   24.8738 N.pl3   1  UNL1       -0.3138
     34 H           1.6181   -0.7443   25.5036 H       1  UNL1        0.1485
     35 CA          3.4293   -0.2791   24.4085 C.3     1  UNL1        0.1227
     36 C           3.7385   -1.2442   23.3026 C.ar    1  UNL1       -0.0021
     37 C           3.2786   -0.9551   21.9045 C.ar    1  UNL1       -0.0026
     38 C           3.5878   -1.9203   20.7986 C.ar    1  UNL1       -0.0003
     39 C           4.3567   -3.1745   21.0909 C.ar    1  UNL1       -0.0000
     40 C           4.8166   -3.4637   22.4892 C.ar    1  UNL1       -0.0003
     41 C           4.5075   -2.4986   23.5950 C.ar    1  UNL1       -0.0026
     42 C           4.5348    0.5067   25.0490 C.3     1  UNL1        0.1611
     43 O           4.2102    1.6108   26.0111 O.3     1  UNL1       -0.3799
     44 H           3.7542    2.3260   25.5406 H       1  UNL1        0.2105
@<TRIPOS>BOND
     1    12    13    1
     2    13    14    1
     3    14    15    1
     4    15    16    1
     5    16     7    1
     6     7     8   ar
     7     8     9   ar
     8     9    10   ar
     9    10     1    1
    10     1     2   ar
    11     2     3   ar
    12     3     4   ar
    13     4    19    1
    14    19    21    1
    15    21    22   ar
    16    22    23   ar
    17    23    24   ar
    18    24    25   ar
    19    25    26   ar
    20    25    27    1
    21    27    28    1
    22    27    29    1
    23    27    30    1
    24    30    31    1
    25    31    32    2
    26     4     5   ar
    27     5     6   ar
    28     6    33    1
    29    33    35    1
    30    35    42    1
    31    42    43    1
    32    35    36    1
    33    36    37   ar
    34    37    38   ar
    35    38    39   ar
    36    39    40   ar
    37    40    41   ar
    38    10    11   ar
    39    16    17    1
    40    17    18    1
    41    18    13    1
    42    11     7   ar
    43     6     1   ar
    44    41    36   ar
    45    26    21   ar
    46    31    24    1
    47    19    20    1
    48    33    34    1
    49    43    44    1
@<TRIPOS>MOLECULE
*****
 44 49 0 0 0
SMALL
GASTEIGER

@<TRIPOS>ATOM
      1 C           4.4045   -1.5921   27.3927 C.ar    1  UNL1        0.1066
      2 C           5.5941   -2.3952   27.8284 C.ar    1  UNL1        0.1093
      3 N           6.5162   -2.9861   26.8035 N.ar    1  UNL1       -0.2118
      4 C           6.2487   -2.7740   25.3428 C.ar    1  UNL1        0.2218
      5 N           5.0591   -1.9708   24.9071 N.ar    1  UNL1       -0.1986
      6 C           4.1370   -1.3799   25.9321 C.ar    1  UNL1        0.1377
      7 C           2.6548    0.1245   30.4022 C.ar    1  UNL1        0.1804
      8 N           1.4720   -0.3079   29.5874 N.ar    1  UNL1       -0.0602
      9 O           1.9834   -1.0036   28.3609 O.2     1  UNL1       -0.3326
     10 C           3.4824   -1.0011   28.4176 C.ar    1  UNL1        0.2639
     11 N           3.8973   -0.3039   29.6792 N.ar    1  UNL1       -0.1910
     12 C           2.4519    3.0536   35.6348 C.3     1  UNL1        0.0896
     13 N           2.5026    2.3213   34.3267 N.3     1  UNL1       -0.2715
     14 C           3.4939    1.2136   34.1252 C.3     1  UNL1        0.0726
     15 C           3.5445    0.4814   32.8170 C.3     1  UNL1        0.0250
     16 C           2.6041    0.8568   31.7104 C.3     1  UNL1        0.0648
     17 C           1.6129    1.9644   31.9119 C.3     1  UNL1        0.0250
     18 C           1.5622    2.6967   33.2200 C.3     1  UNL1        0.0726
     19 N           7.1708   -3.3649   24.3179 N.pl3   1  UNL1       -0.2825
     20 H           7.9224   -3.9338   24.6018 H       1  UNL1        0.1551
     21 C           6.9477   -3.0890   22.8604 C.ar    1  UNL1        0.0503
     22 C           7.8963   -2.2006   22.1115 C.ar    1  UNL1        0.0149
     23 C           7.6732   -1.9248   20.6541 C.ar    1  UNL1        0.0075
     24 C           6.5015   -2.5373   19.9456 C.ar    1  UNL1        0.0750
     25 C           5.5529   -3.4256   20.6945 C.ar    1  UNL1        0.0211
     26 C           5.7760   -3.7015   22.1520 C.ar    1  UNL1        0.0139
     27 C           4.4939   -3.8850   19.7367 C.3     1  UNL1        0.1553
     28 C           3.9548   -4.6175   20.9295 C.3     1  UNL1        0.0484
     29 C           3.3222   -4.4974   19.0282 C.3     1  UNL1        0.0484
     30 O           4.7880   -3.2805   18.3957 O.3     1  UNL1       -0.4485
     31 C           6.0287   -2.4476   18.5248 C.2     1  UNL1        0.3411
     32 O           6.6821   -1.6627   17.4261 O.2     1  UNL1       -0.2449
     33 N           2.9474   -0.5768   25.4964 N.pl3   1  UNL1       -0.3138
     34 H           2.0757   -0.7113   25.9338 H       1  UNL1        0.1485
     35 CA          3.0859    0.4313   24.3943 C.3     1  UNL1        0.1227
     36 C           2.4778    0.1611   23.0500 C.ar    1  UNL1       -0.0021
     37 C           3.0883   -0.8662   22.1434 C.ar    1  UNL1       -0.0026
     38 C           2.4802   -1.1364   20.7991 C.ar    1  UNL1       -0.0003
     39 C           1.2616   -0.3793   20.3613 C.ar    1  UNL1       -0.0000
     40 C           0.6510    0.6480   21.2679 C.ar    1  UNL1       -0.0003
     41 C           1.2591    0.9183   22.6122 C.ar    1  UNL1       -0.0026
     42 C           3.8325    1.7095   24.6365 C.3     1  UNL1        0.1611
     43 O           4.5965    2.3552   23.5187 O.3     1  UNL1       -0.3799
     44 H           5.3350    1.7826   23.2588 H       1  UNL1        0.2105
@<TRIPOS>BOND
     1    12    13    1
     2    13    14    1
     3    14    15    1
     4    15    16    1
     5    16     7    1
     6     7     8   ar
     7     8     9   ar
     8     9    10   ar
     9    10     1    1
    10     1     2   ar
    11     2     3   ar
    12     3     4   ar
    13     4    19    1
    14    19    21    1
    15    21    22   ar
    16    22    23   ar
    17    23    24   ar
    18    24    25   ar
    19    25    26   ar
    20    25    27    1
    21    27    28    1
    22    27    29    1
    23    27    30    1
    24    30    31    1
    25    31    32    2
    26     4     5   ar
    27     5     6   ar
    28     6    33    1
    29    33    35    1
    30    35    42    1
    31    42    43    1
    32    35    36    1
    33    36    37   ar
    34    37    38   ar
    35    38    39   ar
    36    39    40   ar
    37    40    41   ar
    38    10    11   ar
    39    16    17    1
    40    17    18    1
    41    18    13    1
    42    11     7   ar
    43     6     1   ar
    44    41    36   ar
    45    26    21   ar
    46    31    24    1
    47    19    20    1
    48    33    34    1
    49    43    44    1
@<TRIPOS>MOLECULE
*****
 44 49 0 0 0
SMALL
GASTEIGER

@<TRIPOS>ATOM
      1 C           1.5695    1.3468   25.3444 C.ar    1  UNL1        0.1066
      2 C           0.2545    1.5989   24.6683 C.ar    1  UNL1        0.1093
      3 N           0.1087    1.3524   23.1959 N.ar    1  UNL1       -0.2118
      4 C           1.2781    0.8538   22.3996 C.ar    1  UNL1        0.2218
      5 N           2.5931    0.6016   23.0757 N.ar    1  UNL1       -0.1986
      6 C           2.7388    0.8481   24.5482 C.ar    1  UNL1        0.1377
      7 C           2.2713    1.3046   29.1616 C.ar    1  UNL1        0.1804
      8 N           1.6076    2.6405   29.0037 N.ar    1  UNL1       -0.0602
      9 O           1.2639    2.8189   27.5545 O.2     1  UNL1       -0.3326
     10 C           1.7152    1.5933   26.8168 C.ar    1  UNL1        0.2639
     11 N           2.3378    0.6574   27.8100 N.ar    1  UNL1       -0.1910
     12 C           4.3035   -1.0386   34.2978 C.3     1  UNL1        0.0896
     13 N           3.7954   -0.4528   33.0137 N.3     1  UNL1       -0.2715
     14 C           3.2267    0.9352   32.9958 C.3     1  UNL1        0.0726
     15 C           2.7187    1.5209   31.7117 C.3     1  UNL1        0.0250
     16 C           2.7794    0.7188   30.4456 C.3     1  UNL1        0.0648
     17 C           3.3481   -0.6691   30.4636 C.3     1  UNL1        0.0250
     18 C           3.8561   -1.2549   31.7476 C.3     1  UNL1        0.0726
     19 N           1.1323    0.6073   20.9272 N.pl3   1  UNL1       -0.2825
     20 H           0.2534    0.7093   20.4956 H       1  UNL1        0.1551
     21 C           2.3259    0.2053   20.1123 C.ar    1  UNL1        0.0503
     22 C           3.1887    1.2554   19.4776 C.ar    1  UNL1        0.0149
     23 C           4.3822    0.8534   18.6627 C.ar    1  UNL1        0.0075
     24 C           4.7128   -0.5986   18.4825 C.ar    1  UNL1        0.0750
     25 C           3.8499   -1.6486   19.1172 C.ar    1  UNL1        0.0211
     26 C           2.6565   -1.2466   19.9321 C.ar    1  UNL1        0.0139
     27 C           4.4201   -2.9910   18.7669 C.3     1  UNL1        0.1553
     28 C           3.2739   -3.5149   19.5804 C.3     1  UNL1        0.0484
     29 C           4.7507   -4.4430   18.5867 C.3     1  UNL1        0.0484
     30 O           5.6354   -2.7707   17.9157 O.3     1  UNL1       -0.4485
     31 C           5.8163   -1.2920   17.7399 C.2     1  UNL1        0.3411
     32 O           6.9089   -0.6241   16.9588 O.2     1  UNL1       -0.2449
     33 N           4.0538    0.5960   25.2243 N.pl3   1  UNL1       -0.3138
     34 H           4.5392    1.3395   25.6496 H       1  UNL1        0.1485
     35 CA          4.6293   -0.7890   25.2525 C.3     1  UNL1        0.1227
     36 C           5.2404   -1.3725   24.0131 C.ar    1  UNL1       -0.0021
     37 C           6.0424   -0.5026   23.0913 C.ar    1  UNL1       -0.0026
     38 C           6.6536   -1.0861   21.8519 C.ar    1  UNL1       -0.0003
     39 C           6.4627   -2.5396   21.5344 C.ar    1  UNL1       -0.0000
     40 C           5.6606   -3.4097   22.4563 C.ar    1  UNL1       -0.0003
     41 C           5.0495   -2.8261   23.6957 C.ar    1  UNL1       -0.0026
     42 C           4.5936   -1.5904   26.5199 C.3     1  UNL1        0.1611
     43 O           3.2771   -1.9653   27.1334 O.3     1  UNL1       -0.3799
     44 H           2.8210   -1.1641   27.4350 H       1  UNL1        0.2105
@<TRIPOS>BOND
     1    12    13    1
     2    13    14    1
     3    14    15    1
     4    15    16    1
     5    16     7    1
     6     7     8   ar
     7     8     9   ar
     8     9    10   ar
     9    10     1    1
    10     1     2   ar
    11     2     3   ar
    12     3     4   ar
    13     4    19    1
    14    19    21    1
    15    21    22   ar
    16    22    23   ar
    17    23    24   ar
    18    24    25   ar
    19    25    26   ar
    20    25    27    1
    21    27    28    1
    22    27    29    1
    23    27    30    1
    24    30    31    1
    25    31    32    2
    26     4     5   ar
    27     5     6   ar
    28     6    33    1
    29    33    35    1
    30    35    42    1
    31    42    43    1
    32    35    36    1
    33    36    37   ar
    34    37    38   ar
    35    38    39   ar
    36    39    40   ar
    37    40    41   ar
    38    10    11   ar
    39    16    17    1
    40    17    18    1
    41    18    13    1
    42    11     7   ar
    43     6     1   ar
    44    41    36   ar
    45    26    21   ar
    46    31    24    1
    47    19    20    1
    48    33    34    1
    49    43    44    1
@<TRIPOS>MOLECULE
*****
 44 49 0 0 0
SMALL
GASTEIGER

@<TRIPOS>ATOM
      1 C           4.3148    0.1824   29.3164 C.ar    1  UNL1        0.1066
      2 C           5.5515    0.2356   28.4693 C.ar    1  UNL1        0.1093
      3 N           5.6244   -0.5569   27.1979 N.ar    1  UNL1       -0.2118
      4 C           4.4605   -1.4027   26.7735 C.ar    1  UNL1        0.2218
      5 N           3.2238   -1.4559   27.6206 N.ar    1  UNL1       -0.1986
      6 C           3.1509   -0.6633   28.8921 C.ar    1  UNL1        0.1377
      7 C           4.0359    1.5606   32.9341 C.ar    1  UNL1        0.1804
      8 N           4.2234    2.8284   32.1546 N.ar    1  UNL1       -0.0602
      9 O           4.3506    2.4664   30.7046 O.2     1  UNL1       -0.3326
     10 C           4.2419    0.9749   30.5878 C.ar    1  UNL1        0.2639
     11 N           4.0474    0.4151   31.9658 N.ar    1  UNL1       -0.1910
     12 C           3.3593    1.1444   38.8814 C.3     1  UNL1        0.0896
     13 N           3.5285    1.2485   37.3946 N.3     1  UNL1       -0.2715
     14 C           4.4476    0.3052   36.6765 C.3     1  UNL1        0.0726
     15 C           4.6167    0.4093   35.1897 C.3     1  UNL1        0.0250
     16 C           3.8668    1.4565   34.4209 C.3     1  UNL1        0.0648
     17 C           2.9477    2.3997   35.1390 C.3     1  UNL1        0.0250
     18 C           2.7785    2.2957   36.6258 C.3     1  UNL1        0.0726
     19 N           4.5334   -2.1952   25.5021 N.pl3   1  UNL1       -0.2825
     20 H           4.9750   -3.0751   25.4951 H       1  UNL1        0.1551
     21 C           3.9335   -1.6471   24.2412 C.ar    1  UNL1        0.0503
     22 C           3.0913   -0.4068   24.2888 C.ar    1  UNL1        0.0149
     23 C           2.4914    0.1412   23.0279 C.ar    1  UNL1        0.0075
     24 C           2.7338   -0.5511   21.7195 C.ar    1  UNL1        0.0750
     25 C           3.5760   -1.7914   21.6719 C.ar    1  UNL1        0.0211
     26 C           4.1759   -2.3394   22.9327 C.ar    1  UNL1        0.0139
     27 C           3.6399   -2.2538   20.2464 C.3     1  UNL1        0.1553
     28 C           4.4933   -3.3530   20.8063 C.3     1  UNL1        0.0484
     29 C           3.8823   -2.9461   18.9379 C.3     1  UNL1        0.0484
     30 O           2.8372   -1.2993   19.4130 O.3     1  UNL1       -0.4485
     31 C           2.2771   -0.2470   20.3233 C.2     1  UNL1        0.3411
     32 O           1.4123    0.9069   19.9102 O.2     1  UNL1       -0.2449
     33 N           1.9141   -0.7166   29.7392 N.pl3   1  UNL1       -0.3138
     34 H           1.8432   -1.3770   30.4658 H       1  UNL1        0.1485
     35 CA          0.7853    0.2365   29.4791 C.3     1  UNL1        0.1227
     36 C           0.8642    1.6475   29.9819 C.ar    1  UNL1       -0.0021
     37 C           1.1916    2.7639   29.0351 C.ar    1  UNL1       -0.0026
     38 C           1.2704    4.1749   29.5380 C.ar    1  UNL1       -0.0003
     39 C           1.0219    4.4695   30.9876 C.ar    1  UNL1       -0.0000
     40 C           0.6945    3.3531   31.9344 C.ar    1  UNL1       -0.0003
     41 C           0.6156    1.9421   31.4316 C.ar    1  UNL1       -0.0026
     42 C          -0.4222   -0.2215   28.7162 C.3     1  UNL1        0.1611
     43 O          -1.7438   -0.3543   29.4132 O.3     1  UNL1       -0.3799
     44 H          -1.6911   -1.0624   30.0740 H       1  UNL1        0.2105
@<TRIPOS>BOND
     1    12    13    1
     2    13    14    1
     3    14    15    1
     4    15    16    1
     5    16     7    1
     6     7     8   ar
     7     8     9   ar
     8     9    10   ar
     9    10     1    1
    10     1     2   ar
    11     2     3   ar
    12     3     4   ar
    13     4    19    1
    14    19    21    1
    15    21    22   ar
    16    22    23   ar
    17    23    24   ar
    18    24    25   ar
    19    25    26   ar
    20    25    27    1
    21    27    28    1
    22    27    29    1
    23    27    30    1
    24    30    31    1
    25    31    32    2
    26     4     5   ar
    27     5     6   ar
    28     6    33    1
    29    33    35    1
    30    35    42    1
    31    42    43    1
    32    35    36    1
    33    36    37   ar
    34    37    38   ar
    35    38    39   ar
    36    39    40   ar
    37    40    41   ar
    38    10    11   ar
    39    16    17    1
    40    17    18    1
    41    18    13    1
    42    11     7   ar
    43     6     1   ar
    44    41    36   ar
    45    26    21   ar
    46    31    24    1
    47    19    20    1
    48    33    34    1
    49    43    44    1
@<TRIPOS>MOLECULE
*****
 44 49 0 0 0
SMALL
GASTEIGER

@<TRIPOS>ATOM
      1 C           6.8970   -4.8116   25.5348 C.ar    1  UNL1        0.1066
      2 C           6.9469   -6.1896   26.1252 C.ar    1  UNL1        0.1093
      3 N           6.9082   -6.3695   27.6139 N.ar    1  UNL1       -0.2118
      4 C           6.8197   -5.1714   28.5121 C.ar    1  UNL1        0.2218
      5 N           6.7699   -3.7934   27.9217 N.ar    1  UNL1       -0.1986
      6 C           6.8085   -3.6135   26.4329 C.ar    1  UNL1        0.1377
      7 C           6.4217   -3.8734   21.7986 C.ar    1  UNL1        0.1804
      8 N           7.5688   -4.8362   21.7120 N.ar    1  UNL1       -0.0602
      9 O           7.8864   -5.3048   23.1011 O.2     1  UNL1       -0.3326
     10 C           6.9357   -4.6317   24.0461 C.ar    1  UNL1        0.2639
     11 N           6.0305   -3.7470   23.2412 N.ar    1  UNL1       -0.1910
     12 C           3.8501   -1.0274   17.1847 C.3     1  UNL1        0.0896
     13 N           4.4930   -1.7389   18.3382 N.3     1  UNL1       -0.2715
     14 C           3.6709   -2.6285   19.2230 C.3     1  UNL1        0.0726
     15 C           4.3139   -3.3399   20.3765 C.3     1  UNL1        0.0250
     16 C           5.7788   -3.1619   20.6451 C.3     1  UNL1        0.0648
     17 C           6.6009   -2.2723   19.7604 C.3     1  UNL1        0.0250
     18 C           5.9580   -1.5608   18.6069 C.3     1  UNL1        0.0726
     19 N           6.7810   -5.3513   30.0008 N.pl3   1  UNL1       -0.2825
     20 H           6.4915   -6.2101   30.3854 H       1  UNL1        0.1551
     21 C           7.1834   -4.2228   30.9034 C.ar    1  UNL1        0.0503
     22 C           8.6265   -3.8291   31.0140 C.ar    1  UNL1        0.0149
     23 C           9.0289   -2.7006   31.9166 C.ar    1  UNL1        0.0075
     24 C           7.9881   -1.9660   32.7085 C.ar    1  UNL1        0.0750
     25 C           6.5450   -2.3598   32.5978 C.ar    1  UNL1        0.0211
     26 C           6.1427   -3.4882   31.6953 C.ar    1  UNL1        0.0139
     27 C           5.7486   -1.4584   33.4941 C.3     1  UNL1        0.1553
     28 C           4.5801   -2.2557   32.9950 C.3     1  UNL1        0.0484
     29 C           4.7078   -0.7238   34.2860 C.3     1  UNL1        0.0484
     30 O           6.6995   -0.5075   34.1587 O.3     1  UNL1       -0.4485
     31 C           8.0836   -0.8212   33.6732 C.2     1  UNL1        0.3411
     32 O           9.3422   -0.1143   34.0807 O.2     1  UNL1       -0.2449
     33 N           6.7587   -2.2355   25.8425 N.pl3   1  UNL1       -0.3138
     34 H           7.5829   -1.8129   25.5088 H       1  UNL1        0.1485
     35 CA          5.4531   -1.5015   25.7604 C.3     1  UNL1        0.1227
     36 C           4.9717   -0.9726   24.4418 C.ar    1  UNL1       -0.0021
     37 C           5.9036   -0.1957   23.5599 C.ar    1  UNL1       -0.0026
     38 C           5.4222    0.3331   22.2414 C.ar    1  UNL1       -0.0003
     39 C           4.0088    0.0850   21.8048 C.ar    1  UNL1       -0.0000
     40 C           3.0767   -0.6919   22.6867 C.ar    1  UNL1       -0.0003
     41 C           3.5582   -1.2207   24.0052 C.ar    1  UNL1       -0.0026
     42 C           4.6290   -1.2963   26.9968 C.3     1  UNL1        0.1611
     43 O           3.3720   -2.0891   27.2004 O.3     1  UNL1       -0.3799
     44 H           2.7197   -1.8394   26.5273 H       1  UNL1        0.2105
@<TRIPOS>BOND
     1    12    13    1
     2    13    14    1
     3    14    15    1
     4    15    16    1
     5    16     7    1
     6     7     8   ar
     7     8     9   ar
     8     9    10   ar
     9    10     1    1
    10     1     2   ar
    11     2     3   ar
    12     3     4   ar
    13     4    19    1
    14    19    21    1
    15    21    22   ar
    16    22    23   ar
    17    23    24   ar
    18    24    25   ar
    19    25    26   ar
    20    25    27    1
    21    27    28    1
    22    27    29    1
    23    27    30    1
    24    30    31    1
    25    31    32    2
    26     4     5   ar
    27     5     6   ar
    28     6    33    1
    29    33    35    1
    30    35    42    1
    31    42    43    1
    32    35    36    1
    33    36    37   ar
    34    37    38   ar
    35    38    39   ar
    36    39    40   ar
    37    40    41   ar
    38    10    11   ar
    39    16    17    1
    40    17    18    1
    41    18    13    1
    42    11     7   ar
    43     6     1   ar
    44    41    36   ar
    45    26    21   ar
    46    31    24    1
    47    19    20    1
    48    33    34    1
    49    43    44    1
@<TRIPOS>MOLECULE
*****
 44 49 0 0 0
SMALL
GASTEIGER

@<TRIPOS>ATOM
      1 C           6.9009   -4.8082   25.6613 C.ar    1  UNL1        0.1066
      2 C           7.1644   -6.1957   26.1668 C.ar    1  UNL1        0.1093
      3 N           7.3086   -6.4427   27.6392 N.ar    1  UNL1       -0.2118
      4 C           7.1892   -5.3023   28.6063 C.ar    1  UNL1        0.2218
      5 N           6.9256   -3.9148   28.1009 N.ar    1  UNL1       -0.1986
      6 C           6.7814   -3.6678   26.6284 C.ar    1  UNL1        0.1377
      7 C           6.0360   -3.6386   22.0629 C.ar    1  UNL1        0.1804
      8 N           7.0336   -4.7233   21.7831 N.ar    1  UNL1       -0.0602
      9 O           7.4790   -5.2934   23.0971 O.2     1  UNL1       -0.3326
     10 C           6.7567   -4.5611   24.1889 C.ar    1  UNL1        0.2639
     11 N           5.8648   -3.5384   23.5497 N.ar    1  UNL1       -0.1910
     12 C           3.2237   -0.2888   17.9555 C.3     1  UNL1        0.0896
     13 N           3.9268   -1.1262   18.9823 N.3     1  UNL1       -0.2715
     14 C           5.3136   -1.6322   18.7158 C.3     1  UNL1        0.0726
     15 C           6.0165   -2.4696   19.7427 C.3     1  UNL1        0.0250
     16 C           5.3329   -2.8011   21.0360 C.3     1  UNL1        0.0648
     17 C           3.9462   -2.2952   21.3025 C.3     1  UNL1        0.0250
     18 C           3.2431   -1.4577   20.2757 C.3     1  UNL1        0.0726
     19 N           7.3334   -5.5494   30.0787 N.pl3   1  UNL1       -0.2825
     20 H           7.2382   -6.4616   30.4364 H       1  UNL1        0.1551
     21 C           7.6226   -4.4064   31.0063 C.ar    1  UNL1        0.0503
     22 C           9.0417   -4.0390   31.3239 C.ar    1  UNL1        0.0149
     23 C           9.3309   -2.8961   32.2514 C.ar    1  UNL1        0.0075
     24 C           8.2009   -2.1207   32.8612 C.ar    1  UNL1        0.0750
     25 C           6.7817   -2.4882   32.5436 C.ar    1  UNL1        0.0211
     26 C           6.4926   -3.6311   31.6161 C.ar    1  UNL1        0.0139
     27 C           5.8815   -1.5485   33.2895 C.3     1  UNL1        0.1553
     28 C           4.7825   -2.3347   32.6383 C.3     1  UNL1        0.0484
     29 C           4.7515   -0.7731   33.8994 C.3     1  UNL1        0.0484
     30 O           6.7443   -0.6002   34.0682 O.3     1  UNL1       -0.4485
     31 C           8.1778   -0.9538   33.8035 C.2     1  UNL1        0.3411
     32 O           9.3775   -0.2621   34.3799 O.2     1  UNL1       -0.2449
     33 N           6.5179   -2.2803   26.1229 N.pl3   1  UNL1       -0.3138
     34 H           6.9007   -1.9882   25.2643 H       1  UNL1        0.1485
     35 CA          5.6708   -1.3379   26.9258 C.3     1  UNL1        0.1227
     36 C           6.2442   -0.6579   28.1337 C.ar    1  UNL1       -0.0021
     37 C           5.3311   -0.1126   29.1914 C.ar    1  UNL1       -0.0026
     38 C           5.9044    0.5674   30.3993 C.ar    1  UNL1       -0.0003
     39 C           7.3908    0.7020   30.5494 C.ar    1  UNL1       -0.0000
     40 C           8.3039    0.1567   29.4916 C.ar    1  UNL1       -0.0003
     41 C           7.7306   -0.5233   28.2838 C.ar    1  UNL1       -0.0026
     42 C           4.2506   -1.0756   26.5209 C.3     1  UNL1        0.1611
     43 O           3.1349   -1.8565   27.1497 O.3     1  UNL1       -0.3799
     44 H           3.2076   -2.7889   26.8920 H       1  UNL1        0.2105
@<TRIPOS>BOND
     1    12    13    1
     2    13    14    1
     3    14    15    1
     4    15    16    1
     5    16     7    1
     6     7     8   ar
     7     8     9   ar
     8     9    10   ar
     9    10     1    1
    10     1     2   ar
    11     2     3   ar
    12     3     4   ar
    13     4    19    1
    14    19    21    1
    15    21    22   ar
    16    22    23   ar
    17    23    24   ar
    18    24    25   ar
    19    25    26   ar
    20    25    27    1
    21    27    28    1
    22    27    29    1
    23    27    30    1
    24    30    31    1
    25    31    32    2
    26     4     5   ar
    27     5     6   ar
    28     6    33    1
    29    33    35    1
    30    35    42    1
    31    42    43    1
    32    35    36    1
    33    36    37   ar
    34    37    38   ar
    35    38    39   ar
    36    39    40   ar
    37    40    41   ar
    38    10    11   ar
    39    16    17    1
    40    17    18    1
    41    18    13    1
    42    11     7   ar
    43     6     1   ar
    44    41    36   ar
    45    26    21   ar
    46    31    24    1
    47    19    20    1
    48    33    34    1
    49    43    44    1
@<TRIPOS>MOLECULE
*****
 44 49 0 0 0
SMALL
GASTEIGER

@<TRIPOS>ATOM
      1 C           3.5140    2.1326   18.2930 C.ar    1  UNL1        0.1066
      2 C           3.8068    3.5821   18.0420 C.ar    1  UNL1        0.1093
      3 N           2.6833    4.5738   17.9768 N.ar    1  UNL1       -0.2118
      4 C           1.2670    4.1160   18.1626 C.ar    1  UNL1        0.2218
      5 N           0.9742    2.6664   18.4136 N.ar    1  UNL1       -0.1986
      6 C           2.0977    1.6747   18.4788 C.ar    1  UNL1        0.1377
      7 C           6.2846   -0.4289   19.2028 C.ar    1  UNL1        0.1804
      8 N           6.4481   -0.3416   17.7142 N.ar    1  UNL1       -0.0602
      9 O           5.4301    0.6286   17.1922 O.2     1  UNL1       -0.3326
     10 C           4.6374    1.1409   18.3582 C.ar    1  UNL1        0.2639
     11 N           5.1656    0.4873   19.6007 N.ar    1  UNL1       -0.1910
     12 C           9.5359   -3.8435   22.9135 C.3     1  UNL1        0.0896
     13 N           8.7231   -2.9899   21.9858 N.3     1  UNL1       -0.2715
     14 C           8.5203   -3.4133   20.5611 C.3     1  UNL1        0.0726
     15 C           7.7075   -2.5596   19.6335 C.3     1  UNL1        0.0250
     16 C           7.0974   -1.2826   20.1304 C.3     1  UNL1        0.0648
     17 C           7.3002   -0.8592   21.5551 C.3     1  UNL1        0.0250
     18 C           8.1130   -1.7128   22.4828 C.3     1  UNL1        0.0726
     19 N           0.1435    5.1077   18.0974 N.pl3   1  UNL1       -0.2825
     20 H           0.3289    6.0473   17.8693 H       1  UNL1        0.1551
     21 C          -1.2625    4.6679   18.3798 C.ar    1  UNL1        0.0503
     22 C          -2.2323    4.4847   17.2503 C.ar    1  UNL1        0.0149
     23 C          -3.6382    4.0449   17.5327 C.ar    1  UNL1        0.0075
     24 C          -4.0744    3.7883   18.9447 C.ar    1  UNL1        0.0750
     25 C          -3.1047    3.9714   20.0743 C.ar    1  UNL1        0.0211
     26 C          -1.6987    4.4112   19.7919 C.ar    1  UNL1        0.0139
     27 C          -3.8166    3.6456   21.3538 C.3     1  UNL1        0.1553
     28 C          -2.4980    3.9764   21.9878 C.3     1  UNL1        0.0484
     29 C          -4.2528    3.3889   22.7658 C.3     1  UNL1        0.0484
     30 O          -5.2263    3.2610   21.0150 O.3     1  UNL1       -0.4485
     31 C          -5.3857    3.3492   19.5261 C.2     1  UNL1        0.3411
     32 O          -6.6367    3.0508   18.7541 O.2     1  UNL1       -0.2449
     33 N           1.8050    0.2251   18.7298 N.pl3   1  UNL1       -0.3138
     34 H           1.6657   -0.3874   17.9717 H       1  UNL1        0.1485
     35 CA          1.7243   -0.2912   20.1359 C.3     1  UNL1        0.1227
     36 C           2.6730   -1.3568   20.5991 C.ar    1  UNL1       -0.0021
     37 C           3.1078   -2.4367   19.6532 C.ar    1  UNL1       -0.0026
     38 C           4.0565   -3.5022   20.1165 C.ar    1  UNL1       -0.0003
     39 C           4.5704   -3.4879   21.5256 C.ar    1  UNL1       -0.0000
     40 C           4.1356   -2.4079   22.4715 C.ar    1  UNL1       -0.0003
     41 C           3.1869   -1.3424   22.0083 C.ar    1  UNL1       -0.0026
     42 C           0.6950    0.2580   21.0786 C.3     1  UNL1        0.1611
     43 O          -0.5085    0.9739   20.5409 O.3     1  UNL1       -0.3799
     44 H          -0.2292    1.7961   20.1086 H       1  UNL1        0.2105
@<TRIPOS>BOND
     1    12    13    1
     2    13    14    1
     3    14    15    1
     4    15    16    1
     5    16     7    1
     6     7     8   ar
     7     8     9   ar
     8     9    10   ar
     9    10     1    1
    10     1     2   ar
    11     2     3   ar
    12     3     4   ar
    13     4    19    1
    14    19    21    1
    15    21    22   ar
    16    22    23   ar
    17    23    24   ar
    18    24    25   ar
    19    25    26   ar
    20    25    27    1
    21    27    28    1
    22    27    29    1
    23    27    30    1
    24    30    31    1
    25    31    32    2
    26     4     5   ar
    27     5     6   ar
    28     6    33    1
    29    33    35    1
    30    35    42    1
    31    42    43    1
    32    35    36    1
    33    36    37   ar
    34    37    38   ar
    35    38    39   ar
    36    39    40   ar
    37    40    41   ar
    38    10    11   ar
    39    16    17    1
    40    17    18    1
    41    18    13    1
    42    11     7   ar
    43     6     1   ar
    44    41    36   ar
    45    26    21   ar
    46    31    24    1
    47    19    20    1
    48    33    34    1
    49    43    44    1
@<TRIPOS>MOLECULE
*****
 44 49 0 0 0
SMALL
GASTEIGER

@<TRIPOS>ATOM
      1 C           1.5908    1.2233   25.3494 C.ar    1  UNL1        0.1066
      2 C           0.2757    1.4817   24.6758 C.ar    1  UNL1        0.1093
      3 N           0.1502    1.3220   23.1896 N.ar    1  UNL1       -0.2118
      4 C           1.3398    0.9040   22.3770 C.ar    1  UNL1        0.2218
      5 N           2.6549    0.6457   23.0507 N.ar    1  UNL1       -0.1986
      6 C           2.7804    0.8054   24.5369 C.ar    1  UNL1        0.1377
      7 C           1.5196    2.2683   29.0868 C.ar    1  UNL1        0.1804
      8 N           2.2995    0.9890   29.1584 N.ar    1  UNL1       -0.0602
      9 O           2.4211    0.4418   27.7671 O.2     1  UNL1       -0.3326
     10 C           1.7164    1.3830   26.8356 C.ar    1  UNL1        0.2639
     11 N           1.1592    2.5118   27.6512 N.ar    1  UNL1       -0.1910
     12 C           0.0923    5.7930   33.7280 C.3     1  UNL1        0.0896
     13 N           0.4491    4.9118   32.5677 N.3     1  UNL1       -0.2715
     14 C           1.0431    3.5559   32.8105 C.3     1  UNL1        0.0726
     15 C           1.3999    2.6748   31.6501 C.3     1  UNL1        0.0250
     16 C           1.1628    3.1495   30.2471 C.3     1  UNL1        0.0648
     17 C           0.5689    4.5053   30.0044 C.3     1  UNL1        0.0250
     18 C           0.2120    5.3865   31.1647 C.3     1  UNL1        0.0726
     19 N           1.2142    0.7444   20.8909 N.pl3   1  UNL1       -0.2825
     20 H           0.3543    0.9259   20.4472 H       1  UNL1        0.1551
     21 C           2.3989    0.3081   20.0807 C.ar    1  UNL1        0.0503
     22 C           3.2925    1.3328   19.4470 C.ar    1  UNL1        0.0149
     23 C           4.4770    0.8965   18.6368 C.ar    1  UNL1        0.0075
     24 C           4.7680   -0.5644   18.4603 C.ar    1  UNL1        0.0750
     25 C           3.8744   -1.5890   19.0940 C.ar    1  UNL1        0.0211
     26 C           2.6898   -1.1527   19.9042 C.ar    1  UNL1        0.0139
     27 C           4.4085   -2.9473   18.7481 C.3     1  UNL1        0.1553
     28 C           3.2456   -3.4379   19.5587 C.3     1  UNL1        0.0484
     29 C           4.6995   -4.4082   18.5716 C.3     1  UNL1        0.0484
     30 O           5.6322   -2.7622   17.9005 O.3     1  UNL1       -0.4485
     31 C           5.8544   -1.2895   17.7227 C.2     1  UNL1        0.3411
     32 O           6.9676   -0.6535   16.9440 O.2     1  UNL1       -0.2449
     33 N           4.0955    0.5470   25.2106 N.pl3   1  UNL1       -0.3138
     34 H           4.5832    1.2875   25.6385 H       1  UNL1        0.1485
     35 CA          4.6674   -0.8395   25.2323 C.3     1  UNL1        0.1227
     36 C           5.2580   -1.4268   23.9848 C.ar    1  UNL1       -0.0021
     37 C           6.0399   -0.5584   23.0444 C.ar    1  UNL1       -0.0026
     38 C           6.6305   -1.1457   21.7968 C.ar    1  UNL1       -0.0003
     39 C           6.4392   -2.6014   21.4897 C.ar    1  UNL1       -0.0000
     40 C           5.6572   -3.4699   22.4302 C.ar    1  UNL1       -0.0003
     41 C           5.0666   -2.8826   23.6777 C.ar    1  UNL1       -0.0026
     42 C           4.6487   -1.6387   26.5015 C.3     1  UNL1        0.1611
     43 O           3.3405   -2.0263   27.1246 O.3     1  UNL1       -0.3799
     44 H           2.8781   -1.2293   27.4278 H       1  UNL1        0.2105
@<TRIPOS>BOND
     1    12    13    1
     2    13    14    1
     3    14    15    1
     4    15    16    1
     5    16     7    1
     6     7     8   ar
     7     8     9   ar
     8     9    10   ar
     9    10     1    1
    10     1     2   ar
    11     2     3   ar
    12     3     4   ar
    13     4    19    1
    14    19    21    1
    15    21    22   ar
    16    22    23   ar
    17    23    24   ar
    18    24    25   ar
    19    25    26   ar
    20    25    27    1
    21    27    28    1
    22    27    29    1
    23    27    30    1
    24    30    31    1
    25    31    32    2
    26     4     5   ar
    27     5     6   ar
    28     6    33    1
    29    33    35    1
    30    35    42    1
    31    42    43    1
    32    35    36    1
    33    36    37   ar
    34    37    38   ar
    35    38    39   ar
    36    39    40   ar
    37    40    41   ar
    38    10    11   ar
    39    16    17    1
    40    17    18    1
    41    18    13    1
    42    11     7   ar
    43     6     1   ar
    44    41    36   ar
    45    26    21   ar
    46    31    24    1
    47    19    20    1
    48    33    34    1
    49    43    44    1
@<TRIPOS>MOLECULE
*****
 44 49 0 0 0
SMALL
GASTEIGER

@<TRIPOS>ATOM
      1 C           1.5057    1.6135   22.1869 C.ar    1  UNL1        0.1066
      2 C           0.9298    2.9375   22.5935 C.ar    1  UNL1        0.1093
      3 N          -0.3193    3.4456   21.9366 N.ar    1  UNL1       -0.2118
      4 C          -0.9926    2.6297   20.8731 C.ar    1  UNL1        0.2218
      5 N          -0.4167    1.3057   20.4664 N.ar    1  UNL1       -0.1986
      6 C           0.8325    0.7976   21.1234 C.ar    1  UNL1        0.1377
      7 C           4.4145   -0.3778   23.8113 C.ar    1  UNL1        0.1804
      8 N           4.9395    1.0247   23.8979 N.ar    1  UNL1       -0.0602
      9 O           3.9137    1.9414   23.2999 O.2     1  UNL1       -0.3326
     10 C           2.7548    1.1054   22.8438 C.ar    1  UNL1        0.2639
     11 N           3.0643   -0.3279   23.1598 N.ar    1  UNL1       -0.1910
     12 C           7.2225   -5.3196   25.7334 C.3     1  UNL1        0.0896
     13 N           6.5205   -4.0841   25.2529 N.3     1  UNL1       -0.2715
     14 C           6.0534   -3.9922   23.8303 C.3     1  UNL1        0.0726
     15 C           5.3514   -2.7567   23.3499 C.3     1  UNL1        0.0250
     16 C           5.1165   -1.6132   24.2918 C.3     1  UNL1        0.0648
     17 C           5.5836   -1.7052   25.7143 C.3     1  UNL1        0.0250
     18 C           6.2856   -2.9406   26.1948 C.3     1  UNL1        0.0726
     19 N          -2.2417    3.1378   20.2162 N.pl3   1  UNL1       -0.2825
     20 H          -2.2668    3.2680   19.2407 H       1  UNL1        0.1551
     21 C          -3.4526    3.4475   21.0456 C.ar    1  UNL1        0.0503
     22 C          -4.7833    3.6499   20.3837 C.ar    1  UNL1        0.0149
     23 C          -5.9941    3.9595   21.2132 C.ar    1  UNL1        0.0075
     24 C          -5.8742    4.0668   22.7045 C.ar    1  UNL1        0.0750
     25 C          -4.5435    3.8644   23.3664 C.ar    1  UNL1        0.0211
     26 C          -3.3327    3.5547   22.5370 C.ar    1  UNL1        0.0139
     27 C          -4.7313    4.0308   24.8453 C.3     1  UNL1        0.1553
     28 C          -3.2594    3.7480   24.9050 C.3     1  UNL1        0.0484
     29 C          -4.6114    4.1380   26.3366 C.3     1  UNL1        0.0484
     30 O          -6.1781    4.3360   25.0974 O.3     1  UNL1       -0.4485
     31 C          -6.8845    4.3583   23.7743 C.2     1  UNL1        0.3411
     32 O          -8.3447    4.6252   23.5589 O.2     1  UNL1       -0.2449
     33 N           1.4084   -0.5264   20.7168 N.pl3   1  UNL1       -0.3138
     34 H           1.1504   -1.3446   21.1997 H       1  UNL1        0.1485
     35 CA          2.3774   -0.6037   19.5743 C.3     1  UNL1        0.1227
     36 C           3.4974   -1.6010   19.6070 C.ar    1  UNL1       -0.0021
     37 C           3.2130   -3.0559   19.3782 C.ar    1  UNL1       -0.0026
     38 C           4.3330   -4.0532   19.4109 C.ar    1  UNL1       -0.0003
     39 C           5.7373   -3.5956   19.6724 C.ar    1  UNL1       -0.0000
     40 C           6.0217   -2.1407   19.9012 C.ar    1  UNL1       -0.0003
     41 C           4.9018   -1.1434   19.8685 C.ar    1  UNL1       -0.0026
     42 C           2.2264    0.3162   18.3992 C.3     1  UNL1        0.1611
     43 O           0.8637    0.6039   17.8422 O.3     1  UNL1       -0.3799
     44 H           0.4919   -0.2073   17.4620 H       1  UNL1        0.2105
@<TRIPOS>BOND
     1    12    13    1
     2    13    14    1
     3    14    15    1
     4    15    16    1
     5    16     7    1
     6     7     8   ar
     7     8     9   ar
     8     9    10   ar
     9    10     1    1
    10     1     2   ar
    11     2     3   ar
    12     3     4   ar
    13     4    19    1
    14    19    21    1
    15    21    22   ar
    16    22    23   ar
    17    23    24   ar
    18    24    25   ar
    19    25    26   ar
    20    25    27    1
    21    27    28    1
    22    27    29    1
    23    27    30    1
    24    30    31    1
    25    31    32    2
    26     4     5   ar
    27     5     6   ar
    28     6    33    1
    29    33    35    1
    30    35    42    1
    31    42    43    1
    32    35    36    1
    33    36    37   ar
    34    37    38   ar
    35    38    39   ar
    36    39    40   ar
    37    40    41   ar
    38    10    11   ar
    39    16    17    1
    40    17    18    1
    41    18    13    1
    42    11     7   ar
    43     6     1   ar
    44    41    36   ar
    45    26    21   ar
    46    31    24    1
    47    19    20    1
    48    33    34    1
    49    43    44    1
