@<TRIPOS>MOLECULE
*****
 32 35 0 0 0
SMALL
GASTEIGER

@<TRIPOS>ATOM
      1 C           7.8972   -7.4836   26.6067 C.3     1  UNL1        0.2129
      2 C           7.4573   -6.2975   27.4128 C.ar    1  UNL1        0.1110
      3 N           6.9560   -4.9949   26.8634 N.ar    1  UNL1       -0.2412
      4 C           6.6304   -4.0982   28.0209 C.ar    1  UNL1        0.0875
      5 C           6.0995   -2.6968   28.0865 C.ar    1  UNL1        0.0196
      6 C           5.8686   -2.0439   29.4170 C.ar    1  UNL1        0.0016
      7 C           6.1686   -2.7923   30.6819 C.ar    1  UNL1        0.0021
      8 C           6.6996   -4.1936   30.6162 C.ar    1  UNL1        0.0081
      9 C           6.9305   -4.8465   29.2857 C.ar    1  UNL1        0.0482
     10 S           7.4415   -6.2058   28.9099 S.2     1  UNL1       -0.0693
     11 C           5.9377   -2.1393   32.0125 C.ar    1  UNL1        0.0194
     12 C           4.6307   -2.3282   32.7239 C.ar    1  UNL1        0.0055
     13 C           4.3998   -1.6752   34.0544 C.ar    1  UNL1        0.0497
     14 C           5.4759   -0.8333   34.6735 C.ar    1  UNL1        0.2223
     15 F           5.2451   -0.1803   36.0040 F       1  UNL1       -0.1832
     16 N           6.7829   -0.6444   33.9620 N.ar    1  UNL1       -0.2165
     17 C           7.0138   -1.2974   32.6316 C.ar    1  UNL1        0.1012
     18 C           8.1473   -8.7989   27.2829 C.2     1  UNL1        0.2430
     19 O           9.5191   -9.1328   27.7898 O.2     1  UNL1       -0.2735
     20 N           7.0258   -9.7805   27.4522 N.am    1  UNL1       -0.2955
     21 H           6.1255   -9.5614   27.1195 H       1  UNL1        0.1499
     22 C           7.2760  -11.0959   28.1284 C.3     1  UNL1        0.1757
     23 C           6.1287  -12.0130   28.4325 C.2     1  UNL1        0.2426
     24 O           6.3690  -13.2940   29.1752 O.2     1  UNL1       -0.2733
     25 N           4.7411  -11.6493   27.9939 N.am    1  UNL1       -0.3000
     26 H           4.5835  -10.8086   27.5064 H       1  UNL1        0.1496
     27 C           3.5938  -12.5665   28.2979 C.3     1  UNL1        0.1310
     28 C           2.5902  -12.6781   29.4071 C.3     1  UNL1        0.1642
     29 O           1.9713  -13.8636   28.7279 O.3     1  UNL1       -0.3501
     30 C           2.9749  -13.7521   27.6187 C.3     1  UNL1        0.1642
     31 N           8.2766   -7.2250   23.6420 N.1     1  UNL1       -0.1950
     32 C           8.0869   -7.3543   25.1244 C.1     1  UNL1        0.0881
@<TRIPOS>BOND
     1    31    32    3
     2    32     1    1
     3     1    18    1
     4    18    19    2
     5    18    20   am
     6    20    22    1
     7    22    23    1
     8    23    24    2
     9    23    25   am
    10    25    27    1
    11    27    28    1
    12    28    29    1
    13    29    30    1
    14     1     2    1
    15     2     3   ar
    16     3     4   ar
    17     4     5   ar
    18     5     6   ar
    19     6     7   ar
    20     7    11    1
    21    11    12   ar
    22    12    13   ar
    23    13    14   ar
    24    14    15    1
    25    14    16   ar
    26    16    17   ar
    27     7     8   ar
    28     8     9   ar
    29     9    10   ar
    30    30    27    1
    31    10     2   ar
    32     9     4   ar
    33    17    11   ar
    34    20    21    1
    35    25    26    1
@<TRIPOS>MOLECULE
*****
 32 35 0 0 0
SMALL
GASTEIGER

@<TRIPOS>ATOM
      1 C           7.7061   -6.4795   27.5626 C.3     1  UNL1        0.2129
      2 C           7.7859   -6.0668   26.1227 C.ar    1  UNL1        0.1110
      3 N           8.6458   -6.7011   25.0700 N.ar    1  UNL1       -0.2412
      4 C           8.4111   -5.9736   23.7794 C.ar    1  UNL1        0.0875
      5 C           8.9827   -6.1581   22.4049 C.ar    1  UNL1        0.0196
      6 C           8.5493   -5.2587   21.2855 C.ar    1  UNL1        0.0016
      7 C           7.5444   -4.1746   21.5406 C.ar    1  UNL1        0.0021
      8 C           6.9729   -3.9901   22.9151 C.ar    1  UNL1        0.0081
      9 C           7.4062   -4.8895   24.0345 C.ar    1  UNL1        0.0482
     10 S           7.0198   -4.9471   25.4827 S.2     1  UNL1       -0.0693
     11 C           7.1111   -3.2751   20.4211 C.ar    1  UNL1        0.0194
     12 C           5.6640   -2.9108   20.2691 C.ar    1  UNL1        0.0055
     13 C           5.2307   -2.0113   19.1496 C.ar    1  UNL1        0.0497
     14 C           6.2445   -1.4762   18.1822 C.ar    1  UNL1        0.2223
     15 F           5.8112   -0.5767   17.0627 F       1  UNL1       -0.1832
     16 N           7.6916   -1.8406   18.3342 N.ar    1  UNL1       -0.2165
     17 C           8.1249   -2.7401   19.4537 C.ar    1  UNL1        0.1012
     18 C           8.1727   -7.8429   27.9789 C.2     1  UNL1        0.2430
     19 O           9.2586   -7.9834   29.0042 O.2     1  UNL1       -0.2735
     20 N           7.5533   -9.0659   27.3701 N.am    1  UNL1       -0.2955
     21 H           6.8406   -8.9737   26.6972 H       1  UNL1        0.1499
     22 C           8.0199  -10.4294   27.7865 C.3     1  UNL1        0.1757
     23 C           7.0187  -11.5030   28.0948 C.2     1  UNL1        0.2426
     24 O           7.4848  -12.8592   28.5348 O.2     1  UNL1       -0.2733
     25 N           5.5515  -11.2204   27.9632 N.am    1  UNL1       -0.3000
     26 H           5.2456  -10.3303   27.6744 H       1  UNL1        0.1496
     27 C           4.5503  -12.2939   28.2715 C.3     1  UNL1        0.1310
     28 C           4.2773  -13.6722   27.7464 C.3     1  UNL1        0.1642
     29 O           3.1344  -13.8122   28.7076 O.3     1  UNL1       -0.3501
     30 C           3.4073  -12.4339   29.2328 C.3     1  UNL1        0.1642
     31 N           6.6134   -4.5782   29.6098 N.1     1  UNL1       -0.1950
     32 C           7.1598   -5.5289   28.5862 C.1     1  UNL1        0.0881
@<TRIPOS>BOND
     1    31    32    3
     2    32     1    1
     3     1    18    1
     4    18    19    2
     5    18    20   am
     6    20    22    1
     7    22    23    1
     8    23    24    2
     9    23    25   am
    10    25    27    1
    11    27    28    1
    12    28    29    1
    13    29    30    1
    14     1     2    1
    15     2     3   ar
    16     3     4   ar
    17     4     5   ar
    18     5     6   ar
    19     6     7   ar
    20     7    11    1
    21    11    12   ar
    22    12    13   ar
    23    13    14   ar
    24    14    15    1
    25    14    16   ar
    26    16    17   ar
    27     7     8   ar
    28     8     9   ar
    29     9    10   ar
    30    30    27    1
    31    10     2   ar
    32     9     4   ar
    33    17    11   ar
    34    20    21    1
    35    25    26    1
@<TRIPOS>MOLECULE
*****
 32 35 0 0 0
SMALL
GASTEIGER

@<TRIPOS>ATOM
      1 C           7.7186   -6.6202   26.5198 C.3     1  UNL1        0.2129
      2 C           7.4046   -5.8058   27.7397 C.ar    1  UNL1        0.1110
      3 N           7.4917   -6.2773   29.1610 N.ar    1  UNL1       -0.2412
      4 C           7.0893   -5.1398   30.0523 C.ar    1  UNL1        0.0875
      5 C           6.9853   -5.0218   31.5440 C.ar    1  UNL1        0.0196
      6 C           6.5455   -3.7293   32.1652 C.ar    1  UNL1        0.0016
      7 C           6.2097   -2.5548   31.2947 C.ar    1  UNL1        0.0021
      8 C           6.3137   -2.6728   29.8030 C.ar    1  UNL1        0.0081
      9 C           6.7535   -3.9653   29.1818 C.ar    1  UNL1        0.0482
     10 S           6.9484   -4.3769   27.7526 S.2     1  UNL1       -0.0693
     11 C           5.7699   -1.2622   31.9159 C.ar    1  UNL1        0.0194
     12 C           5.7562   -0.0040   31.0994 C.ar    1  UNL1        0.0055
     13 C           5.3163    1.2885   31.7207 C.ar    1  UNL1        0.0497
     14 C           4.8902    1.3228   33.1585 C.ar    1  UNL1        0.2223
     15 F           4.4504    2.6153   33.7798 F       1  UNL1       -0.1832
     16 N           4.9040    0.0646   33.9750 N.ar    1  UNL1       -0.2165
     17 C           5.3438   -1.2279   33.3537 C.ar    1  UNL1        0.1012
     18 C           8.1782   -8.0406   26.6642 C.2     1  UNL1        0.2430
     19 O           9.3871   -8.5177   25.9150 O.2     1  UNL1       -0.2735
     20 N           7.4292   -8.9842   27.5579 N.am    1  UNL1       -0.2955
     21 H           6.6358   -8.6712   28.0496 H       1  UNL1        0.1499
     22 C           7.8889  -10.4047   27.7022 C.3     1  UNL1        0.1757
     23 C           6.9105  -11.4740   28.0889 C.2     1  UNL1        0.2426
     24 O           7.4023  -12.7636   28.6766 O.2     1  UNL1       -0.2733
     25 N           5.4405  -11.2538   27.8878 N.am    1  UNL1       -0.3000
     26 H           5.1178  -10.4074   27.5021 H       1  UNL1        0.1496
     27 C           4.4621  -12.3231   28.2744 C.3     1  UNL1        0.1310
     28 C           3.3829  -12.4497   29.3084 C.3     1  UNL1        0.1642
     29 O           3.0785  -13.8352   28.8212 O.3     1  UNL1       -0.3501
     30 C           4.1577  -13.7087   27.7871 C.3     1  UNL1        0.1642
     31 N           7.4273   -5.4079   23.7911 N.1     1  UNL1       -0.1950
     32 C           7.5729   -6.0141   25.1555 C.1     1  UNL1        0.0881
@<TRIPOS>BOND
     1    31    32    3
     2    32     1    1
     3     1    18    1
     4    18    19    2
     5    18    20   am
     6    20    22    1
     7    22    23    1
     8    23    24    2
     9    23    25   am
    10    25    27    1
    11    27    28    1
    12    28    29    1
    13    29    30    1
    14     1     2    1
    15     2     3   ar
    16     3     4   ar
    17     4     5   ar
    18     5     6   ar
    19     6     7   ar
    20     7    11    1
    21    11    12   ar
    22    12    13   ar
    23    13    14   ar
    24    14    15    1
    25    14    16   ar
    26    16    17   ar
    27     7     8   ar
    28     8     9   ar
    29     9    10   ar
    30    30    27    1
    31    10     2   ar
    32     9     4   ar
    33    17    11   ar
    34    20    21    1
    35    25    26    1
@<TRIPOS>MOLECULE
*****
 32 35 0 0 0
SMALL
GASTEIGER

@<TRIPOS>ATOM
      1 C          -1.8101    3.8309   18.9671 C.3     1  UNL1        0.2129
      2 C          -0.7477    2.8046   19.2277 C.ar    1  UNL1        0.1110
      3 N          -0.7755    1.7606   20.3045 N.ar    1  UNL1       -0.2412
      4 C           0.4840    0.9527   20.1996 C.ar    1  UNL1        0.0875
      5 C           1.0009   -0.2084   20.9960 C.ar    1  UNL1        0.0196
      6 C           2.3241   -0.8249   20.6509 C.ar    1  UNL1        0.0016
      7 C           3.1303   -0.2803   19.5093 C.ar    1  UNL1        0.0021
      8 C           2.6134    0.8809   18.7129 C.ar    1  UNL1        0.0081
      9 C           1.2903    1.4974   19.0580 C.ar    1  UNL1        0.0482
     10 S           0.5291    2.6419   18.4574 S.2     1  UNL1       -0.0693
     11 C           4.4535   -0.8968   19.1642 C.ar    1  UNL1        0.0194
     12 C           5.1901   -1.7122   20.1853 C.ar    1  UNL1        0.0055
     13 C           6.5134   -2.3287   19.8402 C.ar    1  UNL1        0.0497
     14 C           7.0999   -2.1299   18.4740 C.ar    1  UNL1        0.2223
     15 F           8.4230   -2.7464   18.1289 F       1  UNL1       -0.1832
     16 N           6.3632   -1.3145   17.4530 N.ar    1  UNL1       -0.2165
     17 C           5.0401   -0.6980   17.7981 C.ar    1  UNL1        0.1012
     18 C          -2.9386    4.0058   19.9396 C.2     1  UNL1        0.2430
     19 O          -3.5707    5.3541   20.1205 O.2     1  UNL1       -0.2735
     20 N          -3.4351    2.8325   20.7313 N.am    1  UNL1       -0.2955
     21 H          -3.0203    1.9476   20.6126 H       1  UNL1        0.1499
     22 C          -4.5637    3.0074   21.7038 C.3     1  UNL1        0.1757
     23 C          -4.3049    3.6111   23.0524 C.2     1  UNL1        0.2426
     24 O          -3.0282    4.3558   23.3082 O.2     1  UNL1       -0.2733
     25 N          -5.3227    3.4700   24.1451 N.am    1  UNL1       -0.3000
     26 H          -6.1606    2.9812   23.9772 H       1  UNL1        0.1496
     27 C          -5.0639    4.0736   25.4936 C.3     1  UNL1        0.1310
     28 C          -5.6921    5.1685   26.3039 C.3     1  UNL1        0.1642
     29 O          -4.6979    4.9273   27.4008 O.3     1  UNL1       -0.3501
     30 C          -4.0696    3.8324   26.5906 C.3     1  UNL1        0.1642
     31 N          -1.6777    5.5340   16.5009 N.1     1  UNL1       -0.1950
     32 C          -1.7439    4.6824   17.7341 C.1     1  UNL1        0.0881
@<TRIPOS>BOND
     1    31    32    3
     2    32     1    1
     3     1    18    1
     4    18    19    2
     5    18    20   am
     6    20    22    1
     7    22    23    1
     8    23    24    2
     9    23    25   am
    10    25    27    1
    11    27    28    1
    12    28    29    1
    13    29    30    1
    14     1     2    1
    15     2     3   ar
    16     3     4   ar
    17     4     5   ar
    18     5     6   ar
    19     6     7   ar
    20     7    11    1
    21    11    12   ar
    22    12    13   ar
    23    13    14   ar
    24    14    15    1
    25    14    16   ar
    26    16    17   ar
    27     7     8   ar
    28     8     9   ar
    29     9    10   ar
    30    30    27    1
    31    10     2   ar
    32     9     4   ar
    33    17    11   ar
    34    20    21    1
    35    25    26    1
@<TRIPOS>MOLECULE
*****
 32 35 0 0 0
SMALL
GASTEIGER

@<TRIPOS>ATOM
      1 C           7.2298   -4.9311   24.7088 C.3     1  UNL1        0.2129
      2 C           6.2515   -3.8859   24.2609 C.ar    1  UNL1        0.1110
      3 N           5.5391   -2.9075   25.1470 N.ar    1  UNL1       -0.2412
      4 C           4.6612   -2.0526   24.2820 C.ar    1  UNL1        0.0875
      5 C           3.7291   -0.9225   24.6044 C.ar    1  UNL1        0.0196
      6 C           2.9668   -0.2424   23.5061 C.ar    1  UNL1        0.0016
      7 C           3.1365   -0.6924   22.0853 C.ar    1  UNL1        0.0021
      8 C           4.0686   -1.8225   21.7629 C.ar    1  UNL1        0.0081
      9 C           4.8309   -2.5026   22.8612 C.ar    1  UNL1        0.0482
     10 S           5.8138   -3.6357   22.8482 S.2     1  UNL1       -0.0693
     11 C           2.3742   -0.0123   20.9870 C.ar    1  UNL1        0.0194
     12 C           0.9340    0.3547   21.1896 C.ar    1  UNL1        0.0055
     13 C           0.1716    1.0348   20.0913 C.ar    1  UNL1        0.0497
     14 C           0.8495    1.3479   18.7903 C.ar    1  UNL1        0.2223
     15 F           0.0872    2.0280   17.6920 F       1  UNL1       -0.1832
     16 N           2.2898    0.9809   18.5878 N.ar    1  UNL1       -0.2165
     17 C           3.0521    0.3008   19.6861 C.ar    1  UNL1        0.1012
     18 C           7.5034   -5.1247   26.1709 C.2     1  UNL1        0.2430
     19 O           8.9100   -5.0513   26.6868 O.2     1  UNL1       -0.2735
     20 N           6.3705   -5.3918   27.1170 N.am    1  UNL1       -0.2955
     21 H           5.4473   -5.4400   26.7784 H       1  UNL1        0.1499
     22 C           6.6442   -5.5854   28.5791 C.3     1  UNL1        0.1757
     23 C           6.6266   -4.4077   29.5079 C.2     1  UNL1        0.2426
     24 O           6.6432   -3.0143   28.9525 O.2     1  UNL1       -0.2733
     25 N           6.5922   -4.6232   30.9919 N.am    1  UNL1       -0.3000
     26 H           6.5812   -5.5377   31.3563 H       1  UNL1        0.1496
     27 C           6.5745   -3.4455   31.9206 C.3     1  UNL1        0.1310
     28 C           5.5150   -2.7269   32.7024 C.3     1  UNL1        0.1642
     29 O           6.5495   -1.7799   33.2340 O.3     1  UNL1       -0.3501
     30 C           7.6091   -2.4983   32.4523 C.3     1  UNL1        0.1642
     31 N           8.6391   -6.6341   22.6807 N.1     1  UNL1       -0.1950
     32 C           7.9344   -5.7826   23.6948 C.1     1  UNL1        0.0881
@<TRIPOS>BOND
     1    31    32    3
     2    32     1    1
     3     1    18    1
     4    18    19    2
     5    18    20   am
     6    20    22    1
     7    22    23    1
     8    23    24    2
     9    23    25   am
    10    25    27    1
    11    27    28    1
    12    28    29    1
    13    29    30    1
    14     1     2    1
    15     2     3   ar
    16     3     4   ar
    17     4     5   ar
    18     5     6   ar
    19     6     7   ar
    20     7    11    1
    21    11    12   ar
    22    12    13   ar
    23    13    14   ar
    24    14    15    1
    25    14    16   ar
    26    16    17   ar
    27     7     8   ar
    28     8     9   ar
    29     9    10   ar
    30    30    27    1
    31    10     2   ar
    32     9     4   ar
    33    17    11   ar
    34    20    21    1
    35    25    26    1
@<TRIPOS>MOLECULE
*****
 32 35 0 0 0
SMALL
GASTEIGER

@<TRIPOS>ATOM
      1 C           6.9694   -4.4948   24.1316 C.3     1  UNL1        0.2129
      2 C           6.0140   -3.8574   23.1667 C.ar    1  UNL1        0.1110
      3 N           5.6753   -4.3647   21.7964 N.ar    1  UNL1       -0.2412
      4 C           4.6815   -3.4217   21.1855 C.ar    1  UNL1        0.0875
      5 C           3.9918   -3.4148   19.8535 C.ar    1  UNL1        0.0196
      6 C           3.0267   -2.3178   19.5144 C.ar    1  UNL1        0.0016
      7 C           2.7511   -1.2278   20.5073 C.ar    1  UNL1        0.0021
      8 C           3.4408   -1.2347   21.8393 C.ar    1  UNL1        0.0081
      9 C           4.4059   -2.3316   22.1784 C.ar    1  UNL1        0.0482
     10 S           5.2295   -2.6009   23.4028 S.2     1  UNL1       -0.0693
     11 C           1.7859   -0.1308   20.1681 C.ar    1  UNL1        0.0194
     12 C           1.8844    0.5730   18.8471 C.ar    1  UNL1        0.0055
     13 C           0.9192    1.6701   18.5079 C.ar    1  UNL1        0.0497
     14 C          -0.1446    2.0632   19.4898 C.ar    1  UNL1        0.2223
     15 F          -1.1098    3.1601   19.1506 F       1  UNL1       -0.1832
     16 N          -0.2430    1.3593   20.8107 N.ar    1  UNL1       -0.2165
     17 C           0.7222    0.2624   21.1499 C.ar    1  UNL1        0.1012
     18 C           7.1617   -3.9045   25.4971 C.2     1  UNL1        0.2430
     19 O           8.2431   -2.8915   25.7309 O.2     1  UNL1       -0.2735
     20 N           6.2726   -4.3272   26.6289 N.am    1  UNL1       -0.2955
     21 H           5.5629   -4.9920   26.4755 H       1  UNL1        0.1499
     22 C           6.4649   -3.7368   27.9944 C.3     1  UNL1        0.1757
     23 C           5.6694   -2.5353   28.4109 C.2     1  UNL1        0.2426
     24 O           5.9786   -1.8429   29.7051 O.2     1  UNL1       -0.2733
     25 N           4.5646   -2.0263   27.5332 N.am    1  UNL1       -0.3000
     26 H           4.3616   -2.4808   26.6838 H       1  UNL1        0.1496
     27 C           3.7690   -0.8248   27.9497 C.3     1  UNL1        0.1310
     28 C           2.3888   -0.6029   28.4933 C.3     1  UNL1        0.1642
     29 O           2.6440    0.8744   28.5387 O.3     1  UNL1       -0.3501
     30 C           4.0243    0.6527   27.9950 C.3     1  UNL1        0.1642
     31 N           8.4958   -6.9500   23.3303 N.1     1  UNL1       -0.1950
     32 C           7.7326   -5.7223   23.7310 C.1     1  UNL1        0.0881
@<TRIPOS>BOND
     1    31    32    3
     2    32     1    1
     3     1    18    1
     4    18    19    2
     5    18    20   am
     6    20    22    1
     7    22    23    1
     8    23    24    2
     9    23    25   am
    10    25    27    1
    11    27    28    1
    12    28    29    1
    13    29    30    1
    14     1     2    1
    15     2     3   ar
    16     3     4   ar
    17     4     5   ar
    18     5     6   ar
    19     6     7   ar
    20     7    11    1
    21    11    12   ar
    22    12    13   ar
    23    13    14   ar
    24    14    15    1
    25    14    16   ar
    26    16    17   ar
    27     7     8   ar
    28     8     9   ar
    29     9    10   ar
    30    30    27    1
    31    10     2   ar
    32     9     4   ar
    33    17    11   ar
    34    20    21    1
    35    25    26    1
@<TRIPOS>MOLECULE
*****
 32 35 0 0 0
SMALL
GASTEIGER

@<TRIPOS>ATOM
      1 C           7.2566   -5.0203   25.5039 C.3     1  UNL1        0.2129
      2 C           7.0812   -4.7570   26.9702 C.ar    1  UNL1        0.1110
      3 N           7.2560   -5.7587   28.0730 N.ar    1  UNL1       -0.2412
      4 C           6.9831   -5.0666   29.3755 C.ar    1  UNL1        0.0875
      5 C           7.0030   -5.5533   30.7941 C.ar    1  UNL1        0.0196
      6 C           6.6794   -4.6105   31.9150 C.ar    1  UNL1        0.0016
      7 C           6.3360   -3.1810   31.6172 C.ar    1  UNL1        0.0021
      8 C           6.3161   -2.6943   30.1986 C.ar    1  UNL1        0.0081
      9 C           6.6397   -3.6371   29.0777 C.ar    1  UNL1        0.0482
     10 S           6.7003   -3.4458   27.5912 S.2     1  UNL1       -0.0693
     11 C           6.0124   -2.2383   32.7382 C.ar    1  UNL1        0.0194
     12 C           7.0315   -1.2361   33.1932 C.ar    1  UNL1        0.0055
     13 C           6.7079   -0.2933   34.3142 C.ar    1  UNL1        0.0497
     14 C           5.3652   -0.3528   34.9802 C.ar    1  UNL1        0.2223
     15 F           5.0415    0.5899   36.1011 F       1  UNL1       -0.1832
     16 N           4.3460   -1.3550   34.5251 N.ar    1  UNL1       -0.2165
     17 C           4.6696   -2.2977   33.4042 C.ar    1  UNL1        0.1012
     18 C           6.9107   -3.9568   24.5043 C.2     1  UNL1        0.2430
     19 O           7.9959   -3.1210   23.8927 O.2     1  UNL1       -0.2735
     20 N           5.4798   -3.7290   24.1163 N.am    1  UNL1       -0.2955
     21 H           4.7676   -4.2775   24.5177 H       1  UNL1        0.1499
     22 C           5.1340   -2.6654   23.1166 C.3     1  UNL1        0.1757
     23 C           5.4102   -2.8878   21.6591 C.2     1  UNL1        0.2426
     24 O           5.1016   -4.2147   21.0312 O.2     1  UNL1       -0.2733
     25 N           5.9949   -1.7833   20.8295 N.am    1  UNL1       -0.3000
     26 H           6.1974   -0.9125   21.2416 H       1  UNL1        0.1496
     27 C           6.2710   -2.0057   19.3720 C.3     1  UNL1        0.1310
     28 C           5.4265   -2.2678   18.1604 C.3     1  UNL1        0.1642
     29 O           6.6616   -2.3202   17.3109 O.3     1  UNL1       -0.3501
     30 C           7.5062   -2.0581   18.5224 C.3     1  UNL1        0.1642
     31 N           8.2989   -7.6741   24.5706 N.1     1  UNL1       -0.1950
     32 C           7.7777   -6.3472   25.0373 C.1     1  UNL1        0.0881
@<TRIPOS>BOND
     1    31    32    3
     2    32     1    1
     3     1    18    1
     4    18    19    2
     5    18    20   am
     6    20    22    1
     7    22    23    1
     8    23    24    2
     9    23    25   am
    10    25    27    1
    11    27    28    1
    12    28    29    1
    13    29    30    1
    14     1     2    1
    15     2     3   ar
    16     3     4   ar
    17     4     5   ar
    18     5     6   ar
    19     6     7   ar
    20     7    11    1
    21    11    12   ar
    22    12    13   ar
    23    13    14   ar
    24    14    15    1
    25    14    16   ar
    26    16    17   ar
    27     7     8   ar
    28     8     9   ar
    29     9    10   ar
    30    30    27    1
    31    10     2   ar
    32     9     4   ar
    33    17    11   ar
    34    20    21    1
    35    25    26    1
@<TRIPOS>MOLECULE
*****
 32 35 0 0 0
SMALL
GASTEIGER

@<TRIPOS>ATOM
      1 C           7.3396   -4.9826   25.5088 C.3     1  UNL1        0.2129
      2 C           6.7505   -4.3984   24.2590 C.ar    1  UNL1        0.1110
      3 N           7.1842   -4.7003   22.8552 N.ar    1  UNL1       -0.2412
      4 C           6.3261   -3.8983   21.9223 C.ar    1  UNL1        0.0875
      5 C           6.2980   -3.7912   20.4264 C.ar    1  UNL1        0.0196
      6 C           5.3058   -2.8865   19.7578 C.ar    1  UNL1        0.0016
      7 C           4.3417   -2.0889   20.5850 C.ar    1  UNL1        0.0021
      8 C           4.3698   -2.1960   22.0809 C.ar    1  UNL1        0.0081
      9 C           5.3620   -3.1007   22.7495 C.ar    1  UNL1        0.0482
     10 S           5.6243   -3.4098   24.1937 S.2     1  UNL1       -0.0693
     11 C           3.3495   -1.1842   19.9163 C.ar    1  UNL1        0.0194
     12 C           2.0171   -0.9290   20.5562 C.ar    1  UNL1        0.0055
     13 C           1.0249   -0.0242   19.8875 C.ar    1  UNL1        0.0497
     14 C           1.3652    0.6252   18.5789 C.ar    1  UNL1        0.2223
     15 F           0.3731    1.5299   17.9102 F       1  UNL1       -0.1832
     16 N           2.6977    0.3699   17.9390 N.ar    1  UNL1       -0.2165
     17 C           3.6898   -0.5348   18.6077 C.ar    1  UNL1        0.1012
     18 C           7.7363   -4.0837   26.6421 C.2     1  UNL1        0.2430
     19 O           8.8051   -3.0505   26.4412 O.2     1  UNL1       -0.2735
     20 N           7.0642   -4.2179   27.9764 N.am    1  UNL1       -0.2955
     21 H           6.3628   -4.8960   28.1083 H       1  UNL1        0.1499
     22 C           7.4610   -3.3190   29.1098 C.3     1  UNL1        0.1757
     23 C           6.4066   -2.6589   29.9480 C.2     1  UNL1        0.2426
     24 O           5.4024   -1.7464   29.3084 O.2     1  UNL1       -0.2733
     25 N           6.3563   -2.9113   31.4257 N.am    1  UNL1       -0.3000
     26 H           7.0154   -3.5101   31.8455 H       1  UNL1        0.1496
     27 C           5.3019   -2.2512   32.2639 C.3     1  UNL1        0.1310
     28 C           4.3351   -2.7163   33.3122 C.3     1  UNL1        0.1642
     29 O           3.8108   -1.3178   33.4493 O.3     1  UNL1       -0.3501
     30 C           4.7775   -0.8525   32.4010 C.3     1  UNL1        0.1642
     31 N           7.7243   -7.9487   25.7415 N.1     1  UNL1       -0.1950
     32 C           7.5319   -6.4656   25.6251 C.1     1  UNL1        0.0881
@<TRIPOS>BOND
     1    31    32    3
     2    32     1    1
     3     1    18    1
     4    18    19    2
     5    18    20   am
     6    20    22    1
     7    22    23    1
     8    23    24    2
     9    23    25   am
    10    25    27    1
    11    27    28    1
    12    28    29    1
    13    29    30    1
    14     1     2    1
    15     2     3   ar
    16     3     4   ar
    17     4     5   ar
    18     5     6   ar
    19     6     7   ar
    20     7    11    1
    21    11    12   ar
    22    12    13   ar
    23    13    14   ar
    24    14    15    1
    25    14    16   ar
    26    16    17   ar
    27     7     8   ar
    28     8     9   ar
    29     9    10   ar
    30    30    27    1
    31    10     2   ar
    32     9     4   ar
    33    17    11   ar
    34    20    21    1
    35    25    26    1
@<TRIPOS>MOLECULE
*****
 32 35 0 0 0
SMALL
GASTEIGER

@<TRIPOS>ATOM
      1 C           7.8964   -6.1524   28.3108 C.3     1  UNL1        0.2129
      2 C           7.3592   -5.2410   27.2475 C.ar    1  UNL1        0.1110
      3 N           6.8826   -3.8333   27.4511 N.ar    1  UNL1       -0.2412
      4 C           6.4331   -3.2995   26.1233 C.ar    1  UNL1        0.0875
      5 C           5.8685   -1.9713   25.7146 C.ar    1  UNL1        0.0196
      6 C           5.5026   -1.7209   24.2817 C.ar    1  UNL1        0.0016
      7 C           5.7012   -2.7986   23.2575 C.ar    1  UNL1        0.0021
      8 C           6.2658   -4.1268   23.6662 C.ar    1  UNL1        0.0081
      9 C           6.6318   -4.3772   25.0991 C.ar    1  UNL1        0.0482
     10 S           7.2041   -5.5771   25.7939 S.2     1  UNL1       -0.0693
     11 C           5.3353   -2.5481   21.8245 C.ar    1  UNL1        0.0194
     12 C           3.9333   -2.1529   21.4665 C.ar    1  UNL1        0.0055
     13 C           3.5673   -1.9024   20.0335 C.ar    1  UNL1        0.0497
     14 C           4.6035   -2.0471   18.9585 C.ar    1  UNL1        0.2223
     15 F           4.2376   -1.7966   17.5256 F       1  UNL1       -0.1832
     16 N           6.0055   -2.4423   19.3166 N.ar    1  UNL1       -0.2165
     17 C           6.3714   -2.6928   20.7495 C.ar    1  UNL1        0.1012
     18 C           7.9778   -5.6805   29.7323 C.2     1  UNL1        0.2430
     19 O           9.3097   -5.5839   30.4154 O.2     1  UNL1       -0.2735
     20 N           6.7272   -5.3051   30.4706 N.am    1  UNL1       -0.2955
     21 H           5.8530   -5.3685   30.0223 H       1  UNL1        0.1499
     22 C           6.8086   -4.8332   31.8922 C.3     1  UNL1        0.1757
     23 C           6.3323   -3.4577   32.2542 C.2     1  UNL1        0.2426
     24 O           7.2172   -2.2703   32.0148 O.2     1  UNL1       -0.2733
     25 N           4.9711   -3.2695   32.8555 N.am    1  UNL1       -0.3000
     26 H           4.3903   -4.0487   33.0126 H       1  UNL1        0.1496
     27 C           4.4947   -1.8939   33.2175 C.3     1  UNL1        0.1310
     28 C           4.4931   -1.0672   34.4691 C.3     1  UNL1        0.1642
     29 O           3.8210    0.0513   33.7294 O.3     1  UNL1       -0.3501
     30 C           3.8225   -0.7754   32.4778 C.3     1  UNL1        0.1642
     31 N           8.8082   -8.9193   27.5944 N.1     1  UNL1       -0.1950
     32 C           8.3523   -7.5358   27.9526 C.1     1  UNL1        0.0881
@<TRIPOS>BOND
     1    31    32    3
     2    32     1    1
     3     1    18    1
     4    18    19    2
     5    18    20   am
     6    20    22    1
     7    22    23    1
     8    23    24    2
     9    23    25   am
    10    25    27    1
    11    27    28    1
    12    28    29    1
    13    29    30    1
    14     1     2    1
    15     2     3   ar
    16     3     4   ar
    17     4     5   ar
    18     5     6   ar
    19     6     7   ar
    20     7    11    1
    21    11    12   ar
    22    12    13   ar
    23    13    14   ar
    24    14    15    1
    25    14    16   ar
    26    16    17   ar
    27     7     8   ar
    28     8     9   ar
    29     9    10   ar
    30    30    27    1
    31    10     2   ar
    32     9     4   ar
    33    17    11   ar
    34    20    21    1
    35    25    26    1
