@<TRIPOS>MOLECULE
*****
 60 65 0 0 0
SMALL
GASTEIGER

@<TRIPOS>ATOM
      1 N           6.5916   -2.2096   30.2373 N.3     1  UNL1       -0.2650
      2 C           6.9989   -1.0950   29.3199 C.3     1  UNL1        0.0900
      3 C           7.5968   -1.4069   27.9800 C.3     1  UNL1        0.0901
      4 N           7.7875   -2.8335   27.5576 N.3     1  UNL1       -0.2621
      5 C           7.3803   -3.9482   28.4750 C.3     1  UNL1        0.1510
      6 C           6.7824   -3.6363   29.8149 C.3     1  UNL1        0.0980
      7 C           7.5710   -5.3748   28.0526 C.2     1  UNL1        0.2386
      8 O           8.5974   -6.2286   28.7364 O.2     1  UNL1       -0.2736
      9 N           6.7354   -5.9475   26.9464 N.am    1  UNL1       -0.2961
     10 H           6.0618   -5.3871   26.4976 H       1  UNL1        0.1497
     11 C           6.9261   -7.3741   26.5239 C.3     1  UNL1        0.1939
     12 C           8.0122   -7.7298   25.5525 C.3     1  UNL1        0.4154
     13 F           9.0984   -8.0854   24.5809 F       1  UNL1       -0.1682
     14 F           7.5238   -6.6644   24.6163 F       1  UNL1       -0.1682
     15 F           8.5007   -8.7951   26.4886 F       1  UNL1       -0.1682
     16 C           5.9937   -1.8977   31.5771 C.3     1  UNL1        0.1147
     17 C           6.4327   -3.2390   32.0853 C.3     1  UNL1        0.0255
     18 C           5.5547   -0.5564   31.0689 C.3     1  UNL1        0.0255
     19 C           4.9873   -0.5672   35.0818 C.ar    1  UNL1        0.1675
     20 C           3.9639   -1.6443   34.8758 C.ar    1  UNL1        0.1392
     21 N           4.2162   -2.2738   33.5378 N.ar    1  UNL1       -0.2094
     22 C           5.3958   -1.5857   32.9170 C.ar    1  UNL1        0.2185
     23 O           5.8723   -0.5311   33.8712 O.2     1  UNL1       -0.4370
     24 C           4.0253    1.4510   38.3606 C.ar    1  UNL1        0.1579
     25 C           5.3406    2.0890   38.6969 C.ar    1  UNL1        0.1356
     26 N           6.5381    1.8415   37.8282 N.ar    1  UNL1       -0.2390
     27 C           6.4204    0.9561   36.6231 C.ar    1  UNL1        0.1021
     28 C           5.1051    0.3182   36.2868 C.ar    1  UNL1        0.0583
     29 C           3.9076    0.5656   37.1556 C.ar    1  UNL1        0.0432
     30 C           1.6759    0.7378   39.2102 C.3     1  UNL1        0.2525
     31 O           2.8278    1.6985   39.2294 O.3     1  UNL1       -0.4699
     32 C           8.3855   -3.1454   26.2178 C.3     1  UNL1        0.1021
     33 C           7.5333   -3.0892   24.9847 C.3     1  UNL1        0.1269
     34 O           6.1894   -3.7554   24.9708 O.3     1  UNL1       -0.3830
     35 H           6.0267   -4.1731   25.8310 H       1  UNL1        0.2104
     36 C           8.0248   -2.3667   23.7655 C.3     1  UNL1        0.0401
     37 C           7.0886   -2.0969   22.6251 C.3     1  UNL1        0.0833
     38 C           5.9658   -1.1163   22.7924 C.2     1  UNL1        0.2226
     39 O           6.1270    0.2968   22.3158 O.2     1  UNL1       -0.2751
     40 N           4.6820   -1.5489   23.4363 N.am    1  UNL1       -0.2999
     41 H           4.5762   -2.4764   23.7491 H       1  UNL1        0.1498
     42 C           3.5593   -0.5683   23.6036 C.3     1  UNL1        0.1278
     43 C           2.5972   -0.3305   22.4776 C.ar    1  UNL1        0.0320
     44 C           2.7579   -1.0732   21.1842 C.ar    1  UNL1        0.0004
     45 C           1.7959   -0.8353   20.0583 C.ar    1  UNL1       -0.0001
     46 C           0.6731    0.1453   20.2255 C.ar    1  UNL1        0.0031
     47 C           0.5124    0.8879   21.5188 C.ar    1  UNL1        0.0366
     48 C           1.4745    0.6501   22.6449 C.ar    1  UNL1        0.1362
     49 O           1.3138    1.3928   23.9381 O.3     1  UNL1       -0.4730
     50 C           2.2758    1.1549   25.0641 C.3     1  UNL1        0.2364
     51 C           3.3985    0.1743   24.8968 C.3     1  UNL1        0.1762
     52 O           4.3606   -0.0635   26.0229 O.3     1  UNL1       -0.3788
     53 H           4.1162    0.4918   26.7797 H       1  UNL1        0.2106
     54 C           7.2750   -2.8076   21.3174 C.3     1  UNL1        0.0355
     55 C           6.0895   -3.0958   20.4447 C.ar    1  UNL1       -0.0217
     56 C           5.0875   -4.1323   20.8590 C.ar    1  UNL1       -0.0043
     57 C           3.9020   -4.4204   19.9863 C.ar    1  UNL1       -0.0003
     58 C           3.7185   -3.6721   18.6993 C.ar    1  UNL1       -0.0000
     59 C           4.7205   -2.6356   18.2850 C.ar    1  UNL1       -0.0003
     60 C           5.9061   -2.3474   19.1577 C.ar    1  UNL1       -0.0043
@<TRIPOS>BOND
     1    30    31    1
     2    31    24    1
     3    24    25   ar
     4    25    26   ar
     5    26    27   ar
     6    27    28   ar
     7    28    19    1
     8    19    20   ar
     9    20    21   ar
    10    21    22   ar
    11    22    16    1
    12    16    17    1
    13    16    18    1
    14    16     1    1
    15     1     2    1
    16     2     3    1
    17     3     4    1
    18     4    32    1
    19    32    33    1
    20    33    34    1
    21    33    36    1
    22    37    36    1
    23    37    54    1
    24    54    55    1
    25    55    56   ar
    26    56    57   ar
    27    57    58   ar
    28    58    59   ar
    29    59    60   ar
    30    37    38    1
    31    38    39    2
    32    38    40   am
    33    42    40    1
    34    42    43    1
    35    43    44   ar
    36    44    45   ar
    37    45    46   ar
    38    46    47   ar
    39    47    48   ar
    40    48    49    1
    41    49    50    1
    42    50    51    1
    43    51    52    1
    44     4     5    1
    45     5     7    1
    46     7     8    2
    47     7     9   am
    48     9    11    1
    49    11    12    1
    50    12    13    1
    51    12    14    1
    52    12    15    1
    53     5     6    1
    54    22    23   ar
    55    28    29   ar
    56    29    24   ar
    57    23    19   ar
    58     6     1    1
    59    60    55   ar
    60    51    42    1
    61    48    43   ar
    62    34    35    1
    63    40    41    1
    64    52    53    1
    65     9    10    1
@<TRIPOS>MOLECULE
*****
 60 65 0 0 0
SMALL
GASTEIGER

@<TRIPOS>ATOM
      1 N           2.4888    2.0198   19.5675 N.3     1  UNL1       -0.2650
      2 C           3.5319    2.7970   20.3143 C.3     1  UNL1        0.0900
      3 C           4.9160    2.2395   20.4678 C.3     1  UNL1        0.0901
      4 N           5.2569    0.9047   19.8744 N.3     1  UNL1       -0.2621
      5 C           4.2138    0.1274   19.1275 C.3     1  UNL1        0.1510
      6 C           2.8298    0.6850   18.9740 C.3     1  UNL1        0.0980
      7 C           4.5548   -1.2073   18.5341 C.2     1  UNL1        0.2386
      8 O           4.8921   -1.3161   17.0766 O.2     1  UNL1       -0.2736
      9 N           4.5584   -2.4334   19.3983 N.am    1  UNL1       -0.2961
     10 H           4.3370   -2.3621   20.3549 H       1  UNL1        0.1497
     11 C           4.8993   -3.7682   18.8049 C.3     1  UNL1        0.1939
     12 C           4.1856   -5.0015   19.2733 C.3     1  UNL1        0.4154
     13 F           3.4718   -6.2349   19.7418 F       1  UNL1       -0.1682
     14 F           3.4398   -4.1850   20.2867 F       1  UNL1       -0.1682
     15 F           4.9314   -5.8180   18.2599 F       1  UNL1       -0.1682
     16 C           1.1048    2.5773   19.4140 C.3     1  UNL1        0.1147
     17 C           0.8237    1.5807   18.3287 C.3     1  UNL1        0.0255
     18 C           1.3859    3.5739   20.4992 C.3     1  UNL1        0.0255
     19 C          -2.5717    3.7822   19.7256 C.ar    1  UNL1        0.1675
     20 C          -2.2465    4.2035   18.3231 C.ar    1  UNL1        0.1392
     21 N          -0.8297    3.8034   18.0356 N.ar    1  UNL1       -0.2094
     22 C          -0.2793    3.1349   19.2605 C.ar    1  UNL1        0.2185
     23 O          -1.3559    3.1218   20.3049 O.2     1  UNL1       -0.4370
     24 C          -5.2174    4.5916   22.5707 C.ar    1  UNL1        0.1579
     25 C          -6.5042    4.3927   21.8260 C.ar    1  UNL1        0.1356
     26 N          -6.4802    3.9903   20.3812 N.ar    1  UNL1       -0.2390
     27 C          -5.1694    3.7868   19.6810 C.ar    1  UNL1        0.1021
     28 C          -3.8826    3.9857   20.4256 C.ar    1  UNL1        0.0583
     29 C          -3.9066    4.3881   21.8705 C.ar    1  UNL1        0.0432
     30 C          -5.4595    3.9586   25.0789 C.3     1  UNL1        0.2525
     31 O          -5.2415    4.9940   24.0155 O.3     1  UNL1       -0.4699
     32 C           6.6410    0.3472   20.0279 C.3     1  UNL1        0.1021
     33 C           6.9748   -0.5174   21.2073 C.3     1  UNL1        0.1269
     34 O           8.0916   -1.5143   21.1142 O.3     1  UNL1       -0.3830
     35 H           8.4905   -1.4715   20.2310 H       1  UNL1        0.2104
     36 C           6.1917   -0.3851   22.4798 C.3     1  UNL1        0.0401
     37 C           5.0849   -1.3509   22.7832 C.3     1  UNL1        0.0833
     38 C           5.3929   -2.6598   23.4480 C.2     1  UNL1        0.2226
     39 O           4.5819   -3.8778   23.1180 O.2     1  UNL1       -0.2751
     40 N           6.5120   -2.7508   24.4427 N.am    1  UNL1       -0.2999
     41 H           7.0443   -1.9514   24.6592 H       1  UNL1        0.1498
     42 C           6.8200   -4.0597   25.1074 C.3     1  UNL1        0.1278
     43 C           7.5747   -5.1202   24.3620 C.ar    1  UNL1        0.0320
     44 C           8.0214   -4.8718   22.9517 C.ar    1  UNL1        0.0004
     45 C           8.7761   -5.9323   22.2062 C.ar    1  UNL1       -0.0001
     46 C           9.0841   -7.2412   22.8710 C.ar    1  UNL1        0.0031
     47 C           8.6375   -7.4896   24.2812 C.ar    1  UNL1        0.0366
     48 C           7.8827   -6.4291   25.0267 C.ar    1  UNL1        0.1362
     49 O           7.4361   -6.6775   26.4369 O.3     1  UNL1       -0.4730
     50 C           6.6813   -5.6170   27.1824 C.3     1  UNL1        0.2364
     51 C           6.3733   -4.3081   26.5176 C.3     1  UNL1        0.1762
     52 O           5.6186   -3.2476   27.2631 O.3     1  UNL1       -0.3788
     53 H           5.4071   -3.5672   28.1542 H       1  UNL1        0.2106
     54 C           3.6700   -1.0079   22.4219 C.3     1  UNL1        0.0355
     55 C           2.8432   -0.1646   23.3466 C.ar    1  UNL1       -0.0217
     56 C           3.1552   -0.1332   24.8135 C.ar    1  UNL1       -0.0043
     57 C           2.3283    0.7101   25.7383 C.ar    1  UNL1       -0.0003
     58 C           1.1895    1.5219   25.1962 C.ar    1  UNL1       -0.0000
     59 C           0.8774    1.4905   23.7294 C.ar    1  UNL1       -0.0003
     60 C           1.7043    0.6472   22.8046 C.ar    1  UNL1       -0.0043
@<TRIPOS>BOND
     1    30    31    1
     2    31    24    1
     3    24    25   ar
     4    25    26   ar
     5    26    27   ar
     6    27    28   ar
     7    28    19    1
     8    19    20   ar
     9    20    21   ar
    10    21    22   ar
    11    22    16    1
    12    16    17    1
    13    16    18    1
    14    16     1    1
    15     1     2    1
    16     2     3    1
    17     3     4    1
    18     4    32    1
    19    32    33    1
    20    33    34    1
    21    33    36    1
    22    37    36    1
    23    37    54    1
    24    54    55    1
    25    55    56   ar
    26    56    57   ar
    27    57    58   ar
    28    58    59   ar
    29    59    60   ar
    30    37    38    1
    31    38    39    2
    32    38    40   am
    33    42    40    1
    34    42    43    1
    35    43    44   ar
    36    44    45   ar
    37    45    46   ar
    38    46    47   ar
    39    47    48   ar
    40    48    49    1
    41    49    50    1
    42    50    51    1
    43    51    52    1
    44     4     5    1
    45     5     7    1
    46     7     8    2
    47     7     9   am
    48     9    11    1
    49    11    12    1
    50    12    13    1
    51    12    14    1
    52    12    15    1
    53     5     6    1
    54    22    23   ar
    55    28    29   ar
    56    29    24   ar
    57    23    19   ar
    58     6     1    1
    59    60    55   ar
    60    51    42    1
    61    48    43   ar
    62    34    35    1
    63    40    41    1
    64    52    53    1
    65     9    10    1
@<TRIPOS>MOLECULE
*****
 60 65 0 0 0
SMALL
GASTEIGER

@<TRIPOS>ATOM
      1 N           4.0312   -1.6743   23.5409 N.3     1  UNL1       -0.2650
      2 C           3.5442   -1.3722   22.1547 C.3     1  UNL1        0.0900
      3 C           2.5347   -0.2848   21.9347 C.3     1  UNL1        0.0901
      4 N           2.0121    0.5006   23.1009 N.3     1  UNL1       -0.2621
      5 C           2.4991    0.1986   24.4872 C.3     1  UNL1        0.1510
      6 C           3.5086   -0.8888   24.7072 C.3     1  UNL1        0.0980
      7 C           1.9765    0.9840   25.6534 C.2     1  UNL1        0.2386
      8 O           2.7506    2.1586   26.1739 O.2     1  UNL1       -0.2736
      9 N           0.6797    0.5947   26.2991 N.am    1  UNL1       -0.2961
     10 H           0.1715   -0.1762   25.9574 H       1  UNL1        0.1497
     11 C           0.1571    1.3801   27.4653 C.3     1  UNL1        0.1939
     12 C          -0.9599    0.8286   28.3008 C.3     1  UNL1        0.4154
     13 F          -2.0769    0.2770   29.1364 F       1  UNL1       -0.1682
     14 F          -0.0118   -0.1564   28.9179 F       1  UNL1       -0.1682
     15 F          -1.9079    1.8136   27.6836 F       1  UNL1       -0.1682
     16 C           5.0407   -2.7617   23.7610 C.3     1  UNL1        0.1147
     17 C           4.5677   -3.4526   22.5164 C.3     1  UNL1        0.0255
     18 C           5.5137   -2.0707   25.0055 C.3     1  UNL1        0.0255
     19 C           7.4433   -5.5231   25.0522 C.ar    1  UNL1        0.1675
     20 C           7.7641   -5.5218   23.5869 C.ar    1  UNL1        0.1392
     21 N           6.9031   -4.4872   22.9248 N.ar    1  UNL1       -0.2094
     22 C           6.0502   -3.8491   23.9810 C.ar    1  UNL1        0.2185
     23 O           6.3841   -4.4893   25.2958 O.2     1  UNL1       -0.4370
     24 C           8.5299   -6.9646   28.5865 C.ar    1  UNL1        0.1579
     25 C           9.3279   -8.1645   28.1701 C.ar    1  UNL1        0.1356
     26 N           9.4977   -8.4839   26.7143 N.ar    1  UNL1       -0.2390
     27 C           8.8696   -7.6034   25.6750 C.ar    1  UNL1        0.1021
     28 C           8.0715   -6.4035   26.0915 C.ar    1  UNL1        0.0583
     29 C           7.9017   -6.0841   27.5472 C.ar    1  UNL1        0.0432
     30 C           7.2289   -5.7678   30.4906 C.3     1  UNL1        0.2525
     31 O           8.3600   -6.6452   30.0422 O.3     1  UNL1       -0.4699
     32 C           1.0026    1.5880   22.8808 C.3     1  UNL1        0.1021
     33 C           1.4553    3.0070   22.7042 C.3     1  UNL1        0.1269
     34 O           1.7921    3.8417   23.9042 O.3     1  UNL1       -0.3830
     35 H           1.6646    3.3163   24.7095 H       1  UNL1        0.2104
     36 C           1.5711    3.5915   21.3276 C.3     1  UNL1        0.0401
     37 C           0.3993    3.5457   20.3923 C.3     1  UNL1        0.0833
     38 C          -0.9483    4.0146   20.8549 C.2     1  UNL1        0.2226
     39 O          -1.2116    5.4804   21.0341 O.2     1  UNL1       -0.2751
     40 N          -2.0327    3.0177   21.1383 N.am    1  UNL1       -0.2999
     41 H          -1.8599    2.0556   21.0207 H       1  UNL1        0.1498
     42 C          -3.3803    3.4866   21.6008 C.3     1  UNL1        0.1278
     43 C          -4.4701    3.7394   20.6016 C.ar    1  UNL1        0.0320
     44 C          -4.2122    3.5233   19.1398 C.ar    1  UNL1        0.0004
     45 C          -5.3020    3.7762   18.1406 C.ar    1  UNL1       -0.0001
     46 C          -6.6497    4.2451   18.6032 C.ar    1  UNL1        0.0031
     47 C          -6.9076    4.4611   20.0649 C.ar    1  UNL1        0.0366
     48 C          -5.8178    4.2083   21.0642 C.ar    1  UNL1        0.1362
     49 O          -6.0757    4.4243   22.5259 O.3     1  UNL1       -0.4730
     50 C          -4.9859    4.1715   23.5251 C.3     1  UNL1        0.2364
     51 C          -3.6382    3.7026   23.0626 C.3     1  UNL1        0.1762
     52 O          -2.5484    3.4498   24.0619 O.3     1  UNL1       -0.3788
     53 H          -2.8787    3.6364   24.9546 H       1  UNL1        0.2106
     54 C           0.5752    3.0309   18.9944 C.3     1  UNL1        0.0355
     55 C           1.7754    2.2014   18.6460 C.ar    1  UNL1       -0.0217
     56 C           3.1149    2.8547   18.4757 C.ar    1  UNL1       -0.0043
     57 C           4.3151    2.0252   18.1273 C.ar    1  UNL1       -0.0003
     58 C           4.1758    0.5423   17.9494 C.ar    1  UNL1       -0.0000
     59 C           2.8364   -0.1110   18.1197 C.ar    1  UNL1       -0.0003
     60 C           1.6362    0.7185   18.4681 C.ar    1  UNL1       -0.0043
@<TRIPOS>BOND
     1    30    31    1
     2    31    24    1
     3    24    25   ar
     4    25    26   ar
     5    26    27   ar
     6    27    28   ar
     7    28    19    1
     8    19    20   ar
     9    20    21   ar
    10    21    22   ar
    11    22    16    1
    12    16    17    1
    13    16    18    1
    14    16     1    1
    15     1     2    1
    16     2     3    1
    17     3     4    1
    18     4    32    1
    19    32    33    1
    20    33    34    1
    21    33    36    1
    22    37    36    1
    23    37    54    1
    24    54    55    1
    25    55    56   ar
    26    56    57   ar
    27    57    58   ar
    28    58    59   ar
    29    59    60   ar
    30    37    38    1
    31    38    39    2
    32    38    40   am
    33    42    40    1
    34    42    43    1
    35    43    44   ar
    36    44    45   ar
    37    45    46   ar
    38    46    47   ar
    39    47    48   ar
    40    48    49    1
    41    49    50    1
    42    50    51    1
    43    51    52    1
    44     4     5    1
    45     5     7    1
    46     7     8    2
    47     7     9   am
    48     9    11    1
    49    11    12    1
    50    12    13    1
    51    12    14    1
    52    12    15    1
    53     5     6    1
    54    22    23   ar
    55    28    29   ar
    56    29    24   ar
    57    23    19   ar
    58     6     1    1
    59    60    55   ar
    60    51    42    1
    61    48    43   ar
    62    34    35    1
    63    40    41    1
    64    52    53    1
    65     9    10    1
@<TRIPOS>MOLECULE
*****
 60 65 0 0 0
SMALL
GASTEIGER

@<TRIPOS>ATOM
      1 N           4.1115   -1.6495   23.7166 N.3     1  UNL1       -0.2650
      2 C           3.6028   -1.3303   22.3421 C.3     1  UNL1        0.0900
      3 C           2.6000   -0.2314   22.1500 C.3     1  UNL1        0.0901
      4 N           2.1060    0.5483   23.3323 N.3     1  UNL1       -0.2621
      5 C           2.6147    0.2291   24.7069 C.3     1  UNL1        0.1510
      6 C           3.6175   -0.8698   24.8990 C.3     1  UNL1        0.0980
      7 C           2.1207    1.0088   25.8892 C.2     1  UNL1        0.2386
      8 O           2.7414    2.3318   26.2277 O.2     1  UNL1       -0.2736
      9 N           1.0059    0.4656   26.7332 N.am    1  UNL1       -0.2961
     10 H           0.5985   -0.4027   26.5110 H       1  UNL1        0.1497
     11 C           0.5118    1.2453   27.9155 C.3     1  UNL1        0.1939
     12 C          -0.6779    0.7604   28.6896 C.3     1  UNL1        0.4154
     13 F          -1.8677    0.2754   29.4637 F       1  UNL1       -0.1682
     14 F           0.2339    0.2045   29.7428 F       1  UNL1       -0.1682
     15 F          -1.5898    1.3163   27.6363 F       1  UNL1       -0.1682
     16 C           5.1143   -2.7484   23.9088 C.3     1  UNL1        0.1147
     17 C           4.6323   -3.4082   22.6509 C.3     1  UNL1        0.0255
     18 C           5.5963   -2.0885   25.1667 C.3     1  UNL1        0.0255
     19 C           7.5101   -5.5467   25.1314 C.ar    1  UNL1        0.1675
     20 C           7.8102   -5.5299   23.6618 C.ar    1  UNL1        0.1392
     21 N           6.9492   -4.4796   23.0249 N.ar    1  UNL1       -0.2094
     22 C           6.1170   -3.8472   24.1009 C.ar    1  UNL1        0.2185
     23 O           6.4637   -4.5068   25.4028 O.2     1  UNL1       -0.4370
     24 C           8.8861   -6.9007   28.5988 C.ar    1  UNL1        0.1579
     25 C           9.4149   -8.2433   28.1892 C.ar    1  UNL1        0.1356
     26 N           9.3087   -8.6870   26.7602 N.ar    1  UNL1       -0.2390
     27 C           8.6738   -7.7881   25.7410 C.ar    1  UNL1        0.1021
     28 C           8.1450   -6.4455   26.1506 C.ar    1  UNL1        0.0583
     29 C           8.2512   -6.0018   27.5796 C.ar    1  UNL1        0.0432
     30 C           8.2227   -5.2592   30.5003 C.3     1  UNL1        0.2525
     31 O           8.9922   -6.4569   30.0278 O.3     1  UNL1       -0.4699
     32 C           1.1033    1.6472   23.1401 C.3     1  UNL1        0.1021
     33 C           1.5679    3.0531   22.9004 C.3     1  UNL1        0.1269
     34 O           2.0118    3.9032   24.0537 O.3     1  UNL1       -0.3830
     35 H           1.9365    3.3959   24.8771 H       1  UNL1        0.2104
     36 C           1.5888    3.6088   21.5073 C.3     1  UNL1        0.0401
     37 C           0.3683    3.5078   20.6412 C.3     1  UNL1        0.0833
     38 C          -0.9657    3.9430   21.1712 C.2     1  UNL1        0.2226
     39 O          -1.2421    5.3992   21.4022 O.2     1  UNL1       -0.2751
     40 N          -2.0232    2.9222   21.4703 N.am    1  UNL1       -0.2999
     41 H          -1.8418    1.9665   21.3187 H       1  UNL1        0.1498
     42 C          -3.3572    3.3574   22.0004 C.3     1  UNL1        0.1278
     43 C          -3.5357    3.6072   23.4686 C.ar    1  UNL1        0.0320
     44 C          -2.3801    3.4216   24.4069 C.ar    1  UNL1        0.0004
     45 C          -2.5585    3.6713   25.8751 C.ar    1  UNL1       -0.0001
     46 C          -3.8925    4.1066   26.4052 C.ar    1  UNL1        0.0031
     47 C          -5.0481    4.2921   25.4670 C.ar    1  UNL1        0.0366
     48 C          -4.8697    4.0424   23.9987 C.ar    1  UNL1        0.1362
     49 O          -6.0253    4.2279   23.0605 O.3     1  UNL1       -0.4730
     50 C          -5.8468    3.9782   21.5923 C.3     1  UNL1        0.2364
     51 C          -4.5128    3.5430   21.0622 C.3     1  UNL1        0.1762
     52 O          -4.3344    3.2933   19.5939 O.3     1  UNL1       -0.3788
     53 H          -5.1723    3.4580   19.1338 H       1  UNL1        0.2106
     54 C           0.4819    2.9714   19.2449 C.3     1  UNL1        0.0355
     55 C           1.6790    2.1593   18.8484 C.ar    1  UNL1       -0.0217
     56 C           2.9937    2.8357   18.5951 C.ar    1  UNL1       -0.0043
     57 C           4.1909    2.0236   18.1987 C.ar    1  UNL1       -0.0003
     58 C           4.0734    0.5351   18.0555 C.ar    1  UNL1       -0.0000
     59 C           2.7588   -0.1413   18.3087 C.ar    1  UNL1       -0.0003
     60 C           1.5616    0.6708   18.7052 C.ar    1  UNL1       -0.0043
@<TRIPOS>BOND
     1    30    31    1
     2    31    24    1
     3    24    25   ar
     4    25    26   ar
     5    26    27   ar
     6    27    28   ar
     7    28    19    1
     8    19    20   ar
     9    20    21   ar
    10    21    22   ar
    11    22    16    1
    12    16    17    1
    13    16    18    1
    14    16     1    1
    15     1     2    1
    16     2     3    1
    17     3     4    1
    18     4    32    1
    19    32    33    1
    20    33    34    1
    21    33    36    1
    22    37    36    1
    23    37    54    1
    24    54    55    1
    25    55    56   ar
    26    56    57   ar
    27    57    58   ar
    28    58    59   ar
    29    59    60   ar
    30    37    38    1
    31    38    39    2
    32    38    40   am
    33    42    40    1
    34    42    43    1
    35    43    44   ar
    36    44    45   ar
    37    45    46   ar
    38    46    47   ar
    39    47    48   ar
    40    48    49    1
    41    49    50    1
    42    50    51    1
    43    51    52    1
    44     4     5    1
    45     5     7    1
    46     7     8    2
    47     7     9   am
    48     9    11    1
    49    11    12    1
    50    12    13    1
    51    12    14    1
    52    12    15    1
    53     5     6    1
    54    22    23   ar
    55    28    29   ar
    56    29    24   ar
    57    23    19   ar
    58     6     1    1
    59    60    55   ar
    60    51    42    1
    61    48    43   ar
    62    34    35    1
    63    40    41    1
    64    52    53    1
    65     9    10    1
@<TRIPOS>MOLECULE
*****
 60 65 0 0 0
SMALL
GASTEIGER

@<TRIPOS>ATOM
      1 N           2.1522    0.5733   30.0706 N.3     1  UNL1       -0.2650
      2 C           0.7093    0.9670   29.9575 C.3     1  UNL1        0.0900
      3 C           0.0962    1.1896   28.6068 C.3     1  UNL1        0.0901
      4 N           0.9261    1.0185   27.3691 N.3     1  UNL1       -0.2621
      5 C           2.3692    0.6248   27.4821 C.3     1  UNL1        0.1510
      6 C           2.9822    0.4022   28.8329 C.3     1  UNL1        0.0980
      7 C           3.1991    0.4538   26.2444 C.2     1  UNL1        0.2386
      8 O           3.8653    1.6427   25.6179 O.2     1  UNL1       -0.2736
      9 N           3.3628   -0.9063   25.6332 N.am    1  UNL1       -0.2961
     10 H           2.9255   -1.6867   26.0444 H       1  UNL1        0.1497
     11 C           4.1927   -1.0774   24.3955 C.3     1  UNL1        0.1939
     12 C           3.5295   -1.3711   23.0826 C.3     1  UNL1        0.4154
     13 F           2.8663   -1.6648   21.7695 F       1  UNL1       -0.1682
     14 F           4.5894   -2.3867   22.7744 F       1  UNL1       -0.1682
     15 F           2.4696   -0.3555   23.3907 F       1  UNL1       -0.1682
     16 C           2.7653    0.3507   31.4214 C.3     1  UNL1        0.1147
     17 C           3.4174   -0.9031   30.9188 C.3     1  UNL1        0.0255
     18 C           2.1131    1.6045   31.9240 C.3     1  UNL1        0.0255
     19 C           4.1062    0.4722   35.0619 C.ar    1  UNL1        0.1675
     20 C           4.5373   -0.9011   34.6399 C.ar    1  UNL1        0.1392
     21 N           4.0875   -1.1139   33.2248 N.ar    1  UNL1       -0.2094
     22 C           3.3783    0.1281   32.7722 C.ar    1  UNL1        0.2185
     23 O           3.3899    1.1083   33.9076 O.2     1  UNL1       -0.4370
     24 C           3.4418    1.9726   38.6753 C.ar    1  UNL1        0.1579
     25 C           4.8337    2.3534   39.0844 C.ar    1  UNL1        0.1356
     26 N           5.9832    2.1072   38.1527 N.ar    1  UNL1       -0.2390
     27 C           5.7407    1.4801   36.8118 C.ar    1  UNL1        0.1021
     28 C           4.3487    1.0993   36.4027 C.ar    1  UNL1        0.0583
     29 C           3.1993    1.3455   37.3344 C.ar    1  UNL1        0.0432
     30 C           0.9924    1.4992   39.4010 C.3     1  UNL1        0.2525
     31 O           2.2923    2.2188   39.6071 O.3     1  UNL1       -0.4699
     32 C           0.3131    1.2411   26.0183 C.3     1  UNL1        0.1021
     33 C           0.3536    2.6033   25.3915 C.3     1  UNL1        0.1269
     34 O           1.4495    3.5621   25.7514 O.3     1  UNL1       -0.3830
     35 H           2.0430    3.1473   26.3968 H       1  UNL1        0.2104
     36 C          -0.7018    3.0066   24.4049 C.3     1  UNL1        0.0401
     37 C          -0.3451    3.1956   22.9603 C.3     1  UNL1        0.0833
     38 C          -1.3557    3.7591   22.0057 C.2     1  UNL1        0.2226
     39 O          -1.5243    5.2445   21.8826 O.2     1  UNL1       -0.2751
     40 N          -2.1976    2.8372   21.1743 N.am    1  UNL1       -0.2999
     41 H          -2.0870    1.8623   21.2551 H       1  UNL1        0.1498
     42 C          -3.2082    3.4007   20.2197 C.3     1  UNL1        0.1278
     43 C          -2.7967    3.7756   18.8269 C.ar    1  UNL1        0.0320
     44 C          -1.3746    3.5869   18.3885 C.ar    1  UNL1        0.0004
     45 C          -0.9631    3.9618   16.9956 C.ar    1  UNL1       -0.0001
     46 C          -1.9737    4.5253   16.0411 C.ar    1  UNL1        0.0031
     47 C          -3.3958    4.7140   16.4794 C.ar    1  UNL1        0.0366
     48 C          -3.8073    4.3391   17.8723 C.ar    1  UNL1        0.1362
     49 O          -5.2293    4.5278   18.3106 O.3     1  UNL1       -0.4730
     50 C          -5.6408    4.1529   19.7035 C.3     1  UNL1        0.2364
     51 C          -4.6302    3.5894   20.6580 C.3     1  UNL1        0.1762
     52 O          -5.0418    3.2145   22.0510 O.3     1  UNL1       -0.3788
     53 H          -5.9868    3.3985   22.1695 H       1  UNL1        0.2106
     54 C           1.0222    2.8210   22.4702 C.3     1  UNL1        0.0355
     55 C           1.1774    2.0742   21.1786 C.ar    1  UNL1       -0.0217
     56 C           1.8768    2.7190   20.0188 C.ar    1  UNL1       -0.0043
     57 C           2.0321    1.9722   18.7272 C.ar    1  UNL1       -0.0003
     58 C           1.4879    0.5806   18.5954 C.ar    1  UNL1       -0.0000
     59 C           0.7886   -0.0642   19.7551 C.ar    1  UNL1       -0.0003
     60 C           0.6333    0.6826   21.0468 C.ar    1  UNL1       -0.0043
@<TRIPOS>BOND
     1    30    31    1
     2    31    24    1
     3    24    25   ar
     4    25    26   ar
     5    26    27   ar
     6    27    28   ar
     7    28    19    1
     8    19    20   ar
     9    20    21   ar
    10    21    22   ar
    11    22    16    1
    12    16    17    1
    13    16    18    1
    14    16     1    1
    15     1     2    1
    16     2     3    1
    17     3     4    1
    18     4    32    1
    19    32    33    1
    20    33    34    1
    21    33    36    1
    22    37    36    1
    23    37    54    1
    24    54    55    1
    25    55    56   ar
    26    56    57   ar
    27    57    58   ar
    28    58    59   ar
    29    59    60   ar
    30    37    38    1
    31    38    39    2
    32    38    40   am
    33    42    40    1
    34    42    43    1
    35    43    44   ar
    36    44    45   ar
    37    45    46   ar
    38    46    47   ar
    39    47    48   ar
    40    48    49    1
    41    49    50    1
    42    50    51    1
    43    51    52    1
    44     4     5    1
    45     5     7    1
    46     7     8    2
    47     7     9   am
    48     9    11    1
    49    11    12    1
    50    12    13    1
    51    12    14    1
    52    12    15    1
    53     5     6    1
    54    22    23   ar
    55    28    29   ar
    56    29    24   ar
    57    23    19   ar
    58     6     1    1
    59    60    55   ar
    60    51    42    1
    61    48    43   ar
    62    34    35    1
    63    40    41    1
    64    52    53    1
    65     9    10    1
@<TRIPOS>MOLECULE
*****
 60 65 0 0 0
SMALL
GASTEIGER

@<TRIPOS>ATOM
      1 N           5.7378   -0.6702   31.1896 N.3     1  UNL1       -0.2650
      2 C           5.3269    0.2493   30.0780 C.3     1  UNL1        0.0900
      3 C           5.6808   -0.0844   28.6591 C.3     1  UNL1        0.0901
      4 N           6.4457   -1.3376   28.3517 N.3     1  UNL1       -0.2621
      5 C           6.8567   -2.2571   29.4633 C.3     1  UNL1        0.1510
      6 C           6.5028   -1.9234   30.8823 C.3     1  UNL1        0.0980
      7 C           7.6216   -3.5103   29.1560 C.2     1  UNL1        0.2386
      8 O           9.1132   -3.5358   29.3119 O.2     1  UNL1       -0.2736
      9 N           6.8948   -4.7380   28.6927 N.am    1  UNL1       -0.2961
     10 H           5.9158   -4.7213   28.5904 H       1  UNL1        0.1497
     11 C           7.6597   -5.9911   28.3854 C.3     1  UNL1        0.1939
     12 C           7.2939   -6.8186   27.1889 C.3     1  UNL1        0.4154
     13 F           6.9280   -7.6461   25.9924 F       1  UNL1       -0.1682
     14 F           6.1834   -5.8629   26.8675 F       1  UNL1       -0.1682
     15 F           8.4044   -7.7743   27.5104 F       1  UNL1       -0.1682
     16 C           5.3839   -0.3365   32.6085 C.3     1  UNL1        0.1147
     17 C           4.6298    0.8712   32.1364 C.3     1  UNL1        0.0255
     18 C           6.1380   -1.5442   33.0806 C.3     1  UNL1        0.0255
     19 C           3.9088    0.9253   35.9697 C.ar    1  UNL1        0.1675
     20 C           5.0618    0.0961   36.4523 C.ar    1  UNL1        0.1392
     21 N           5.7548   -0.4775   35.2520 N.ar    1  UNL1       -0.2094
     22 C           5.0300   -0.0028   34.0275 C.ar    1  UNL1        0.2185
     23 O           3.8891    0.8642   34.4711 O.2     1  UNL1       -0.4370
     24 C           1.5006    1.8425   38.9878 C.ar    1  UNL1        0.1579
     25 C           1.0167    3.1972   38.5627 C.ar    1  UNL1        0.1356
     26 N           1.4968    3.7946   37.2733 N.ar    1  UNL1       -0.2390
     27 C           2.4609    3.0373   36.4089 C.ar    1  UNL1        0.1021
     28 C           2.9448    1.6826   36.8340 C.ar    1  UNL1        0.0583
     29 C           2.4646    1.0852   38.1234 C.ar    1  UNL1        0.0432
     30 C           0.4756    2.1317   41.3576 C.3     1  UNL1        0.2525
     31 O           1.0204    1.2451   40.2772 O.3     1  UNL1       -0.4699
     32 C           6.7996   -1.6712   26.9328 C.3     1  UNL1        0.1021
     33 C           5.7803   -2.3083   26.0355 C.3     1  UNL1        0.1269
     34 O           4.3193   -2.0555   26.2621 O.3     1  UNL1       -0.3830
     35 H           4.2077   -1.4635   27.0224 H       1  UNL1        0.2104
     36 C           6.2221   -3.1981   24.9117 C.3     1  UNL1        0.0401
     37 C           6.0146   -2.7691   23.4894 C.3     1  UNL1        0.0833
     38 C           5.1663   -1.5703   23.1837 C.2     1  UNL1        0.2226
     39 O           5.8127   -0.2463   22.9022 O.2     1  UNL1       -0.2751
     40 N           3.6718   -1.6956   23.1596 N.am    1  UNL1       -0.2999
     41 H           3.2476   -2.5646   23.3443 H       1  UNL1        0.1498
     42 C           2.8236   -0.4968   22.8539 C.3     1  UNL1        0.1278
     43 C           2.5711   -0.1002   21.4295 C.ar    1  UNL1        0.0320
     44 C           3.1669   -0.9023   20.3107 C.ar    1  UNL1        0.0004
     45 C           2.9145   -0.5057   18.8864 C.ar    1  UNL1       -0.0001
     46 C           2.0662    0.6931   18.5807 C.ar    1  UNL1        0.0031
     47 C           1.4704    1.4952   19.6994 C.ar    1  UNL1        0.0366
     48 C           1.7229    1.0986   21.1239 C.ar    1  UNL1        0.1362
     49 O           1.1271    1.9007   22.2426 O.3     1  UNL1       -0.4730
     50 C           1.3795    1.5041   23.6670 C.3     1  UNL1        0.2364
     51 C           2.2278    0.3053   23.9726 C.3     1  UNL1        0.1762
     52 O           2.4802   -0.0913   25.3971 O.3     1  UNL1       -0.3788
     53 H           2.0263    0.5275   25.9903 H       1  UNL1        0.2106
     54 C           6.6554   -3.5389   22.3727 C.3     1  UNL1        0.0355
     55 C           6.0770   -3.4763   20.9902 C.ar    1  UNL1       -0.0217
     56 C           6.7248   -2.6180   19.9443 C.ar    1  UNL1       -0.0043
     57 C           6.1463   -2.5554   18.5617 C.ar    1  UNL1       -0.0003
     58 C           4.9201   -3.3510   18.2250 C.ar    1  UNL1       -0.0000
     59 C           4.2723   -4.2093   19.2708 C.ar    1  UNL1       -0.0003
     60 C           4.8508   -4.2719   20.6534 C.ar    1  UNL1       -0.0043
@<TRIPOS>BOND
     1    30    31    1
     2    31    24    1
     3    24    25   ar
     4    25    26   ar
     5    26    27   ar
     6    27    28   ar
     7    28    19    1
     8    19    20   ar
     9    20    21   ar
    10    21    22   ar
    11    22    16    1
    12    16    17    1
    13    16    18    1
    14    16     1    1
    15     1     2    1
    16     2     3    1
    17     3     4    1
    18     4    32    1
    19    32    33    1
    20    33    34    1
    21    33    36    1
    22    37    36    1
    23    37    54    1
    24    54    55    1
    25    55    56   ar
    26    56    57   ar
    27    57    58   ar
    28    58    59   ar
    29    59    60   ar
    30    37    38    1
    31    38    39    2
    32    38    40   am
    33    42    40    1
    34    42    43    1
    35    43    44   ar
    36    44    45   ar
    37    45    46   ar
    38    46    47   ar
    39    47    48   ar
    40    48    49    1
    41    49    50    1
    42    50    51    1
    43    51    52    1
    44     4     5    1
    45     5     7    1
    46     7     8    2
    47     7     9   am
    48     9    11    1
    49    11    12    1
    50    12    13    1
    51    12    14    1
    52    12    15    1
    53     5     6    1
    54    22    23   ar
    55    28    29   ar
    56    29    24   ar
    57    23    19   ar
    58     6     1    1
    59    60    55   ar
    60    51    42    1
    61    48    43   ar
    62    34    35    1
    63    40    41    1
    64    52    53    1
    65     9    10    1
@<TRIPOS>MOLECULE
*****
 60 65 0 0 0
SMALL
GASTEIGER

@<TRIPOS>ATOM
      1 N           3.9626   -0.4655   30.6286 N.3     1  UNL1       -0.2650
      2 C           2.7522    0.0674   29.9208 C.3     1  UNL1        0.0900
      3 C           2.6033   -0.1257   28.4408 C.3     1  UNL1        0.0901
      4 N           3.6646   -0.8516   27.6685 N.3     1  UNL1       -0.2621
      5 C           4.8751   -1.3846   28.3764 C.3     1  UNL1        0.1510
      6 C           5.0240   -1.1915   29.8564 C.3     1  UNL1        0.0980
      7 C           5.9364   -2.1106   27.6041 C.2     1  UNL1        0.2386
      8 O           6.9969   -1.3373   26.8779 O.2     1  UNL1       -0.2736
      9 N           5.9374   -3.6099   27.5581 N.am    1  UNL1       -0.2961
     10 H           5.2414   -4.1175   28.0348 H       1  UNL1        0.1497
     11 C           6.9988   -4.3359   26.7859 C.3     1  UNL1        0.1939
     12 C           6.8583   -5.8049   26.5171 C.3     1  UNL1        0.4154
     13 F           6.7178   -7.2739   26.2482 F       1  UNL1       -0.1682
     14 F           6.8147   -6.0707   27.9926 F       1  UNL1       -0.1682
     15 F           6.9019   -5.5390   25.0415 F       1  UNL1       -0.1682
     16 C           4.1115   -0.2724   32.1087 C.3     1  UNL1        0.1147
     17 C           5.2491   -1.2501   32.1217 C.3     1  UNL1        0.0255
     18 C           2.9739    0.7052   32.0956 C.3     1  UNL1        0.0255
     19 C           4.2310    0.9187   35.8009 C.ar    1  UNL1        0.1675
     20 C           4.7484   -0.4832   35.9317 C.ar    1  UNL1        0.1392
     21 N           4.7666   -1.1001   34.5645 N.ar    1  UNL1       -0.2094
     22 C           4.2605   -0.0793   33.5887 C.ar    1  UNL1        0.2185
     23 O           3.9295    1.1683   34.3529 O.2     1  UNL1       -0.4370
     24 C           2.7439    2.6956   39.0228 C.ar    1  UNL1        0.1579
     25 C           3.6802    3.8591   39.1625 C.ar    1  UNL1        0.1356
     26 N           4.8001    4.0425   38.1816 N.ar    1  UNL1       -0.2390
     27 C           4.9838    3.0623   37.0610 C.ar    1  UNL1        0.1021
     28 C           4.0475    1.8988   36.9214 C.ar    1  UNL1        0.0583
     29 C           2.9275    1.7154   37.9023 C.ar    1  UNL1        0.0432
     30 C           0.2351    2.2301   39.5121 C.3     1  UNL1        0.2525
     31 O           1.6239    2.5122   40.0037 O.3     1  UNL1       -0.4699
     32 C           3.5157   -1.0447   26.1885 C.3     1  UNL1        0.1021
     33 C           3.9829    0.0213   25.2423 C.3     1  UNL1        0.1269
     34 O           5.3931    0.0051   24.7315 O.3     1  UNL1       -0.3830
     35 H           5.8645   -0.7546   25.1077 H       1  UNL1        0.2104
     36 C           3.0398    1.1035   24.8069 C.3     1  UNL1        0.0401
     37 C           2.2097    0.9224   23.5709 C.3     1  UNL1        0.0833
     38 C           2.8669    0.5582   22.2726 C.2     1  UNL1        0.2226
     39 O           4.2686    1.0110   21.9887 O.2     1  UNL1       -0.2751
     40 N           2.1227   -0.2587   21.2584 N.am    1  UNL1       -0.2999
     41 H           1.2028   -0.5559   21.4448 H       1  UNL1        0.1498
     42 C           2.7800   -0.6229   19.9602 C.3     1  UNL1        0.1278
     43 C           3.6610   -1.8341   19.8795 C.ar    1  UNL1        0.0320
     44 C           3.8848   -2.6813   21.0970 C.ar    1  UNL1        0.0004
     45 C           4.7659   -3.8926   21.0163 C.ar    1  UNL1       -0.0001
     46 C           5.4232   -4.2567   19.7181 C.ar    1  UNL1        0.0031
     47 C           5.1994   -3.4097   18.5006 C.ar    1  UNL1        0.0366
     48 C           4.3183   -2.1983   18.5813 C.ar    1  UNL1        0.1362
     49 O           4.0946   -1.3512   17.3638 O.3     1  UNL1       -0.4730
     50 C           3.2135   -0.1400   17.4445 C.3     1  UNL1        0.2364
     51 C           2.5562    0.2242   18.7427 C.3     1  UNL1        0.1762
     52 O           1.6751    1.4355   18.8234 O.3     1  UNL1       -0.3788
     53 H           1.6378    1.8666   17.9553 H       1  UNL1        0.2106
     54 C           0.7221    1.1054   23.6329 C.3     1  UNL1        0.0355
     55 C           0.1073    1.8704   24.7672 C.ar    1  UNL1       -0.0217
     56 C          -0.2245    3.3236   24.5991 C.ar    1  UNL1       -0.0043
     57 C          -0.8393    4.0886   25.7335 C.ar    1  UNL1       -0.0003
     58 C          -1.1224    3.4005   27.0359 C.ar    1  UNL1       -0.0000
     59 C          -0.7906    1.9474   27.2040 C.ar    1  UNL1       -0.0003
     60 C          -0.1758    1.1823   26.0697 C.ar    1  UNL1       -0.0043
@<TRIPOS>BOND
     1    30    31    1
     2    31    24    1
     3    24    25   ar
     4    25    26   ar
     5    26    27   ar
     6    27    28   ar
     7    28    19    1
     8    19    20   ar
     9    20    21   ar
    10    21    22   ar
    11    22    16    1
    12    16    17    1
    13    16    18    1
    14    16     1    1
    15     1     2    1
    16     2     3    1
    17     3     4    1
    18     4    32    1
    19    32    33    1
    20    33    34    1
    21    33    36    1
    22    37    36    1
    23    37    54    1
    24    54    55    1
    25    55    56   ar
    26    56    57   ar
    27    57    58   ar
    28    58    59   ar
    29    59    60   ar
    30    37    38    1
    31    38    39    2
    32    38    40   am
    33    42    40    1
    34    42    43    1
    35    43    44   ar
    36    44    45   ar
    37    45    46   ar
    38    46    47   ar
    39    47    48   ar
    40    48    49    1
    41    49    50    1
    42    50    51    1
    43    51    52    1
    44     4     5    1
    45     5     7    1
    46     7     8    2
    47     7     9   am
    48     9    11    1
    49    11    12    1
    50    12    13    1
    51    12    14    1
    52    12    15    1
    53     5     6    1
    54    22    23   ar
    55    28    29   ar
    56    29    24   ar
    57    23    19   ar
    58     6     1    1
    59    60    55   ar
    60    51    42    1
    61    48    43   ar
    62    34    35    1
    63    40    41    1
    64    52    53    1
    65     9    10    1
@<TRIPOS>MOLECULE
*****
 60 65 0 0 0
SMALL
GASTEIGER

@<TRIPOS>ATOM
      1 N           0.4653    2.1940   25.3949 N.3     1  UNL1       -0.2650
      2 C           1.3605    1.5092   24.4051 C.3     1  UNL1        0.0900
      3 C           1.0783    1.6206   22.9361 C.3     1  UNL1        0.0901
      4 N          -0.0989    2.4170   22.4568 N.3     1  UNL1       -0.2621
      5 C          -0.9942    3.1019   23.4466 C.3     1  UNL1        0.1510
      6 C          -0.7120    2.9905   24.9156 C.3     1  UNL1        0.0980
      7 C          -2.1714    3.8983   22.9673 C.2     1  UNL1        0.2386
      8 O          -2.1784    5.3908   23.1171 O.2     1  UNL1       -0.2736
      9 N          -3.3419    3.2022   22.3382 N.am    1  UNL1       -0.2961
     10 H          -3.3373    2.2226   22.2399 H       1  UNL1        0.1497
     11 C          -4.5191    3.9986   21.8590 C.3     1  UNL1        0.1939
     12 C          -5.8531    3.8409   22.5265 C.3     1  UNL1        0.4154
     13 F          -7.1871    3.6831   23.1941 F       1  UNL1       -0.1682
     14 F          -5.2042    3.0776   23.6429 F       1  UNL1       -0.1682
     15 F          -6.5020    4.6041   21.4101 F       1  UNL1       -0.1682
     16 C           0.7475    2.0825   26.8639 C.3     1  UNL1        0.1147
     17 C           2.2086    2.2949   26.5994 C.3     1  UNL1        0.0255
     18 C          -0.7137    1.8701   27.1284 C.3     1  UNL1        0.0255
     19 C           1.9178    1.2171   30.4621 C.ar    1  UNL1        0.1675
     20 C           1.0098    2.3818   30.7249 C.ar    1  UNL1        0.1392
     21 N           0.4608    2.8478   29.4090 N.ar    1  UNL1       -0.2094
     22 C           1.0296    1.9710   28.3329 C.ar    1  UNL1        0.2185
     23 O           1.9300    0.9633   28.9837 O.2     1  UNL1       -0.4370
     24 C           3.7510    0.2926   33.8582 C.ar    1  UNL1        0.1579
     25 C           4.2036   -1.1070   33.5642 C.ar    1  UNL1        0.1356
     26 N           3.8941   -1.7318   32.2361 N.ar    1  UNL1       -0.2390
     27 C           3.1322   -0.9571   31.2020 C.ar    1  UNL1        0.1021
     28 C           2.6797    0.4424   31.4960 C.ar    1  UNL1        0.0583
     29 C           2.9891    1.0673   32.8241 C.ar    1  UNL1        0.0432
     30 C           4.6618    0.0892   36.2830 C.3     1  UNL1        0.2525
     31 O           4.0605    0.9175   35.1863 O.3     1  UNL1       -0.4699
     32 C          -0.3811    2.5285   20.9878 C.3     1  UNL1        0.1021
     33 C           0.0661    1.4434   20.0538 C.3     1  UNL1        0.1269
     34 O          -0.1225    0.0040   20.4313 O.3     1  UNL1       -0.3830
     35 H          -0.5443   -0.0490   21.3032 H       1  UNL1        0.2104
     36 C           0.7019    1.7977   18.7422 C.3     1  UNL1        0.0401
     37 C           2.1719    2.0883   18.6755 C.3     1  UNL1        0.0833
     38 C           3.1652    0.9940   18.9320 C.2     1  UNL1        0.2226
     39 O           4.6223    1.3216   19.0727 O.2     1  UNL1       -0.2751
     40 N           2.7015   -0.4277   19.0479 N.am    1  UNL1       -0.2999
     41 H           1.7452   -0.6427   18.9556 H       1  UNL1        0.1498
     42 C           3.6948   -1.5220   19.3045 C.3     1  UNL1        0.1278
     43 C           4.0208   -1.9242   20.7123 C.ar    1  UNL1        0.0320
     44 C           3.3534   -1.2320   21.8636 C.ar    1  UNL1        0.0004
     45 C           3.6794   -1.6342   23.2714 C.ar    1  UNL1       -0.0001
     46 C           4.6727   -2.7285   23.5280 C.ar    1  UNL1        0.0031
     47 C           5.3400   -3.4207   22.3767 C.ar    1  UNL1        0.0366
     48 C           5.0141   -3.0185   20.9688 C.ar    1  UNL1        0.1362
     49 O           5.6815   -3.7107   19.8175 O.3     1  UNL1       -0.4730
     50 C           5.3555   -3.3085   18.4097 C.3     1  UNL1        0.2364
     51 C           4.3622   -2.2142   18.1532 C.3     1  UNL1        0.1762
     52 O           4.0362   -1.8121   16.7453 O.3     1  UNL1       -0.3788
     53 H           4.5506   -2.3542   16.1268 H       1  UNL1        0.2106
     54 C           2.6487    3.4734   18.3523 C.3     1  UNL1        0.0355
     55 C           1.6968    4.6303   18.4252 C.ar    1  UNL1       -0.0217
     56 C           0.9492    5.0650   17.1995 C.ar    1  UNL1       -0.0043
     57 C          -0.0027    6.2219   17.2724 C.ar    1  UNL1       -0.0003
     58 C          -0.2071    6.9443   18.5710 C.ar    1  UNL1       -0.0000
     59 C           0.5404    6.5097   19.7967 C.ar    1  UNL1       -0.0003
     60 C           1.4924    5.3527   19.7238 C.ar    1  UNL1       -0.0043
@<TRIPOS>BOND
     1    30    31    1
     2    31    24    1
     3    24    25   ar
     4    25    26   ar
     5    26    27   ar
     6    27    28   ar
     7    28    19    1
     8    19    20   ar
     9    20    21   ar
    10    21    22   ar
    11    22    16    1
    12    16    17    1
    13    16    18    1
    14    16     1    1
    15     1     2    1
    16     2     3    1
    17     3     4    1
    18     4    32    1
    19    32    33    1
    20    33    34    1
    21    33    36    1
    22    37    36    1
    23    37    54    1
    24    54    55    1
    25    55    56   ar
    26    56    57   ar
    27    57    58   ar
    28    58    59   ar
    29    59    60   ar
    30    37    38    1
    31    38    39    2
    32    38    40   am
    33    42    40    1
    34    42    43    1
    35    43    44   ar
    36    44    45   ar
    37    45    46   ar
    38    46    47   ar
    39    47    48   ar
    40    48    49    1
    41    49    50    1
    42    50    51    1
    43    51    52    1
    44     4     5    1
    45     5     7    1
    46     7     8    2
    47     7     9   am
    48     9    11    1
    49    11    12    1
    50    12    13    1
    51    12    14    1
    52    12    15    1
    53     5     6    1
    54    22    23   ar
    55    28    29   ar
    56    29    24   ar
    57    23    19   ar
    58     6     1    1
    59    60    55   ar
    60    51    42    1
    61    48    43   ar
    62    34    35    1
    63    40    41    1
    64    52    53    1
    65     9    10    1
@<TRIPOS>MOLECULE
*****
 60 65 0 0 0
SMALL
GASTEIGER

@<TRIPOS>ATOM
      1 N           2.4219    0.3792   26.9269 N.3     1  UNL1       -0.2650
      2 C           3.3792   -0.6007   27.5380 C.3     1  UNL1        0.0900
      3 C           3.5041   -0.6964   29.0297 C.3     1  UNL1        0.0901
      4 N           2.6718    0.1877   29.9103 N.3     1  UNL1       -0.2621
      5 C           1.7144    1.1676   29.2992 C.3     1  UNL1        0.1510
      6 C           1.5895    1.2633   27.8075 C.3     1  UNL1        0.0980
      7 C           0.8821    2.0517   30.1799 C.2     1  UNL1        0.2386
      8 O          -0.3119    1.4897   30.8930 O.2     1  UNL1       -0.2736
      9 N           1.2437    3.4978   30.3473 N.am    1  UNL1       -0.2961
     10 H           2.0274    3.8667   29.8793 H       1  UNL1        0.1497
     11 C           0.4114    4.3819   31.2280 C.3     1  UNL1        0.1939
     12 C           0.6013    4.3513   32.7156 C.3     1  UNL1        0.4154
     13 F           0.7913    4.3207   34.2032 F       1  UNL1       -0.1682
     14 F           2.0825    4.2130   32.5236 F       1  UNL1       -0.1682
     15 F          -0.8799    4.4897   32.9075 F       1  UNL1       -0.1682
     16 C           2.2969    0.4749   25.4352 C.3     1  UNL1        0.1147
     17 C           3.5632   -0.3138   25.2785 C.3     1  UNL1        0.0255
     18 C           1.0306    1.2636   25.5918 C.3     1  UNL1        0.0255
     19 C           2.4972    0.1807   21.5701 C.ar    1  UNL1        0.1675
     20 C           1.4622    1.2553   21.7257 C.ar    1  UNL1        0.1392
     21 N           1.2612    1.4963   23.1925 N.ar    1  UNL1       -0.2094
     22 C           2.1720    0.5707   23.9434 C.ar    1  UNL1        0.2185
     23 O           2.9358   -0.2424   22.9407 O.2     1  UNL1       -0.4370
     24 C           4.2380   -2.2397   18.9508 C.ar    1  UNL1        0.1579
     25 C           4.0189   -1.4817   17.6752 C.ar    1  UNL1        0.1356
     26 N           3.2926   -0.1694   17.6978 N.ar    1  UNL1       -0.2390
     27 C           2.7853    0.3847   18.9961 C.ar    1  UNL1        0.1021
     28 C           3.0044   -0.3733   20.2718 C.ar    1  UNL1        0.0583
     29 C           3.7307   -1.6856   20.2491 C.ar    1  UNL1        0.0432
     30 C           4.1952   -4.8366   19.0197 C.3     1  UNL1        0.2525
     31 O           4.9643   -3.5520   18.9282 O.3     1  UNL1       -0.4699
     32 C           2.7967    0.0919   31.4020 C.3     1  UNL1        0.1021
     33 C           3.9401   -0.6635   32.0119 C.3     1  UNL1        0.1269
     34 O           3.7085   -2.0185   32.6122 O.3     1  UNL1       -0.3830
     35 H           2.7721   -2.2556   32.5235 H       1  UNL1        0.2104
     36 C           5.3150   -0.0640   32.0216 C.3     1  UNL1        0.0401
     37 C           6.4791   -0.8652   32.5244 C.3     1  UNL1        0.0833
     38 C           7.0575   -1.9602   31.6779 C.2     1  UNL1        0.2226
     39 O           8.5439   -2.1499   31.6098 O.2     1  UNL1       -0.2751
     40 N           6.1495   -2.8655   30.8994 N.am    1  UNL1       -0.2999
     41 H           5.1739   -2.7410   30.9441 H       1  UNL1        0.1498
     42 C           6.7278   -3.9604   30.0530 C.3     1  UNL1        0.1278
     43 C           7.0522   -3.7021   28.6114 C.ar    1  UNL1        0.0320
     44 C           6.7981   -2.3488   28.0163 C.ar    1  UNL1        0.0004
     45 C           7.1225   -2.0905   26.5748 C.ar    1  UNL1       -0.0001
     46 C           7.7008   -3.1855   25.7283 C.ar    1  UNL1        0.0031
     47 C           7.9549   -4.5388   26.3233 C.ar    1  UNL1        0.0366
     48 C           7.6305   -4.7971   27.7649 C.ar    1  UNL1        0.1362
     49 O           7.8846   -6.1504   28.3600 O.3     1  UNL1       -0.4730
     50 C           7.5602   -6.4087   29.8015 C.3     1  UNL1        0.2364
     51 C           6.9819   -5.3137   30.6480 C.3     1  UNL1        0.1762
     52 O           6.6575   -5.5720   32.0896 O.3     1  UNL1       -0.3788
     53 H           6.8806   -6.4895   32.3118 H       1  UNL1        0.2106
     54 C           7.0649   -0.5716   33.8737 C.3     1  UNL1        0.0355
     55 C           6.2594    0.1764   34.8944 C.ar    1  UNL1       -0.0217
     56 C           6.4563    1.6530   35.0700 C.ar    1  UNL1       -0.0043
     57 C           5.6509    2.4009   36.0906 C.ar    1  UNL1       -0.0003
     58 C           4.6484    1.6723   36.9357 C.ar    1  UNL1       -0.0000
     59 C           4.4514    0.1957   36.7601 C.ar    1  UNL1       -0.0003
     60 C           5.2569   -0.5523   35.7394 C.ar    1  UNL1       -0.0043
@<TRIPOS>BOND
     1    30    31    1
     2    31    24    1
     3    24    25   ar
     4    25    26   ar
     5    26    27   ar
     6    27    28   ar
     7    28    19    1
     8    19    20   ar
     9    20    21   ar
    10    21    22   ar
    11    22    16    1
    12    16    17    1
    13    16    18    1
    14    16     1    1
    15     1     2    1
    16     2     3    1
    17     3     4    1
    18     4    32    1
    19    32    33    1
    20    33    34    1
    21    33    36    1
    22    37    36    1
    23    37    54    1
    24    54    55    1
    25    55    56   ar
    26    56    57   ar
    27    57    58   ar
    28    58    59   ar
    29    59    60   ar
    30    37    38    1
    31    38    39    2
    32    38    40   am
    33    42    40    1
    34    42    43    1
    35    43    44   ar
    36    44    45   ar
    37    45    46   ar
    38    46    47   ar
    39    47    48   ar
    40    48    49    1
    41    49    50    1
    42    50    51    1
    43    51    52    1
    44     4     5    1
    45     5     7    1
    46     7     8    2
    47     7     9   am
    48     9    11    1
    49    11    12    1
    50    12    13    1
    51    12    14    1
    52    12    15    1
    53     5     6    1
    54    22    23   ar
    55    28    29   ar
    56    29    24   ar
    57    23    19   ar
    58     6     1    1
    59    60    55   ar
    60    51    42    1
    61    48    43   ar
    62    34    35    1
    63    40    41    1
    64    52    53    1
    65     9    10    1
