@<TRIPOS>MOLECULE
*****
 26 29 0 0 0
SMALL
GASTEIGER

@<TRIPOS>ATOM
      1 C          -8.4547  -15.4179   26.9892 C.3     1  UNL1        0.1538
      2 N          -8.2965  -15.9511   25.5961 N.ar    1  UNL1       -0.2462
      3 C          -9.4098  -16.2748   24.6443 C.ar    1  UNL1        0.0980
      4 C          -8.7987  -16.7779   23.3702 C.ar    1  UNL1        0.0522
      5 C          -7.3078  -16.7651   23.5345 C.ar    1  UNL1        0.1556
      6 N          -6.9974  -16.2541   24.9102 N.ar    1  UNL1       -0.1539
      7 C          -9.5471  -17.2167   22.1465 C.ar    1  UNL1        0.0051
      8 C          -9.5559  -18.6638   21.7515 C.ar    1  UNL1        0.0002
      9 C         -10.3043  -19.1026   20.5279 C.ar    1  UNL1        0.0009
     10 C         -11.0438  -18.0946   19.6992 C.ar    1  UNL1        0.0114
     11 C         -11.0351  -16.6474   20.0942 C.ar    1  UNL1        0.0577
     12 CL        -11.7746  -15.6393   19.2656 Cl      1  UNL1       -0.0822
     13 C         -10.2867  -16.2086   21.3179 C.ar    1  UNL1        0.0115
     14 N          -6.3035  -17.1888   22.5040 N.am    1  UNL1       -0.2643
     15 C          -6.0812  -18.6465   22.2284 C.2     1  UNL1        0.2552
     16 O          -6.8631  -19.6802   22.9833 O.2     1  UNL1       -0.2696
     17 H          -5.7903  -16.5103   22.0086 H       1  UNL1        0.1566
     18 C          -5.0770  -19.0703   21.1979 C.ar    1  UNL1        0.1102
     19 C          -5.2012  -20.2486   20.2780 C.ar    1  UNL1        0.1281
     20 N          -3.9732  -20.2967   19.4180 N.ar    1  UNL1       -0.1619
     21 N          -3.0900  -19.1481   19.8063 N.ar    1  UNL1       -0.2105
     22 C          -1.7528  -18.6945   19.3004 C.ar    1  UNL1        0.1037
     23 C          -1.0977  -17.4830   19.8945 C.ar    1  UNL1        0.0414
     24 C          -1.7799  -16.7250   20.9946 C.ar    1  UNL1        0.1022
     25 N          -3.1171  -17.1786   21.5005 N.ar    1  UNL1       -0.2248
     26 C          -3.7722  -18.3902   20.9064 C.ar    1  UNL1        0.1697
@<TRIPOS>BOND
     1     1     2    1
     2     2     3   ar
     3     3     4   ar
     4     4     7    1
     5     7     8   ar
     6     8     9   ar
     7     9    10   ar
     8    10    11   ar
     9    11    12    1
    10    11    13   ar
    11     4     5   ar
    12     5    14    1
    13    14    15   am
    14    15    16    2
    15    15    18    1
    16    18    19   ar
    17    19    20   ar
    18    20    21   ar
    19    21    22   ar
    20    22    23   ar
    21    23    24   ar
    22    24    25   ar
    23    25    26   ar
    24     5     6   ar
    25     6     2   ar
    26    13     7   ar
    27    26    18   ar
    28    26    21   ar
    29    14    17    1
@<TRIPOS>MOLECULE
*****
 26 29 0 0 0
SMALL
GASTEIGER

@<TRIPOS>ATOM
      1 C          -6.2744  -14.2632   27.5710 C.3     1  UNL1        0.1538
      2 N          -6.2331  -15.0371   26.2867 N.ar    1  UNL1       -0.2462
      3 C          -5.0043  -15.5979   25.6344 C.ar    1  UNL1        0.0980
      4 C          -5.4250  -16.2934   24.3738 C.ar    1  UNL1        0.0522
      5 C          -6.9139  -16.1625   24.2470 C.ar    1  UNL1        0.1556
      6 N          -7.4134  -15.3861   25.4292 N.ar    1  UNL1       -0.1539
      7 C          -4.5164  -16.9965   23.4093 C.ar    1  UNL1        0.0051
      8 C          -4.7653  -18.4327   23.0555 C.ar    1  UNL1        0.0002
      9 C          -3.8567  -19.1358   22.0910 C.ar    1  UNL1        0.0009
     10 C          -2.6994  -18.4027   21.4804 C.ar    1  UNL1        0.0114
     11 C          -2.4505  -16.9663   21.8342 C.ar    1  UNL1        0.0577
     12 CL         -1.2932  -16.2331   21.2236 Cl      1  UNL1       -0.0822
     13 C          -3.3591  -16.2632   22.7987 C.ar    1  UNL1        0.0115
     14 N          -7.7556  -16.7117   23.1335 N.am    1  UNL1       -0.2643
     15 C          -9.0524  -17.3994   23.4425 C.2     1  UNL1        0.2552
     16 O          -9.5075  -17.5378   24.8650 O.2     1  UNL1       -0.2696
     17 H          -7.4569  -16.6208   22.1998 H       1  UNL1        0.1566
     18 C          -9.8941  -17.9486   22.3289 C.ar    1  UNL1        0.1102
     19 C         -11.3885  -17.8652   22.2297 C.ar    1  UNL1        0.1281
     20 N         -11.8071  -18.5426   20.9585 N.ar    1  UNL1       -0.1619
     21 N         -10.5714  -19.0447   20.2722 N.ar    1  UNL1       -0.2105
     22 C         -10.3700  -19.7887   18.9854 C.ar    1  UNL1        0.1037
     23 C          -8.9864  -20.1655   18.5456 C.ar    1  UNL1        0.0414
     24 C          -7.8041  -19.7983   19.3925 C.ar    1  UNL1        0.1022
     25 N          -8.0055  -19.0543   20.6793 N.ar    1  UNL1       -0.2248
     26 C          -9.3891  -18.6775   21.1191 C.ar    1  UNL1        0.1697
@<TRIPOS>BOND
     1     1     2    1
     2     2     3   ar
     3     3     4   ar
     4     4     7    1
     5     7     8   ar
     6     8     9   ar
     7     9    10   ar
     8    10    11   ar
     9    11    12    1
    10    11    13   ar
    11     4     5   ar
    12     5    14    1
    13    14    15   am
    14    15    16    2
    15    15    18    1
    16    18    19   ar
    17    19    20   ar
    18    20    21   ar
    19    21    22   ar
    20    22    23   ar
    21    23    24   ar
    22    24    25   ar
    23    25    26   ar
    24     5     6   ar
    25     6     2   ar
    26    13     7   ar
    27    26    18   ar
    28    26    21   ar
    29    14    17    1
@<TRIPOS>MOLECULE
*****
 26 29 0 0 0
SMALL
GASTEIGER

@<TRIPOS>ATOM
      1 C          -7.2517  -14.3227   28.2051 C.3     1  UNL1        0.1538
      2 N          -7.2909  -15.0136   26.8742 N.ar    1  UNL1       -0.2462
      3 C          -8.4940  -15.6550   26.2489 C.ar    1  UNL1        0.0980
      4 C          -8.0806  -16.2222   24.9233 C.ar    1  UNL1        0.0522
      5 C          -6.6219  -15.9313   24.7294 C.ar    1  UNL1        0.1556
      6 N          -6.1338  -15.1844   25.9351 N.ar    1  UNL1       -0.1539
      7 C          -8.9696  -16.9521   23.9606 C.ar    1  UNL1        0.0051
      8 C          -9.3732  -18.3696   24.2395 C.ar    1  UNL1        0.0002
      9 C         -10.2623  -19.0995   23.2769 C.ar    1  UNL1        0.0009
     10 C         -10.7478  -18.4121   22.0353 C.ar    1  UNL1        0.0114
     11 C         -10.3441  -16.9945   21.7563 C.ar    1  UNL1        0.0577
     12 CL        -10.8296  -16.3070   20.5147 Cl      1  UNL1       -0.0822
     13 C          -9.4551  -16.2646   22.7190 C.ar    1  UNL1        0.0115
     14 N          -5.7962  -16.3193   23.5387 N.am    1  UNL1       -0.2643
     15 C          -4.4849  -17.0217   23.7320 C.2     1  UNL1        0.2552
     16 O          -3.9994  -17.3361   25.1159 O.2     1  UNL1       -0.2696
     17 H          -6.1149  -16.1130   22.6303 H       1  UNL1        0.1566
     18 C          -3.6592  -17.4097   22.5413 C.ar    1  UNL1        0.1102
     19 C          -2.3961  -16.7396   22.0881 C.ar    1  UNL1        0.1281
     20 N          -1.9080  -17.4517   20.8615 N.ar    1  UNL1       -0.1619
     21 N          -2.8694  -18.5619   20.5566 N.ar    1  UNL1       -0.2105
     22 C          -2.8991  -19.5932   19.4677 C.ar    1  UNL1        0.1037
     23 C          -4.0112  -20.5984   19.4170 C.ar    1  UNL1        0.0414
     24 C          -5.0936  -20.5725   20.4552 C.ar    1  UNL1        0.1022
     25 N          -5.0638  -19.5413   21.5441 N.ar    1  UNL1       -0.2248
     26 C          -3.9518  -18.5360   21.5948 C.ar    1  UNL1        0.1697
@<TRIPOS>BOND
     1     1     2    1
     2     2     3   ar
     3     3     4   ar
     4     4     7    1
     5     7     8   ar
     6     8     9   ar
     7     9    10   ar
     8    10    11   ar
     9    11    12    1
    10    11    13   ar
    11     4     5   ar
    12     5    14    1
    13    14    15   am
    14    15    16    2
    15    15    18    1
    16    18    19   ar
    17    19    20   ar
    18    20    21   ar
    19    21    22   ar
    20    22    23   ar
    21    23    24   ar
    22    24    25   ar
    23    25    26   ar
    24     5     6   ar
    25     6     2   ar
    26    13     7   ar
    27    26    18   ar
    28    26    21   ar
    29    14    17    1
@<TRIPOS>MOLECULE
*****
 26 29 0 0 0
SMALL
GASTEIGER

@<TRIPOS>ATOM
      1 C           6.1123   -1.2642   30.8602 C.3     1  UNL1        0.1538
      2 N           5.0993   -1.1086   29.7649 N.ar    1  UNL1       -0.2462
      3 C           3.8161   -0.3369   29.8539 C.ar    1  UNL1        0.0980
      4 C           3.1154   -0.4487   28.5324 C.ar    1  UNL1        0.0522
      5 C           3.9655   -1.2895   27.6267 C.ar    1  UNL1        0.1556
      6 N           5.1917   -1.6974   28.3884 N.ar    1  UNL1       -0.1539
      7 C           1.7962    0.1715   28.1786 C.ar    1  UNL1        0.0051
      8 C           1.7060    1.1445   27.0407 C.ar    1  UNL1        0.0002
      9 C           0.3868    1.7646   26.6869 C.ar    1  UNL1        0.0009
     10 C          -0.8422    1.4118   27.4710 C.ar    1  UNL1        0.0114
     11 C          -0.7520    0.4386   28.6091 C.ar    1  UNL1        0.0577
     12 CL         -1.9809    0.0857   29.3933 Cl      1  UNL1       -0.0822
     13 C           0.5672   -0.1815   28.9629 C.ar    1  UNL1        0.0115
     14 N           3.6457   -1.6578   26.2082 N.am    1  UNL1       -0.2643
     15 C           4.2343   -0.8675   25.0771 C.2     1  UNL1        0.2552
     16 O           5.1426    0.2910   25.3647 O.2     1  UNL1       -0.2696
     17 H           3.0495   -2.4181   26.0195 H       1  UNL1        0.1566
     18 C           3.9144   -1.2357   23.6587 C.ar    1  UNL1        0.1102
     19 C           4.6055   -2.2885   22.8438 C.ar    1  UNL1        0.1281
     20 N           3.9655   -2.3193   21.4876 N.ar    1  UNL1       -0.1619
     21 N           2.8788   -1.2855   21.4642 N.ar    1  UNL1       -0.2105
     22 C           1.9140   -0.8675   20.3945 C.ar    1  UNL1        0.1037
     23 C           0.9176    0.2202   20.6666 C.ar    1  UNL1        0.0414
     24 C           0.8861    0.8899   22.0085 C.ar    1  UNL1        0.1022
     25 N           1.8509    0.4718   23.0782 N.ar    1  UNL1       -0.2248
     26 C           2.8472   -0.6159   22.8061 C.ar    1  UNL1        0.1697
@<TRIPOS>BOND
     1     1     2    1
     2     2     3   ar
     3     3     4   ar
     4     4     7    1
     5     7     8   ar
     6     8     9   ar
     7     9    10   ar
     8    10    11   ar
     9    11    12    1
    10    11    13   ar
    11     4     5   ar
    12     5    14    1
    13    14    15   am
    14    15    16    2
    15    15    18    1
    16    18    19   ar
    17    19    20   ar
    18    20    21   ar
    19    21    22   ar
    20    22    23   ar
    21    23    24   ar
    22    24    25   ar
    23    25    26   ar
    24     5     6   ar
    25     6     2   ar
    26    13     7   ar
    27    26    18   ar
    28    26    21   ar
    29    14    17    1
@<TRIPOS>MOLECULE
*****
 26 29 0 0 0
SMALL
GASTEIGER

@<TRIPOS>ATOM
      1 C           6.2757   -2.8138   27.4803 C.3     1  UNL1        0.1538
      2 N           5.2483   -1.8711   28.0333 N.ar    1  UNL1       -0.2462
      3 C           3.9601   -1.4829   27.3700 C.ar    1  UNL1        0.0980
      4 C           3.2444   -0.5231   28.2735 C.ar    1  UNL1        0.0522
      5 C           4.0902   -0.3180   29.4952 C.ar    1  UNL1        0.1556
      6 N           5.3287   -1.1512   29.3468 N.ar    1  UNL1       -0.1539
      7 C           1.9161    0.1191   28.0029 C.ar    1  UNL1        0.0051
      8 C           1.7906    1.1587   26.9290 C.ar    1  UNL1        0.0002
      9 C           0.4623    1.8009   26.6584 C.ar    1  UNL1        0.0009
     10 C          -0.7405    1.4034   27.4615 C.ar    1  UNL1        0.0114
     11 C          -0.6151    0.3636   28.5355 C.ar    1  UNL1        0.0577
     12 CL         -1.8178   -0.0340   29.3387 Cl      1  UNL1       -0.0822
     13 C           0.7133   -0.2785   28.8061 C.ar    1  UNL1        0.0115
     14 N           3.7562    0.5651   30.6608 N.am    1  UNL1       -0.2643
     15 C           3.4290   -0.0425   31.9927 C.2     1  UNL1        0.2552
     16 O           3.4358   -1.5332   32.1589 O.2     1  UNL1       -0.2696
     17 H           3.7517    1.5435   30.5516 H       1  UNL1        0.1566
     18 C           3.0949    0.8406   33.1582 C.ar    1  UNL1        0.1102
     19 C           2.1123    1.9739   33.1525 C.ar    1  UNL1        0.1281
     20 N           2.0949    2.5792   34.5249 N.ar    1  UNL1       -0.1619
     21 N           3.0668    1.8200   35.3787 N.ar    1  UNL1       -0.2105
     22 C           3.4689    1.9683   36.8161 C.ar    1  UNL1        0.1037
     23 C           4.4890    1.0421   37.4089 C.ar    1  UNL1        0.0414
     24 C           5.1071   -0.0324   36.5643 C.ar    1  UNL1        0.1022
     25 N           4.7050   -0.1807   35.1268 N.ar    1  UNL1       -0.2248
     26 C           3.6849    0.7455   34.5340 C.ar    1  UNL1        0.1697
@<TRIPOS>BOND
     1     1     2    1
     2     2     3   ar
     3     3     4   ar
     4     4     7    1
     5     7     8   ar
     6     8     9   ar
     7     9    10   ar
     8    10    11   ar
     9    11    12    1
    10    11    13   ar
    11     4     5   ar
    12     5    14    1
    13    14    15   am
    14    15    16    2
    15    15    18    1
    16    18    19   ar
    17    19    20   ar
    18    20    21   ar
    19    21    22   ar
    20    22    23   ar
    21    23    24   ar
    22    24    25   ar
    23    25    26   ar
    24     5     6   ar
    25     6     2   ar
    26    13     7   ar
    27    26    18   ar
    28    26    21   ar
    29    14    17    1
@<TRIPOS>MOLECULE
*****
 26 29 0 0 0
SMALL
GASTEIGER

@<TRIPOS>ATOM
      1 C           8.1287   -7.0472   25.2129 C.3     1  UNL1        0.1538
      2 N           7.5420   -5.7860   24.6514 N.ar    1  UNL1       -0.2462
      3 C           6.8335   -4.7192   25.4324 C.ar    1  UNL1        0.0980
      4 C           6.4145   -3.6441   24.4741 C.ar    1  UNL1        0.0522
      5 C           6.8641   -4.0464   23.1007 C.ar    1  UNL1        0.1556
      6 N           7.5610   -5.3702   23.2103 N.ar    1  UNL1       -0.1539
      7 C           5.6756   -2.3873   24.8270 C.ar    1  UNL1        0.0051
      8 C           4.3509   -2.0917   24.1884 C.ar    1  UNL1        0.0002
      9 C           3.6120   -0.8349   24.5413 C.ar    1  UNL1        0.0009
     10 C           4.1977    0.1262   25.5327 C.ar    1  UNL1        0.0114
     11 C           5.5225   -0.1694   26.1714 C.ar    1  UNL1        0.0577
     12 CL          6.1082    0.7916   27.1629 Cl      1  UNL1       -0.0822
     13 C           6.2614   -1.4262   25.8185 C.ar    1  UNL1        0.0115
     14 N           6.6538   -3.2625   21.8393 N.am    1  UNL1       -0.2643
     15 C           5.4185   -3.4820   21.0170 C.2     1  UNL1        0.2552
     16 O           4.3938   -4.4853   21.4562 O.2     1  UNL1       -0.2696
     17 H           7.3265   -2.6040   21.5510 H       1  UNL1        0.1566
     18 C           5.2082   -2.6981   19.7555 C.ar    1  UNL1        0.1102
     19 C           6.0859   -2.7323   18.5396 C.ar    1  UNL1        0.1281
     20 N           5.5033   -1.7977   17.5211 N.ar    1  UNL1       -0.1619
     21 N           4.2657   -1.1859   18.1076 N.ar    1  UNL1       -0.2105
     22 C           3.2813   -0.1940   17.5627 C.ar    1  UNL1        0.1037
     23 C           2.1145    0.2414   18.3987 C.ar    1  UNL1        0.0414
     24 C           1.9321   -0.3151   19.7796 C.ar    1  UNL1        0.1022
     25 N           2.9165   -1.3070   20.3246 N.ar    1  UNL1       -0.2248
     26 C           4.0833   -1.7424   19.4886 C.ar    1  UNL1        0.1697
@<TRIPOS>BOND
     1     1     2    1
     2     2     3   ar
     3     3     4   ar
     4     4     7    1
     5     7     8   ar
     6     8     9   ar
     7     9    10   ar
     8    10    11   ar
     9    11    12    1
    10    11    13   ar
    11     4     5   ar
    12     5    14    1
    13    14    15   am
    14    15    16    2
    15    15    18    1
    16    18    19   ar
    17    19    20   ar
    18    20    21   ar
    19    21    22   ar
    20    22    23   ar
    21    23    24   ar
    22    24    25   ar
    23    25    26   ar
    24     5     6   ar
    25     6     2   ar
    26    13     7   ar
    27    26    18   ar
    28    26    21   ar
    29    14    17    1
@<TRIPOS>MOLECULE
*****
 26 29 0 0 0
SMALL
GASTEIGER

@<TRIPOS>ATOM
      1 C           2.2224    0.8799   25.9904 C.3     1  UNL1        0.1538
      2 N           1.9086    0.8625   24.5237 N.ar    1  UNL1       -0.2462
      3 C           2.7614    0.2602   23.4467 C.ar    1  UNL1        0.0980
      4 C           2.0667    0.4699   22.1338 C.ar    1  UNL1        0.0522
      5 C           0.7846    1.2018   22.3995 C.ar    1  UNL1        0.1556
      6 N           0.6868    1.4444   23.8766 N.ar    1  UNL1       -0.1539
      7 C           2.5664    0.0257   20.7911 C.ar    1  UNL1        0.0051
      8 C           2.7710    1.0311   19.6969 C.ar    1  UNL1        0.0002
      9 C           3.2706    0.5869   18.3541 C.ar    1  UNL1        0.0009
     10 C           3.5657   -0.8625   18.1055 C.ar    1  UNL1        0.0114
     11 C           3.3612   -1.8680   19.1998 C.ar    1  UNL1        0.0577
     12 CL          3.6563   -3.3175   18.9513 Cl      1  UNL1       -0.0822
     13 C           2.8615   -1.4238   20.5426 C.ar    1  UNL1        0.0115
     14 N          -0.2229    1.6179   21.3691 N.am    1  UNL1       -0.2643
     15 C          -0.1047    2.9564   20.7022 C.2     1  UNL1        0.2552
     16 O           1.0210    3.8786   21.0659 O.2     1  UNL1       -0.2696
     17 H          -0.9617    1.0126   21.1305 H       1  UNL1        0.1566
     18 C          -1.1122    3.3725   19.6718 C.ar    1  UNL1        0.1102
     19 C          -0.8064    3.8652   18.2884 C.ar    1  UNL1        0.1281
     20 N          -2.1076    4.1662   17.6055 N.ar    1  UNL1       -0.1619
     21 N          -3.2175    3.8595   18.5668 N.ar    1  UNL1       -0.2105
     22 C          -4.7088    3.9636   18.4443 C.ar    1  UNL1        0.1037
     23 C          -5.5849    3.5771   19.5988 C.ar    1  UNL1        0.0414
     24 C          -4.9697    3.0866   20.8759 C.ar    1  UNL1        0.1022
     25 N          -3.4784    2.9825   20.9984 N.ar    1  UNL1       -0.2248
     26 C          -2.6023    3.3690   19.8439 C.ar    1  UNL1        0.1697
@<TRIPOS>BOND
     1     1     2    1
     2     2     3   ar
     3     3     4   ar
     4     4     7    1
     5     7     8   ar
     6     8     9   ar
     7     9    10   ar
     8    10    11   ar
     9    11    12    1
    10    11    13   ar
    11     4     5   ar
    12     5    14    1
    13    14    15   am
    14    15    16    2
    15    15    18    1
    16    18    19   ar
    17    19    20   ar
    18    20    21   ar
    19    21    22   ar
    20    22    23   ar
    21    23    24   ar
    22    24    25   ar
    23    25    26   ar
    24     5     6   ar
    25     6     2   ar
    26    13     7   ar
    27    26    18   ar
    28    26    21   ar
    29    14    17    1
@<TRIPOS>MOLECULE
*****
 26 29 0 0 0
SMALL
GASTEIGER

@<TRIPOS>ATOM
      1 C           1.7857    1.4703   24.2213 C.3     1  UNL1        0.1538
      2 N           2.5956    0.3485   23.6419 N.ar    1  UNL1       -0.2462
      3 C           2.9390    0.1658   22.1932 C.ar    1  UNL1        0.0980
      4 C           3.7599   -1.0831   22.0655 C.ar    1  UNL1        0.0522
      5 C           3.9237   -1.6722   23.4352 C.ar    1  UNL1        0.1556
      6 N           3.2042   -0.7874   24.4095 N.ar    1  UNL1       -0.1539
      7 C           4.3188   -1.6444   20.7917 C.ar    1  UNL1        0.0051
      8 C           5.1176   -0.7681   19.8729 C.ar    1  UNL1        0.0002
      9 C           5.6765   -1.3294   18.5991 C.ar    1  UNL1        0.0009
     10 C           5.4367   -2.7668   18.2440 C.ar    1  UNL1        0.0114
     11 C           4.6378   -3.6431   19.1628 C.ar    1  UNL1        0.0577
     12 CL          4.3980   -5.0806   18.8077 Cl      1  UNL1       -0.0822
     13 C           4.0789   -3.0819   20.4366 C.ar    1  UNL1        0.0115
     14 N           4.6753   -2.9261   23.7715 N.am    1  UNL1       -0.2643
     15 C           5.9485   -2.8485   24.5609 C.2     1  UNL1        0.2552
     16 O           6.4700   -1.5171   25.0138 O.2     1  UNL1       -0.2696
     17 H           4.3329   -3.7999   23.4741 H       1  UNL1        0.1566
     18 C           6.7000   -4.1023   24.8972 C.ar    1  UNL1        0.1102
     19 C           7.3945   -5.0031   23.9193 C.ar    1  UNL1        0.1281
     20 N           8.0127   -6.1330   24.6882 N.ar    1  UNL1       -0.1619
     21 N           7.7002   -5.9305   26.1413 N.ar    1  UNL1       -0.2105
     22 C           8.0496   -6.7268   27.3635 C.ar    1  UNL1        0.1037
     23 C           7.5878   -6.2680   28.7148 C.ar    1  UNL1        0.0414
     24 C           6.7765   -5.0130   28.8440 C.ar    1  UNL1        0.1022
     25 N           6.4271   -4.2167   27.6218 N.ar    1  UNL1       -0.2248
     26 C           6.8889   -4.6755   26.2704 C.ar    1  UNL1        0.1697
@<TRIPOS>BOND
     1     1     2    1
     2     2     3   ar
     3     3     4   ar
     4     4     7    1
     5     7     8   ar
     6     8     9   ar
     7     9    10   ar
     8    10    11   ar
     9    11    12    1
    10    11    13   ar
    11     4     5   ar
    12     5    14    1
    13    14    15   am
    14    15    16    2
    15    15    18    1
    16    18    19   ar
    17    19    20   ar
    18    20    21   ar
    19    21    22   ar
    20    22    23   ar
    21    23    24   ar
    22    24    25   ar
    23    25    26   ar
    24     5     6   ar
    25     6     2   ar
    26    13     7   ar
    27    26    18   ar
    28    26    21   ar
    29    14    17    1
@<TRIPOS>MOLECULE
*****
 26 29 0 0 0
SMALL
GASTEIGER

@<TRIPOS>ATOM
      1 C           8.4686   -5.0688   25.9872 C.3     1  UNL1        0.1538
      2 N           7.4943   -4.4396   25.0360 N.ar    1  UNL1       -0.2462
      3 C           7.5179   -4.5612   23.5411 C.ar    1  UNL1        0.0980
      4 C           6.3635   -3.7751   22.9938 C.ar    1  UNL1        0.0522
      5 C           5.6265   -3.1677   24.1505 C.ar    1  UNL1        0.1556
      6 N           6.3253   -3.5784   25.4126 N.ar    1  UNL1       -0.1539
      7 C           6.0085   -3.6231   21.5444 C.ar    1  UNL1        0.0051
      8 C           6.9609   -2.9427   20.6063 C.ar    1  UNL1        0.0002
      9 C           6.6059   -2.7907   19.1569 C.ar    1  UNL1        0.0009
     10 C           5.2986   -3.3190   18.6455 C.ar    1  UNL1        0.0114
     11 C           4.3461   -3.9995   19.5836 C.ar    1  UNL1        0.0577
     12 CL          3.0387   -4.5279   19.0722 Cl      1  UNL1       -0.0822
     13 C           4.7011   -4.1515   21.0330 C.ar    1  UNL1        0.0115
     14 N           4.4050   -2.3017   24.0607 N.am    1  UNL1       -0.2643
     15 C           4.5079   -0.9161   23.4953 C.2     1  UNL1        0.2552
     16 O           5.8322   -0.3966   23.0197 O.2     1  UNL1       -0.2696
     17 H           3.5358   -2.6427   24.3729 H       1  UNL1        0.1566
     18 C           3.2865   -0.0501   23.4055 C.ar    1  UNL1        0.1102
     19 C           2.7681    0.8575   24.4815 C.ar    1  UNL1        0.1281
     20 N           1.5302    1.5288   23.9649 N.ar    1  UNL1       -0.1619
     21 N           1.2835    1.0363   22.5697 N.ar    1  UNL1       -0.2105
     22 C           0.2108    1.3503   21.5695 C.ar    1  UNL1        0.1037
     23 C           0.2235    0.6885   20.2235 C.ar    1  UNL1        0.0414
     24 C           1.3089   -0.2874   19.8778 C.ar    1  UNL1        0.1022
     25 N           2.3817   -0.6014   20.8780 N.ar    1  UNL1       -0.2248
     26 C           2.3690    0.0605   22.2240 C.ar    1  UNL1        0.1697
@<TRIPOS>BOND
     1     1     2    1
     2     2     3   ar
     3     3     4   ar
     4     4     7    1
     5     7     8   ar
     6     8     9   ar
     7     9    10   ar
     8    10    11   ar
     9    11    12    1
    10    11    13   ar
    11     4     5   ar
    12     5    14    1
    13    14    15   am
    14    15    16    2
    15    15    18    1
    16    18    19   ar
    17    19    20   ar
    18    20    21   ar
    19    21    22   ar
    20    22    23   ar
    21    23    24   ar
    22    24    25   ar
    23    25    26   ar
    24     5     6   ar
    25     6     2   ar
    26    13     7   ar
    27    26    18   ar
    28    26    21   ar
    29    14    17    1
