@<TRIPOS>MOLECULE
*****
 33 36 0 0 0
SMALL
GASTEIGER

@<TRIPOS>ATOM
      1 C           6.2051   -2.8303   22.0222 C.2     1  UNL1        0.2459
      2 O           5.2902   -2.4285   23.1408 O.2     1  UNL1       -0.2730
      3 N           7.2271   -3.9067   22.2390 N.am    1  UNL1       -0.2781
      4 C           8.1419   -4.3086   21.1203 C.3     1  UNL1        0.0935
      5 C           9.1639   -5.3849   21.3371 C.3     1  UNL1        0.0219
      6 C           9.2710   -6.0594   22.6727 C.3     1  UNL1        0.0078
      7 C           8.3562   -5.6575   23.7914 C.3     1  UNL1        0.0419
      8 C           7.3342   -4.5812   23.5745 C.3     1  UNL1        0.0953
      9 C           8.4633   -6.3320   25.1269 C.ar    1  UNL1       -0.0209
     10 C           7.6696   -7.5738   25.4058 C.ar    1  UNL1       -0.0042
     11 C           7.7767   -8.2483   26.7413 C.ar    1  UNL1       -0.0003
     12 C           8.6775   -7.6809   27.7980 C.ar    1  UNL1       -0.0000
     13 C           9.4712   -6.4390   27.5191 C.ar    1  UNL1       -0.0003
     14 C           9.3641   -5.7645   26.1836 C.ar    1  UNL1       -0.0042
     15 C           6.0980   -2.1559   20.6866 C.3     1  UNL1        0.1780
     16 N           5.0004   -2.5391   19.7388 N.pl3   1  UNL1       -0.2868
     17 C           3.9404   -1.5416   19.3761 C.ar    1  UNL1        0.0498
     18 C           4.1192   -0.6602   18.1756 C.ar    1  UNL1        0.0155
     19 C           3.0593    0.3372   17.8129 C.ar    1  UNL1        0.0135
     20 C           1.8205    0.4532   18.6506 C.ar    1  UNL1        0.0683
     21 CL          0.7604    1.4507   18.2879 Cl      1  UNL1       -0.0814
     22 C           1.6416   -0.4282   19.8511 C.ar    1  UNL1        0.0694
     23 CL          0.4027   -0.3121   20.6888 Cl      1  UNL1       -0.0813
     24 C           2.7016   -1.4256   20.2138 C.ar    1  UNL1        0.0268
     25 C           4.9628   -3.9197   19.1536 C.3     1  UNL1        0.1986
     26 N           3.1306   -5.9918   20.3153 N.1     1  UNL1       -0.1941
     27 C           4.0466   -4.9558   19.7345 C.1     1  UNL1        0.0954
     28 C           6.4193   -4.1792   24.6932 C.3     1  UNL1        0.0924
     29 N           6.9453   -3.3608   25.8350 N.3     1  UNL1       -0.2713
     30 C           6.5293   -3.4811   27.2711 C.3     1  UNL1        0.0722
     31 C           7.3065   -2.4730   28.0648 C.3     1  UNL1        0.0188
     32 C           8.2028   -1.7298   27.1191 C.3     1  UNL1        0.0188
     33 C           7.9795   -2.2785   25.7410 C.3     1  UNL1        0.0722
@<TRIPOS>BOND
     1    26    27    3
     2    27    25    1
     3    25    16    1
     4    16    15    1
     5    15     1    1
     6     1     2    2
     7     1     3   am
     8     3     4    1
     9     4     5    1
    10     5     6    1
    11     6     7    1
    12     7     9    1
    13     9    10   ar
    14    10    11   ar
    15    11    12   ar
    16    12    13   ar
    17    13    14   ar
    18     7     8    1
    19     8    28    1
    20    28    29    1
    21    29    30    1
    22    30    31    1
    23    31    32    1
    24    32    33    1
    25    16    17    1
    26    17    18   ar
    27    18    19   ar
    28    19    20   ar
    29    20    21    1
    30    20    22   ar
    31    22    23    1
    32    22    24   ar
    33     8     3    1
    34    33    29    1
    35    24    17   ar
    36    14     9   ar
@<TRIPOS>MOLECULE
*****
 33 36 0 0 0
SMALL
GASTEIGER

@<TRIPOS>ATOM
      1 C         -14.4370   -0.9686   18.9691 C.2     1  UNL1        0.2459
      2 O         -15.1103   -1.8882   19.9442 O.2     1  UNL1       -0.2730
      3 N         -13.2007   -1.4161   18.2471 N.am    1  UNL1       -0.2781
      4 C         -12.5273   -0.4966   17.2719 C.3     1  UNL1        0.0935
      5 C         -11.2911   -0.9441   16.5499 C.3     1  UNL1        0.0219
      6 C         -10.7282   -2.3113   16.8031 C.3     1  UNL1        0.0078
      7 C         -11.4015   -3.2308   17.7782 C.3     1  UNL1        0.0419
      8 C         -12.6378   -2.7833   18.5002 C.3     1  UNL1        0.0953
      9 C         -10.8386   -4.5980   18.0313 C.ar    1  UNL1       -0.0209
     10 C         -11.2942   -5.7620   17.2021 C.ar    1  UNL1       -0.0042
     11 C         -10.7313   -7.1291   17.4552 C.ar    1  UNL1       -0.0003
     12 C          -9.7128   -7.3323   18.5375 C.ar    1  UNL1       -0.0000
     13 C          -9.2573   -6.1683   19.3667 C.ar    1  UNL1       -0.0003
     14 C          -9.8202   -4.8012   19.1136 C.ar    1  UNL1       -0.0042
     15 C         -14.9999    0.3985   18.7160 C.3     1  UNL1        0.1780
     16 N         -16.3205    0.7878   19.3112 N.pl3   1  UNL1       -0.2868
     17 C         -16.3819    1.8447   20.3739 C.ar    1  UNL1        0.0498
     18 C         -15.6493    3.1402   20.1866 C.ar    1  UNL1        0.0155
     19 C         -15.7107    4.1970   21.2492 C.ar    1  UNL1        0.0135
     20 C         -16.5046    3.9583   22.4993 C.ar    1  UNL1        0.0683
     21 CL        -16.5660    5.0152   23.5620 Cl      1  UNL1       -0.0814
     22 C         -17.2372    2.6629   22.6866 C.ar    1  UNL1        0.0694
     23 CL        -18.0312    2.4243   23.9368 Cl      1  UNL1       -0.0813
     24 C         -17.1759    1.6061   21.6240 C.ar    1  UNL1        0.0268
     25 C         -17.5799    0.1204   18.8436 C.3     1  UNL1        0.1986
     26 N         -19.0600   -1.7398   20.6737 N.1     1  UNL1       -0.1941
     27 C         -18.3200   -0.8097   19.7587 C.1     1  UNL1        0.0954
     28 C         -13.3112   -3.7029   19.4754 C.3     1  UNL1        0.0924
     29 N         -14.1214   -4.8624   18.9761 N.3     1  UNL1       -0.2713
     30 C         -15.0076   -4.8627   17.7659 C.3     1  UNL1        0.0722
     31 C         -15.6215   -6.2256   17.6412 C.3     1  UNL1        0.0188
     32 C         -15.1148   -7.0676   18.7745 C.3     1  UNL1        0.0188
     33 C         -14.1877   -6.2251   19.5994 C.3     1  UNL1        0.0722
@<TRIPOS>BOND
     1    26    27    3
     2    27    25    1
     3    25    16    1
     4    16    15    1
     5    15     1    1
     6     1     2    2
     7     1     3   am
     8     3     4    1
     9     4     5    1
    10     5     6    1
    11     6     7    1
    12     7     9    1
    13     9    10   ar
    14    10    11   ar
    15    11    12   ar
    16    12    13   ar
    17    13    14   ar
    18     7     8    1
    19     8    28    1
    20    28    29    1
    21    29    30    1
    22    30    31    1
    23    31    32    1
    24    32    33    1
    25    16    17    1
    26    17    18   ar
    27    18    19   ar
    28    19    20   ar
    29    20    21    1
    30    20    22   ar
    31    22    23    1
    32    22    24   ar
    33     8     3    1
    34    33    29    1
    35    24    17   ar
    36    14     9   ar
@<TRIPOS>MOLECULE
*****
 33 36 0 0 0
SMALL
GASTEIGER

@<TRIPOS>ATOM
      1 C           0.4756    2.0331   20.8680 C.2     1  UNL1        0.2459
      2 O           0.4127    2.0934   19.3705 O.2     1  UNL1       -0.2730
      3 N           1.3653    1.0306   21.5415 N.am    1  UNL1       -0.2781
      4 C           1.4282    0.9702   23.0389 C.3     1  UNL1        0.0935
      5 C           2.3178   -0.0322   23.7124 C.3     1  UNL1        0.0219
      6 C           3.1446   -0.9743   22.8884 C.3     1  UNL1        0.0078
      7 C           3.0817   -0.9139   21.3910 C.3     1  UNL1        0.0419
      8 C           2.1920    0.0885   20.7175 C.3     1  UNL1        0.0953
      9 C           3.9085   -1.8560   20.5670 C.ar    1  UNL1       -0.0209
     10 C           5.3887   -1.6455   20.4462 C.ar    1  UNL1       -0.0042
     11 C           6.2154   -2.5876   19.6222 C.ar    1  UNL1       -0.0003
     12 C           5.5620   -3.7402   18.9190 C.ar    1  UNL1       -0.0000
     13 C           4.0818   -3.9507   19.0398 C.ar    1  UNL1       -0.0003
     14 C           3.2550   -3.0086   19.8638 C.ar    1  UNL1       -0.0042
     15 C          -0.3512    2.9752   21.6919 C.3     1  UNL1        0.1780
     16 N          -1.0880    4.1016   21.0300 N.pl3   1  UNL1       -0.2868
     17 C          -2.4664    3.8770   20.4826 C.ar    1  UNL1        0.0498
     18 C          -3.5851    3.4893   21.4036 C.ar    1  UNL1        0.0155
     19 C          -4.9635    3.2648   20.8563 C.ar    1  UNL1        0.0135
     20 C          -5.2232    3.4279   19.3880 C.ar    1  UNL1        0.0683
     21 CL         -6.6016    3.2033   18.8406 Cl      1  UNL1       -0.0814
     22 C          -4.1044    3.8156   18.4670 C.ar    1  UNL1        0.0694
     23 CL         -4.3642    3.9787   16.9986 Cl      1  UNL1       -0.0813
     24 C          -2.7261    4.0401   19.0143 C.ar    1  UNL1        0.0268
     25 C          -0.4465    5.4527   20.9155 C.3     1  UNL1        0.1986
     26 N           1.8335    5.8739   19.0118 N.1     1  UNL1       -0.1941
     27 C           0.6936    5.6633   19.9636 C.1     1  UNL1        0.0954
     28 C           2.1291    0.1489   19.2200 C.3     1  UNL1        0.0924
     29 N           3.3803    0.3802   18.4255 N.3     1  UNL1       -0.2713
     30 C           4.3714    1.4849   18.6433 C.3     1  UNL1        0.0722
     31 C           5.4636    1.3349   17.6261 C.3     1  UNL1        0.0188
     32 C           5.1475    0.1376   16.7797 C.3     1  UNL1        0.0188
     33 C           3.8599   -0.4524   17.2737 C.3     1  UNL1        0.0722
@<TRIPOS>BOND
     1    26    27    3
     2    27    25    1
     3    25    16    1
     4    16    15    1
     5    15     1    1
     6     1     2    2
     7     1     3   am
     8     3     4    1
     9     4     5    1
    10     5     6    1
    11     6     7    1
    12     7     9    1
    13     9    10   ar
    14    10    11   ar
    15    11    12   ar
    16    12    13   ar
    17    13    14   ar
    18     7     8    1
    19     8    28    1
    20    28    29    1
    21    29    30    1
    22    30    31    1
    23    31    32    1
    24    32    33    1
    25    16    17    1
    26    17    18   ar
    27    18    19   ar
    28    19    20   ar
    29    20    21    1
    30    20    22   ar
    31    22    23    1
    32    22    24   ar
    33     8     3    1
    34    33    29    1
    35    24    17   ar
    36    14     9   ar
@<TRIPOS>MOLECULE
*****
 33 36 0 0 0
SMALL
GASTEIGER

@<TRIPOS>ATOM
      1 C           0.1011    1.5665   20.2705 C.2     1  UNL1        0.2459
      2 O          -0.2033    0.2255   20.8697 O.2     1  UNL1       -0.2730
      3 N           1.4242    1.8083   19.6062 N.am    1  UNL1       -0.2781
      4 C           1.7285    3.1493   19.0070 C.3     1  UNL1        0.0935
      5 C           3.0515    3.3911   18.3428 C.3     1  UNL1        0.0219
      6 C           4.0701    2.2918   18.2777 C.3     1  UNL1        0.0078
      7 C           3.7657    0.9509   18.8769 C.3     1  UNL1        0.0419
      8 C           2.4427    0.7091   19.5411 C.3     1  UNL1        0.0953
      9 C           4.7842   -0.1484   18.8118 C.ar    1  UNL1       -0.0209
     10 C           6.0262   -0.0705   19.6493 C.ar    1  UNL1       -0.0042
     11 C           7.0448   -1.1698   19.5842 C.ar    1  UNL1       -0.0003
     12 C           6.8214   -2.3468   18.6817 C.ar    1  UNL1       -0.0000
     13 C           5.5794   -2.4246   17.8442 C.ar    1  UNL1       -0.0003
     14 C           4.5608   -1.3254   17.9093 C.ar    1  UNL1       -0.0042
     15 C          -0.9174    2.6657   20.3356 C.3     1  UNL1        0.1780
     16 N          -1.3603    3.2001   21.6653 N.pl3   1  UNL1       -0.2868
     17 C          -2.8185    3.4263   21.9348 C.ar    1  UNL1        0.0498
     18 C          -3.7888    3.5048   20.7935 C.ar    1  UNL1        0.0155
     19 C          -5.2469    3.7309   21.0630 C.ar    1  UNL1        0.0135
     20 C          -5.7348    3.8785   22.4737 C.ar    1  UNL1        0.0683
     21 CL         -7.1930    4.1047   22.7432 Cl      1  UNL1       -0.0814
     22 C          -4.7646    3.8000   23.6149 C.ar    1  UNL1        0.0694
     23 CL         -5.2526    3.9477   25.0257 Cl      1  UNL1       -0.0813
     24 C          -3.3064    3.5739   23.3455 C.ar    1  UNL1        0.0268
     25 C          -0.3451    3.5083   22.7256 C.3     1  UNL1        0.1986
     26 N           0.4555    1.3926   24.6961 N.1     1  UNL1       -0.1941
     27 C           0.0552    2.4504   23.7109 C.1     1  UNL1        0.0954
     28 C           2.1383   -0.6319   20.1404 C.3     1  UNL1        0.0924
     29 N           2.8905   -1.1009   21.3504 N.3     1  UNL1       -0.2713
     30 C           2.9013   -0.4355   22.6946 C.3     1  UNL1        0.0722
     31 C           3.7815   -1.2410   23.6037 C.3     1  UNL1        0.0188
     32 C           4.3148   -2.4043   22.8212 C.3     1  UNL1        0.0188
     33 C           3.7641   -2.3178   21.4286 C.3     1  UNL1        0.0722
@<TRIPOS>BOND
     1    26    27    3
     2    27    25    1
     3    25    16    1
     4    16    15    1
     5    15     1    1
     6     1     2    2
     7     1     3   am
     8     3     4    1
     9     4     5    1
    10     5     6    1
    11     6     7    1
    12     7     9    1
    13     9    10   ar
    14    10    11   ar
    15    11    12   ar
    16    12    13   ar
    17    13    14   ar
    18     7     8    1
    19     8    28    1
    20    28    29    1
    21    29    30    1
    22    30    31    1
    23    31    32    1
    24    32    33    1
    25    16    17    1
    26    17    18   ar
    27    18    19   ar
    28    19    20   ar
    29    20    21    1
    30    20    22   ar
    31    22    23    1
    32    22    24   ar
    33     8     3    1
    34    33    29    1
    35    24    17   ar
    36    14     9   ar
@<TRIPOS>MOLECULE
*****
 33 36 0 0 0
SMALL
GASTEIGER

@<TRIPOS>ATOM
      1 C         -10.2007  -19.2100   23.2466 C.2     1  UNL1        0.2459
      2 O          -9.2770  -19.0648   24.4194 O.2     1  UNL1       -0.2730
      3 N          -9.6393  -19.4035   21.8691 N.am    1  UNL1       -0.2781
      4 C         -10.5631  -19.5487   20.6963 C.3     1  UNL1        0.0935
      5 C         -10.0016  -19.7422   19.3189 C.3     1  UNL1        0.0219
      6 C          -8.5164  -19.7906   19.1143 C.3     1  UNL1        0.0078
      7 C          -7.5927  -19.6455   20.2871 C.3     1  UNL1        0.0419
      8 C          -8.1541  -19.4519   21.6645 C.3     1  UNL1        0.0953
      9 C          -6.1075  -19.6939   20.0825 C.ar    1  UNL1       -0.0209
     10 C          -5.3647  -20.9819   20.2804 C.ar    1  UNL1       -0.0042
     11 C          -3.8795  -21.0303   20.0758 C.ar    1  UNL1       -0.0003
     12 C          -3.1371  -19.7907   19.6734 C.ar    1  UNL1       -0.0000
     13 C          -3.8798  -18.5026   19.4755 C.ar    1  UNL1       -0.0003
     14 C          -5.3650  -18.4542   19.6801 C.ar    1  UNL1       -0.0042
     15 C         -11.6859  -19.1615   23.4511 C.3     1  UNL1        0.1780
     16 N         -12.4634  -17.9533   23.0203 N.pl3   1  UNL1       -0.2868
     17 C         -11.9498  -17.0886   21.9073 C.ar    1  UNL1        0.0498
     18 C         -12.7083  -16.9985   20.6164 C.ar    1  UNL1        0.0155
     19 C         -12.1948  -16.1338   19.5035 C.ar    1  UNL1        0.0135
     20 C         -10.9227  -15.3592   19.6816 C.ar    1  UNL1        0.0683
     21 CL        -10.4091  -14.4945   18.5686 Cl      1  UNL1       -0.0814
     22 C         -10.1641  -15.4493   20.9725 C.ar    1  UNL1        0.0694
     23 CL         -8.8919  -14.6747   21.1504 Cl      1  UNL1       -0.0813
     24 C         -10.6777  -16.3140   22.0854 C.ar    1  UNL1        0.0268
     25 C         -13.7544  -17.6097   23.7023 C.3     1  UNL1        0.1986
     26 N         -14.4551  -18.8934   26.3217 N.1     1  UNL1       -0.1941
     27 C         -14.1047  -18.2516   25.0120 C.1     1  UNL1        0.0954
     28 C          -7.2303  -19.3068   22.8374 C.3     1  UNL1        0.0924
     29 N          -6.5499  -17.9957   23.0984 N.3     1  UNL1       -0.2713
     30 C          -5.0686  -17.7693   23.1663 C.3     1  UNL1        0.0722
     31 C          -4.8344  -16.3146   23.4471 C.3     1  UNL1        0.0188
     32 C          -6.1709  -15.6419   23.5528 C.3     1  UNL1        0.0188
     33 C          -7.2311  -16.6809   23.3373 C.3     1  UNL1        0.0722
@<TRIPOS>BOND
     1    26    27    3
     2    27    25    1
     3    25    16    1
     4    16    15    1
     5    15     1    1
     6     1     2    2
     7     1     3   am
     8     3     4    1
     9     4     5    1
    10     5     6    1
    11     6     7    1
    12     7     9    1
    13     9    10   ar
    14    10    11   ar
    15    11    12   ar
    16    12    13   ar
    17    13    14   ar
    18     7     8    1
    19     8    28    1
    20    28    29    1
    21    29    30    1
    22    30    31    1
    23    31    32    1
    24    32    33    1
    25    16    17    1
    26    17    18   ar
    27    18    19   ar
    28    19    20   ar
    29    20    21    1
    30    20    22   ar
    31    22    23    1
    32    22    24   ar
    33     8     3    1
    34    33    29    1
    35    24    17   ar
    36    14     9   ar
@<TRIPOS>MOLECULE
*****
 33 36 0 0 0
SMALL
GASTEIGER

@<TRIPOS>ATOM
      1 C           6.4696   -1.2744   23.9425 C.2     1  UNL1        0.2459
      2 O           6.2814    0.1626   24.3293 O.2     1  UNL1       -0.2730
      3 N           5.6827   -1.8541   22.8046 N.am    1  UNL1       -0.2781
      4 C           5.8709   -3.2910   22.4178 C.3     1  UNL1        0.0935
      5 C           5.0840   -3.8706   21.2799 C.3     1  UNL1        0.0219
      6 C           4.1089   -3.0133   20.5289 C.3     1  UNL1        0.0078
      7 C           3.9207   -1.5763   20.9157 C.3     1  UNL1        0.0419
      8 C           4.7076   -0.9967   22.0535 C.3     1  UNL1        0.0953
      9 C           2.9455   -0.7190   20.1646 C.ar    1  UNL1       -0.0209
     10 C           3.4060    0.0814   18.9825 C.ar    1  UNL1       -0.0042
     11 C           2.4309    0.9387   18.2315 C.ar    1  UNL1       -0.0003
     12 C           0.9953    0.9957   18.6625 C.ar    1  UNL1       -0.0000
     13 C           0.5348    0.1954   19.8446 C.ar    1  UNL1       -0.0003
     14 C           1.5100   -0.6620   20.5957 C.ar    1  UNL1       -0.0042
     15 C           7.4448   -2.1317   24.6936 C.3     1  UNL1        0.1780
     16 N           7.0578   -2.7263   26.0152 N.pl3   1  UNL1       -0.2868
     17 C           7.2631   -4.1906   26.2679 C.ar    1  UNL1        0.0498
     18 C           7.1321   -4.7372   27.6585 C.ar    1  UNL1        0.0155
     19 C           7.3374   -6.2015   27.9112 C.ar    1  UNL1        0.0135
     20 C           7.6737   -7.1190   26.7732 C.ar    1  UNL1        0.0683
     21 CL          7.8790   -8.5833   27.0259 Cl      1  UNL1       -0.0814
     22 C           7.8047   -6.5723   25.3826 C.ar    1  UNL1        0.0694
     23 CL          8.1409   -7.4899   24.2446 Cl      1  UNL1       -0.0813
     24 C           7.5994   -5.1081   25.1299 C.ar    1  UNL1        0.0268
     25 C           6.4655   -1.8566   27.0842 C.3     1  UNL1        0.1986
     26 N           3.4864   -1.6583   27.3770 N.1     1  UNL1       -0.1941
     27 C           4.9759   -1.7574   27.2306 C.1     1  UNL1        0.0954
     28 C           4.5194    0.4403   22.4404 C.3     1  UNL1        0.0924
     29 N           3.2450    0.8790   23.0988 N.3     1  UNL1       -0.2713
     30 C           2.4815    2.1336   22.7937 C.3     1  UNL1        0.0722
     31 C           1.2750    2.1702   23.6842 C.3     1  UNL1        0.0188
     32 C           1.2928    0.9382   24.5397 C.3     1  UNL1        0.0188
     33 C           2.5103    0.1402   24.1779 C.3     1  UNL1        0.0722
@<TRIPOS>BOND
     1    26    27    3
     2    27    25    1
     3    25    16    1
     4    16    15    1
     5    15     1    1
     6     1     2    2
     7     1     3   am
     8     3     4    1
     9     4     5    1
    10     5     6    1
    11     6     7    1
    12     7     9    1
    13     9    10   ar
    14    10    11   ar
    15    11    12   ar
    16    12    13   ar
    17    13    14   ar
    18     7     8    1
    19     8    28    1
    20    28    29    1
    21    29    30    1
    22    30    31    1
    23    31    32    1
    24    32    33    1
    25    16    17    1
    26    17    18   ar
    27    18    19   ar
    28    19    20   ar
    29    20    21    1
    30    20    22   ar
    31    22    23    1
    32    22    24   ar
    33     8     3    1
    34    33    29    1
    35    24    17   ar
    36    14     9   ar
@<TRIPOS>MOLECULE
*****
 33 36 0 0 0
SMALL
GASTEIGER

@<TRIPOS>ATOM
      1 C           0.8041    2.5654   19.9228 C.2     1  UNL1        0.2459
      2 O           0.9461    2.5205   18.4302 O.2     1  UNL1       -0.2730
      3 N           1.4681    1.5216   20.7711 N.am    1  UNL1       -0.2781
      4 C           1.3261    1.5664   22.2637 C.3     1  UNL1        0.0935
      5 C           1.9901    0.5226   23.1119 C.3     1  UNL1        0.0219
      6 C           2.7962   -0.5660   22.4676 C.3     1  UNL1        0.0078
      7 C           2.9383   -0.6108   20.9750 C.3     1  UNL1        0.0419
      8 C           2.2742    0.4330   20.1268 C.3     1  UNL1        0.0953
      9 C           3.7443   -1.6994   20.3307 C.ar    1  UNL1       -0.0209
     10 C           5.2428   -1.6472   20.3712 C.ar    1  UNL1       -0.0042
     11 C           6.0489   -2.7358   19.7268 C.ar    1  UNL1       -0.0003
     12 C           5.3565   -3.8766   19.0420 C.ar    1  UNL1       -0.0000
     13 C           3.8580   -3.9288   19.0015 C.ar    1  UNL1       -0.0003
     14 C           3.0519   -2.8402   19.6458 C.ar    1  UNL1       -0.0042
     15 C          -0.0020    3.6540   20.5671 C.3     1  UNL1        0.1780
     16 N          -1.4973    3.6500   20.4493 N.pl3   1  UNL1       -0.2868
     17 C          -2.3471    3.6497   21.6854 C.ar    1  UNL1        0.0498
     18 C          -1.7022    3.6047   23.0389 C.ar    1  UNL1        0.0155
     19 C          -2.5519    3.6045   24.2750 C.ar    1  UNL1        0.0135
     20 C          -4.0466    3.6493   24.1575 C.ar    1  UNL1        0.0683
     21 CL         -4.8964    3.6491   25.3937 Cl      1  UNL1       -0.0814
     22 C          -4.6915    3.6943   22.8040 C.ar    1  UNL1        0.0694
     23 CL         -6.1863    3.7391   22.6867 Cl      1  UNL1       -0.0813
     24 C          -3.8418    3.6945   21.5680 C.ar    1  UNL1        0.0268
     25 C          -2.1430    3.6461   19.0953 C.3     1  UNL1        0.1986
     26 N          -1.6295    5.8993   17.1823 N.1     1  UNL1       -0.1941
     27 C          -1.8862    4.7728   18.1388 C.1     1  UNL1        0.0954
     28 C           2.4162    0.3882   18.6341 C.3     1  UNL1        0.0924
     29 N           3.7583    0.6084   18.0015 N.3     1  UNL1       -0.2713
     30 C           4.6473    1.7983   18.2111 C.3     1  UNL1        0.0722
     31 C           5.8855    1.6028   17.3874 C.3     1  UNL1        0.0188
     32 C           5.7618    0.2920   16.6686 C.3     1  UNL1        0.0188
     33 C           4.4472   -0.3225   17.0482 C.3     1  UNL1        0.0722
@<TRIPOS>BOND
     1    26    27    3
     2    27    25    1
     3    25    16    1
     4    16    15    1
     5    15     1    1
     6     1     2    2
     7     1     3   am
     8     3     4    1
     9     4     5    1
    10     5     6    1
    11     6     7    1
    12     7     9    1
    13     9    10   ar
    14    10    11   ar
    15    11    12   ar
    16    12    13   ar
    17    13    14   ar
    18     7     8    1
    19     8    28    1
    20    28    29    1
    21    29    30    1
    22    30    31    1
    23    31    32    1
    24    32    33    1
    25    16    17    1
    26    17    18   ar
    27    18    19   ar
    28    19    20   ar
    29    20    21    1
    30    20    22   ar
    31    22    23    1
    32    22    24   ar
    33     8     3    1
    34    33    29    1
    35    24    17   ar
    36    14     9   ar
@<TRIPOS>MOLECULE
*****
 33 36 0 0 0
SMALL
GASTEIGER

@<TRIPOS>ATOM
      1 C         -13.7754   -4.3235   16.4130 C.2     1  UNL1        0.2459
      2 O         -15.0315   -3.6075   16.0135 O.2     1  UNL1       -0.2730
      3 N         -13.8574   -5.6364   17.1341 N.am    1  UNL1       -0.2781
      4 C         -12.6014   -6.3524   17.5336 C.3     1  UNL1        0.0935
      5 C         -12.6834   -7.6651   18.2546 C.3     1  UNL1        0.0219
      6 C         -14.0215   -8.2618   18.5762 C.3     1  UNL1        0.0078
      7 C         -15.2776   -7.5458   18.1768 C.3     1  UNL1        0.0419
      8 C         -15.1955   -6.2331   17.4557 C.3     1  UNL1        0.0953
      9 C         -16.6157   -8.1425   18.4984 C.ar    1  UNL1       -0.0209
     10 C         -17.2461   -7.8931   19.8364 C.ar    1  UNL1       -0.0042
     11 C         -18.5842   -8.4898   20.1580 C.ar    1  UNL1       -0.0003
     12 C         -19.2919   -9.3359   19.1416 C.ar    1  UNL1       -0.0000
     13 C         -18.6615   -9.5853   17.8035 C.ar    1  UNL1       -0.0003
     14 C         -17.3234   -8.9886   17.4819 C.ar    1  UNL1       -0.0042
     15 C         -12.4373   -3.7268   16.0914 C.3     1  UNL1        0.1780
     16 N         -11.8190   -2.7264   17.0224 N.pl3   1  UNL1       -0.2868
     17 C         -12.6353   -1.5796   17.5407 C.ar    1  UNL1        0.0498
     18 C         -12.3825   -0.1902   17.0350 C.ar    1  UNL1        0.0155
     19 C         -13.1988    0.9566   17.5533 C.ar    1  UNL1        0.0135
     20 C         -14.2677    0.7140   18.5771 C.ar    1  UNL1        0.0683
     21 CL        -15.0840    1.8608   19.0954 Cl      1  UNL1       -0.0814
     22 C         -14.5205   -0.6755   19.0828 C.ar    1  UNL1        0.0694
     23 CL        -15.5895   -0.9180   20.1067 Cl      1  UNL1       -0.0813
     24 C         -13.7042   -1.8222   18.5645 C.ar    1  UNL1        0.0268
     25 C         -10.3843   -2.8727   17.4351 C.3     1  UNL1        0.1986
     26 N          -9.5894   -5.0347   19.3570 N.1     1  UNL1       -0.1941
     27 C          -9.9868   -3.9538   18.3961 C.1     1  UNL1        0.0954
     28 C         -16.4516   -5.5170   17.0562 C.3     1  UNL1        0.0924
     29 N         -17.3271   -4.8967   18.1045 N.3     1  UNL1       -0.2713
     30 C         -16.8573   -4.1241   19.3013 C.3     1  UNL1        0.0722
     31 C         -18.0659   -3.6901   20.0765 C.3     1  UNL1        0.0188
     32 C         -19.2826   -4.1944   19.3588 C.3     1  UNL1        0.0188
     33 C         -18.8260   -4.9402   18.1400 C.3     1  UNL1        0.0722
@<TRIPOS>BOND
     1    26    27    3
     2    27    25    1
     3    25    16    1
     4    16    15    1
     5    15     1    1
     6     1     2    2
     7     1     3   am
     8     3     4    1
     9     4     5    1
    10     5     6    1
    11     6     7    1
    12     7     9    1
    13     9    10   ar
    14    10    11   ar
    15    11    12   ar
    16    12    13   ar
    17    13    14   ar
    18     7     8    1
    19     8    28    1
    20    28    29    1
    21    29    30    1
    22    30    31    1
    23    31    32    1
    24    32    33    1
    25    16    17    1
    26    17    18   ar
    27    18    19   ar
    28    19    20   ar
    29    20    21    1
    30    20    22   ar
    31    22    23    1
    32    22    24   ar
    33     8     3    1
    34    33    29    1
    35    24    17   ar
    36    14     9   ar
@<TRIPOS>MOLECULE
*****
 33 36 0 0 0
SMALL
GASTEIGER

@<TRIPOS>ATOM
      1 C           0.7562    2.8320   22.9104 C.2     1  UNL1        0.2459
      2 O           0.3464    3.9877   22.0466 O.2     1  UNL1       -0.2730
      3 N           0.0984    2.6204   24.2418 N.am    1  UNL1       -0.2781
      4 C           0.5083    1.4646   25.1056 C.3     1  UNL1        0.0935
      5 C          -0.1495    1.2531   26.4370 C.3     1  UNL1        0.0219
      6 C          -1.2172    2.1973   26.9045 C.3     1  UNL1        0.0078
      7 C          -1.6270    3.3530   26.0407 C.3     1  UNL1        0.0419
      8 C          -0.9692    3.5646   24.7094 C.3     1  UNL1        0.0953
      9 C          -2.6947    4.2972   26.5083 C.ar    1  UNL1       -0.0209
     10 C          -4.1403    3.9624   26.2895 C.ar    1  UNL1       -0.0042
     11 C          -5.2080    4.9066   26.7571 C.ar    1  UNL1       -0.0003
     12 C          -4.8299    6.1857   27.4434 C.ar    1  UNL1       -0.0000
     13 C          -3.3843    6.5205   27.6621 C.ar    1  UNL1       -0.0003
     14 C          -2.3166    5.5763   27.1946 C.ar    1  UNL1       -0.0042
     15 C           1.8238    1.8878   22.4429 C.3     1  UNL1        0.1780
     16 N           1.4848    0.7910   21.4774 N.pl3   1  UNL1       -0.2868
     17 C           2.3766   -0.4098   21.3631 C.ar    1  UNL1        0.0498
     18 C           2.5565   -1.0867   20.0366 C.ar    1  UNL1        0.0155
     19 C           3.4482   -2.2874   19.9222 C.ar    1  UNL1        0.0135
     20 C           4.1600   -2.8112   21.1342 C.ar    1  UNL1        0.0683
     21 CL          5.0518   -4.0119   21.0199 Cl      1  UNL1       -0.0814
     22 C           3.9800   -2.1342   22.4607 C.ar    1  UNL1        0.0694
     23 CL          4.6919   -2.6581   23.6727 Cl      1  UNL1       -0.0813
     24 C           3.0883   -0.9336   22.5751 C.ar    1  UNL1        0.0268
     25 C           0.2540    0.8949   20.6263 C.3     1  UNL1        0.1986
     26 N           0.2783    2.5957   18.1552 N.1     1  UNL1       -0.1941
     27 C           0.2662    1.7454   19.3907 C.1     1  UNL1        0.0954
     28 C          -1.3791    4.7204   23.8455 C.3     1  UNL1        0.0924
     29 N          -2.7429    4.7438   23.2215 N.3     1  UNL1       -0.2713
     30 C          -3.6967    5.9014   23.2300 C.3     1  UNL1        0.0722
     31 C          -4.9357    5.4867   22.4932 C.3     1  UNL1        0.0188
     32 C          -4.7477    4.0727   22.0294 C.3     1  UNL1        0.0188
     33 C          -3.3925    3.6135   22.4795 C.3     1  UNL1        0.0722
@<TRIPOS>BOND
     1    26    27    3
     2    27    25    1
     3    25    16    1
     4    16    15    1
     5    15     1    1
     6     1     2    2
     7     1     3   am
     8     3     4    1
     9     4     5    1
    10     5     6    1
    11     6     7    1
    12     7     9    1
    13     9    10   ar
    14    10    11   ar
    15    11    12   ar
    16    12    13   ar
    17    13    14   ar
    18     7     8    1
    19     8    28    1
    20    28    29    1
    21    29    30    1
    22    30    31    1
    23    31    32    1
    24    32    33    1
    25    16    17    1
    26    17    18   ar
    27    18    19   ar
    28    19    20   ar
    29    20    21    1
    30    20    22   ar
    31    22    23    1
    32    22    24   ar
    33     8     3    1
    34    33    29    1
    35    24    17   ar
    36    14     9   ar
