@<TRIPOS>MOLECULE
*****
 19 22 0 0 0
SMALL
GASTEIGER

@<TRIPOS>ATOM
      1 C          -9.3950  -16.7567   22.8124 C.ar    1  UNL1       -0.0215
      2 C          -8.2591  -15.9190   22.3047 C.ar    1  UNL1       -0.0042
      3 C          -7.2552  -15.3549   23.2659 C.ar    1  UNL1       -0.0003
      4 C          -7.3872  -15.6287   24.7348 C.ar    1  UNL1       -0.0000
      5 C          -6.3832  -15.0646   25.6960 C.ar    1  UNL1       -0.0000
      6 C          -6.5153  -15.3383   27.1649 C.ar    1  UNL1       -0.0000
      7 C          -7.6512  -16.1761   27.6726 C.ar    1  UNL1       -0.0000
      8 C          -8.6551  -16.7402   26.7114 C.ar    1  UNL1       -0.0000
      9 C          -8.5231  -16.4664   25.2425 C.ar    1  UNL1       -0.0003
     10 C          -9.5271  -17.0305   24.2812 C.ar    1  UNL1       -0.0042
     11 C          -8.1374  -19.5677   19.6371 C.3     1  UNL1        0.0896
     12 N          -9.2259  -18.7937   20.3199 N.3     1  UNL1       -0.2712
     13 C         -10.6779  -18.7951   19.9435 C.3     1  UNL1        0.0725
     14 C         -11.4029  -17.8848   20.8899 C.3     1  UNL1        0.0210
     15 C         -12.7484  -17.3230   21.2422 C.3     1  UNL1        0.0018
     16 C         -12.5760  -16.4118   22.4212 C.3     1  UNL1        0.0004
     17 C         -11.1240  -16.4104   22.7975 C.3     1  UNL1        0.0054
     18 C         -10.3990  -17.3208   21.8511 C.3     1  UNL1        0.0349
     19 C          -9.0535  -17.8825   21.4988 C.3     1  UNL1        0.0762
@<TRIPOS>BOND
     1    11    12    1
     2    12    13    1
     3    14    13    1
     4    14    15    1
     5    15    16    1
     6    16    17    1
     7    17    18    1
     8    18     1    1
     9     1     2   ar
    10     2     3   ar
    11     3     4   ar
    12     4     5   ar
    13     5     6   ar
    14     6     7   ar
    15     7     8   ar
    16     8     9   ar
    17     9    10   ar
    18    18    19    1
    19    19    12    1
    20    18    14    1
    21    10     1   ar
    22     9     4   ar
@<TRIPOS>MOLECULE
*****
 19 22 0 0 0
SMALL
GASTEIGER

@<TRIPOS>ATOM
      1 C          -8.7111  -18.8527   21.8479 C.ar    1  UNL1       -0.0215
      2 C          -8.6667  -19.5008   20.4958 C.ar    1  UNL1       -0.0042
      3 C          -7.3463  -19.8328   19.8663 C.ar    1  UNL1       -0.0003
      4 C          -6.0703  -19.5166   20.5888 C.ar    1  UNL1       -0.0000
      5 C          -4.7499  -19.8486   19.9592 C.ar    1  UNL1       -0.0000
      6 C          -3.4740  -19.5325   20.6817 C.ar    1  UNL1       -0.0000
      7 C          -3.5185  -18.8844   22.0338 C.ar    1  UNL1       -0.0000
      8 C          -4.8388  -18.5524   22.6633 C.ar    1  UNL1       -0.0000
      9 C          -6.1148  -18.8685   21.9408 C.ar    1  UNL1       -0.0003
     10 C          -7.4352  -18.5366   22.5704 C.ar    1  UNL1       -0.0042
     11 C         -11.4598  -15.9702   19.9239 C.3     1  UNL1        0.0896
     12 N         -11.1573  -16.9095   21.0537 N.3     1  UNL1       -0.2712
     13 C         -12.0477  -17.1930   22.2270 C.3     1  UNL1        0.0725
     14 C         -11.3520  -18.1888   23.1070 C.3     1  UNL1        0.0210
     15 C         -11.4723  -18.9795   24.3759 C.3     1  UNL1        0.0018
     16 C         -10.2262  -19.8001   24.5307 C.3     1  UNL1        0.0004
     17 C          -9.3358  -19.5166   23.3573 C.3     1  UNL1        0.0054
     18 C         -10.0316  -18.5207   22.4774 C.3     1  UNL1        0.0349
     19 C          -9.9112  -17.7301   21.2084 C.3     1  UNL1        0.0762
@<TRIPOS>BOND
     1    11    12    1
     2    12    13    1
     3    14    13    1
     4    14    15    1
     5    15    16    1
     6    16    17    1
     7    17    18    1
     8    18     1    1
     9     1     2   ar
    10     2     3   ar
    11     3     4   ar
    12     4     5   ar
    13     5     6   ar
    14     6     7   ar
    15     7     8   ar
    16     8     9   ar
    17     9    10   ar
    18    18    19    1
    19    19    12    1
    20    18    14    1
    21    10     1   ar
    22     9     4   ar
@<TRIPOS>MOLECULE
*****
 19 22 0 0 0
SMALL
GASTEIGER

@<TRIPOS>ATOM
      1 C          -7.6894  -18.9363   22.1816 C.ar    1  UNL1       -0.0215
      2 C          -8.3838  -20.0482   22.9107 C.ar    1  UNL1       -0.0042
      3 C          -9.8341  -19.9181   23.2708 C.ar    1  UNL1       -0.0003
      4 C         -10.5901  -18.6762   22.9017 C.ar    1  UNL1       -0.0000
      5 C         -12.0404  -18.5462   23.2617 C.ar    1  UNL1       -0.0000
      6 C         -12.7963  -17.3043   22.8926 C.ar    1  UNL1       -0.0000
      7 C         -12.1019  -16.1925   22.1634 C.ar    1  UNL1       -0.0000
      8 C         -10.6516  -16.3225   21.8034 C.ar    1  UNL1       -0.0000
      9 C          -9.8957  -17.5644   22.1725 C.ar    1  UNL1       -0.0003
     10 C          -8.4453  -17.6945   21.8125 C.ar    1  UNL1       -0.0042
     11 C          -4.6824  -16.2065   23.9342 C.3     1  UNL1        0.0896
     12 N          -5.0099  -17.3586   23.0312 N.3     1  UNL1       -0.2712
     13 C          -4.0291  -18.1410   22.2091 C.3     1  UNL1        0.0725
     14 C          -4.7887  -19.1965   21.4615 C.3     1  UNL1        0.0210
     15 C          -4.6521  -20.3324   20.4915 C.3     1  UNL1        0.0018
     16 C          -6.0179  -20.9043   20.2519 C.3     1  UNL1        0.0004
     17 C          -6.9987  -20.1219   21.0740 C.3     1  UNL1        0.0054
     18 C          -6.2390  -19.0664   21.8216 C.3     1  UNL1        0.0349
     19 C          -6.3758  -17.9305   22.7916 C.3     1  UNL1        0.0762
@<TRIPOS>BOND
     1    11    12    1
     2    12    13    1
     3    14    13    1
     4    14    15    1
     5    15    16    1
     6    16    17    1
     7    17    18    1
     8    18     1    1
     9     1     2   ar
    10     2     3   ar
    11     3     4   ar
    12     4     5   ar
    13     5     6   ar
    14     6     7   ar
    15     7     8   ar
    16     8     9   ar
    17     9    10   ar
    18    18    19    1
    19    19    12    1
    20    18    14    1
    21    10     1   ar
    22     9     4   ar
@<TRIPOS>MOLECULE
*****
 19 22 0 0 0
SMALL
GASTEIGER

@<TRIPOS>ATOM
      1 C          -9.3240  -17.9685   22.3651 C.ar    1  UNL1       -0.0215
      2 C          -8.3834  -17.1465   23.1955 C.ar    1  UNL1       -0.0042
      3 C          -6.9045  -17.3812   23.1074 C.ar    1  UNL1       -0.0003
      4 C          -6.3662  -18.4380   22.1889 C.ar    1  UNL1       -0.0000
      5 C          -4.8873  -18.6727   22.1008 C.ar    1  UNL1       -0.0000
      6 C          -4.3491  -19.7294   21.1824 C.ar    1  UNL1       -0.0000
      7 C          -5.2898  -20.5515   20.3521 C.ar    1  UNL1       -0.0000
      8 C          -6.7686  -20.3167   20.4401 C.ar    1  UNL1       -0.0000
      9 C          -7.3069  -19.2600   21.3586 C.ar    1  UNL1       -0.0003
     10 C          -8.7858  -19.0252   21.4467 C.ar    1  UNL1       -0.0042
     11 C         -11.4211  -15.6327   19.2487 C.3     1  UNL1        0.0896
     12 N         -11.4689  -16.4141   20.5283 N.3     1  UNL1       -0.2712
     13 C         -12.6934  -16.6834   21.3517 C.3     1  UNL1        0.0725
     14 C         -12.2818  -17.4990   22.5414 C.3     1  UNL1        0.0210
     15 C         -12.7842  -18.1696   23.7856 C.3     1  UNL1        0.0018
     16 C         -11.6158  -18.8187   24.4664 C.3     1  UNL1        0.0004
     17 C         -10.3913  -18.5494   23.6430 C.3     1  UNL1        0.0054
     18 C         -10.8030  -17.7337   22.4533 C.3     1  UNL1        0.0349
     19 C         -10.3005  -17.0632   21.2091 C.3     1  UNL1        0.0762
@<TRIPOS>BOND
     1    11    12    1
     2    12    13    1
     3    14    13    1
     4    14    15    1
     5    15    16    1
     6    16    17    1
     7    17    18    1
     8    18     1    1
     9     1     2   ar
    10     2     3   ar
    11     3     4   ar
    12     4     5   ar
    13     5     6   ar
    14     6     7   ar
    15     7     8   ar
    16     8     9   ar
    17     9    10   ar
    18    18    19    1
    19    19    12    1
    20    18    14    1
    21    10     1   ar
    22     9     4   ar
@<TRIPOS>MOLECULE
*****
 19 22 0 0 0
SMALL
GASTEIGER

@<TRIPOS>ATOM
      1 C          -9.0084  -17.3952   23.0905 C.ar    1  UNL1       -0.0215
      2 C          -7.6801  -17.0332   22.4950 C.ar    1  UNL1       -0.0042
      3 C          -6.6569  -16.3156   23.3244 C.ar    1  UNL1       -0.0003
      4 C          -6.9619  -15.9600   24.7494 C.ar    1  UNL1       -0.0000
      5 C          -5.9386  -15.2423   25.5788 C.ar    1  UNL1       -0.0000
      6 C          -6.2436  -14.8868   27.0038 C.ar    1  UNL1       -0.0000
      7 C          -7.5719  -15.2488   27.5993 C.ar    1  UNL1       -0.0000
      8 C          -8.5951  -15.9664   26.7699 C.ar    1  UNL1       -0.0000
      9 C          -8.2901  -16.3220   25.3450 C.ar    1  UNL1       -0.0003
     10 C          -9.3134  -17.0396   24.5155 C.ar    1  UNL1       -0.0042
     11 C         -10.9216  -15.3875   19.6446 C.3     1  UNL1        0.0896
     12 N         -10.7726  -16.6023   20.5118 N.3     1  UNL1       -0.2712
     13 C         -11.5128  -17.8969   20.3506 C.3     1  UNL1        0.0725
     14 C         -11.0549  -18.8305   21.4316 C.3     1  UNL1        0.0210
     15 C         -11.2293  -20.2076   22.0001 C.3     1  UNL1        0.0018
     16 C         -10.3139  -20.3410   23.1809 C.3     1  UNL1        0.0004
     17 C          -9.5737  -19.0464   23.3422 C.3     1  UNL1        0.0054
     18 C         -10.0317  -18.1128   22.2611 C.3     1  UNL1        0.0349
     19 C          -9.8572  -16.7358   21.6926 C.3     1  UNL1        0.0762
@<TRIPOS>BOND
     1    11    12    1
     2    12    13    1
     3    14    13    1
     4    14    15    1
     5    15    16    1
     6    16    17    1
     7    17    18    1
     8    18     1    1
     9     1     2   ar
    10     2     3   ar
    11     3     4   ar
    12     4     5   ar
    13     5     6   ar
    14     6     7   ar
    15     7     8   ar
    16     8     9   ar
    17     9    10   ar
    18    18    19    1
    19    19    12    1
    20    18    14    1
    21    10     1   ar
    22     9     4   ar
@<TRIPOS>MOLECULE
*****
 19 22 0 0 0
SMALL
GASTEIGER

@<TRIPOS>ATOM
      1 C          -9.2909  -17.6006   23.0844 C.ar    1  UNL1       -0.0215
      2 C         -10.0551  -18.0953   24.2766 C.ar    1  UNL1       -0.0042
      3 C          -9.6519  -17.6670   25.6564 C.ar    1  UNL1       -0.0003
      4 C          -8.4844  -16.7440   25.8441 C.ar    1  UNL1       -0.0000
      5 C          -8.0812  -16.3157   27.2239 C.ar    1  UNL1       -0.0000
      6 C          -6.9138  -15.3927   27.4116 C.ar    1  UNL1       -0.0000
      7 C          -6.1496  -14.8981   26.2194 C.ar    1  UNL1       -0.0000
      8 C          -6.5528  -15.3264   24.8396 C.ar    1  UNL1       -0.0000
      9 C          -7.7202  -16.2493   24.6519 C.ar    1  UNL1       -0.0003
     10 C          -8.1235  -16.6777   23.2720 C.ar    1  UNL1       -0.0042
     11 C          -6.6490  -20.2042   20.6745 C.3     1  UNL1        0.0896
     12 N          -7.9279  -19.4317   20.8085 N.3     1  UNL1       -0.2712
     13 C          -9.0058  -19.3242   19.7709 C.3     1  UNL1        0.0725
     14 C         -10.0974  -18.4573   20.3247 C.3     1  UNL1        0.0210
     15 C         -11.4382  -17.8550   20.0258 C.3     1  UNL1        0.0018
     16 C         -11.8637  -17.0545   21.2209 C.3     1  UNL1        0.0004
     17 C         -10.7858  -17.1620   22.2584 C.3     1  UNL1        0.0054
     18 C          -9.6941  -18.0290   21.7045 C.3     1  UNL1        0.0349
     19 C          -8.3533  -18.6312   22.0035 C.3     1  UNL1        0.0762
@<TRIPOS>BOND
     1    11    12    1
     2    12    13    1
     3    14    13    1
     4    14    15    1
     5    15    16    1
     6    16    17    1
     7    17    18    1
     8    18     1    1
     9     1     2   ar
    10     2     3   ar
    11     3     4   ar
    12     4     5   ar
    13     5     6   ar
    14     6     7   ar
    15     7     8   ar
    16     8     9   ar
    17     9    10   ar
    18    18    19    1
    19    19    12    1
    20    18    14    1
    21    10     1   ar
    22     9     4   ar
@<TRIPOS>MOLECULE
*****
 19 22 0 0 0
SMALL
GASTEIGER

@<TRIPOS>ATOM
      1 C          -8.1900  -17.2378   22.9078 C.ar    1  UNL1       -0.0215
      2 C          -8.8163  -16.3065   21.9126 C.ar    1  UNL1       -0.0042
      3 C         -10.3098  -16.2009   21.8210 C.ar    1  UNL1       -0.0003
      4 C         -11.1769  -17.0265   22.7246 C.ar    1  UNL1       -0.0000
      5 C         -12.6704  -16.9209   22.6330 C.ar    1  UNL1       -0.0000
      6 C         -13.5374  -17.7465   23.5366 C.ar    1  UNL1       -0.0000
      7 C         -12.9110  -18.6777   24.5318 C.ar    1  UNL1       -0.0000
      8 C         -11.4176  -18.7834   24.6234 C.ar    1  UNL1       -0.0000
      9 C         -10.5505  -17.9578   23.7198 C.ar    1  UNL1       -0.0003
     10 C          -9.0570  -18.0634   23.8114 C.ar    1  UNL1       -0.0042
     11 C          -6.0467  -20.5788   20.9559 C.3     1  UNL1        0.0896
     12 N          -6.0085  -19.3252   21.7788 N.3     1  UNL1       -0.2712
     13 C          -4.7778  -18.6738   22.3366 C.3     1  UNL1        0.0725
     14 C          -5.2030  -17.4490   23.0909 C.3     1  UNL1        0.0210
     15 C          -4.7052  -16.2895   23.9018 C.3     1  UNL1        0.0018
     16 C          -5.8910  -15.4672   24.3114 C.3     1  UNL1        0.0004
     17 C          -7.1217  -16.1186   23.7537 C.3     1  UNL1        0.0054
     18 C          -6.6964  -17.3434   22.9993 C.3     1  UNL1        0.0349
     19 C          -7.1943  -18.5030   22.1884 C.3     1  UNL1        0.0762
@<TRIPOS>BOND
     1    11    12    1
     2    12    13    1
     3    14    13    1
     4    14    15    1
     5    15    16    1
     6    16    17    1
     7    17    18    1
     8    18     1    1
     9     1     2   ar
    10     2     3   ar
    11     3     4   ar
    12     4     5   ar
    13     5     6   ar
    14     6     7   ar
    15     7     8   ar
    16     8     9   ar
    17     9    10   ar
    18    18    19    1
    19    19    12    1
    20    18    14    1
    21    10     1   ar
    22     9     4   ar
@<TRIPOS>MOLECULE
*****
 19 22 0 0 0
SMALL
GASTEIGER

@<TRIPOS>ATOM
      1 C          -8.8843  -17.6504   22.9279 C.ar    1  UNL1       -0.0215
      2 C          -9.8015  -17.9600   24.0738 C.ar    1  UNL1       -0.0042
      3 C          -9.4905  -17.4385   25.4454 C.ar    1  UNL1       -0.0003
      4 C          -8.2623  -16.6074   25.6711 C.ar    1  UNL1       -0.0000
      5 C          -7.9513  -16.0859   27.0427 C.ar    1  UNL1       -0.0000
      6 C          -6.7232  -15.2549   27.2684 C.ar    1  UNL1       -0.0000
      7 C          -5.8060  -14.9453   26.1226 C.ar    1  UNL1       -0.0000
      8 C          -6.1170  -15.4668   24.7510 C.ar    1  UNL1       -0.0000
      9 C          -7.3451  -16.2979   24.5253 C.ar    1  UNL1       -0.0003
     10 C          -7.6562  -16.8194   23.1536 C.ar    1  UNL1       -0.0042
     11 C         -12.5888  -16.4284   20.8426 C.3     1  UNL1        0.0896
     12 N         -11.3134  -17.2179   20.8536 N.3     1  UNL1       -0.2712
     13 C         -10.8154  -18.1039   19.7504 C.3     1  UNL1        0.0725
     14 C          -9.5063  -18.6935   20.1847 C.3     1  UNL1        0.0210
     15 C          -8.3895  -19.6055   19.7714 C.3     1  UNL1        0.0018
     16 C          -7.3882  -19.6476   20.8875 C.3     1  UNL1        0.0004
     17 C          -7.8862  -18.7617   21.9906 C.3     1  UNL1        0.0054
     18 C          -9.1953  -18.1720   21.5563 C.3     1  UNL1        0.0349
     19 C         -10.3121  -17.2600   21.9697 C.3     1  UNL1        0.0762
@<TRIPOS>BOND
     1    11    12    1
     2    12    13    1
     3    14    13    1
     4    14    15    1
     5    15    16    1
     6    16    17    1
     7    17    18    1
     8    18     1    1
     9     1     2   ar
    10     2     3   ar
    11     3     4   ar
    12     4     5   ar
    13     5     6   ar
    14     6     7   ar
    15     7     8   ar
    16     8     9   ar
    17     9    10   ar
    18    18    19    1
    19    19    12    1
    20    18    14    1
    21    10     1   ar
    22     9     4   ar
@<TRIPOS>MOLECULE
*****
 19 22 0 0 0
SMALL
GASTEIGER

@<TRIPOS>ATOM
      1 C          -8.6829  -16.5827   24.8168 C.ar    1  UNL1       -0.0215
      2 C          -9.3565  -17.8121   25.3506 C.ar    1  UNL1       -0.0042
      3 C         -10.5147  -18.4136   24.6113 C.ar    1  UNL1       -0.0003
      4 C         -10.9994  -17.7858   23.3381 C.ar    1  UNL1       -0.0000
      5 C         -12.1576  -18.3873   22.5987 C.ar    1  UNL1       -0.0000
      6 C         -12.6422  -17.7595   21.3256 C.ar    1  UNL1       -0.0000
      7 C         -11.9686  -16.5301   20.7918 C.ar    1  UNL1       -0.0000
      8 C         -10.8104  -15.9286   21.5311 C.ar    1  UNL1       -0.0000
      9 C         -10.3258  -16.5564   22.8042 C.ar    1  UNL1       -0.0003
     10 C          -9.1675  -15.9549   23.5436 C.ar    1  UNL1       -0.0042
     11 C          -4.6103  -16.6967   23.0945 C.3     1  UNL1        0.0896
     12 N          -5.5301  -16.2964   24.2098 N.3     1  UNL1       -0.2712
     13 C          -5.1337  -15.5745   25.4635 C.3     1  UNL1        0.0725
     14 C          -6.3665  -15.3797   26.2956 C.3     1  UNL1        0.0210
     15 C          -6.8834  -14.8131   27.5847 C.3     1  UNL1        0.0018
     16 C          -8.3611  -15.0645   27.6420 C.3     1  UNL1        0.0004
     17 C          -8.7574  -15.7864   26.3883 C.3     1  UNL1        0.0054
     18 C          -7.5246  -15.9812   25.5562 C.3     1  UNL1        0.0349
     19 C          -7.0078  -16.5478   24.2671 C.3     1  UNL1        0.0762
@<TRIPOS>BOND
     1    11    12    1
     2    12    13    1
     3    14    13    1
     4    14    15    1
     5    15    16    1
     6    16    17    1
     7    17    18    1
     8    18     1    1
     9     1     2   ar
    10     2     3   ar
    11     3     4   ar
    12     4     5   ar
    13     5     6   ar
    14     6     7   ar
    15     7     8   ar
    16     8     9   ar
    17     9    10   ar
    18    18    19    1
    19    19    12    1
    20    18    14    1
    21    10     1   ar
    22     9     4   ar
