@<TRIPOS>MOLECULE
*****
 38 41 0 0 0
SMALL
GASTEIGER

@<TRIPOS>ATOM
      1 C           4.3607   -1.4927   25.1937 C.ar    1  UNL1        0.1214
      2 N           5.3309   -2.0257   26.2059 N.ar    1  UNL1       -0.1677
      3 N           6.1983   -3.0430   25.5257 N.ar    1  UNL1       -0.2508
      4 C           5.7642   -3.1387   24.0931 C.ar    1  UNL1        0.0796
      5 C           6.2563   -3.9745   22.9489 C.ar    1  UNL1        0.0219
      6 C           5.6128   -3.8522   21.5995 C.ar    1  UNL1        0.0386
      7 C           4.4771   -2.8939   21.3943 C.ar    1  UNL1        0.1444
      8 C           3.9850   -2.0581   22.5385 C.ar    1  UNL1        0.0402
      9 C           4.6285   -2.1805   23.8879 C.ar    1  UNL1        0.0412
     10 C           0.5188    1.8546   23.6255 C.ar    1  UNL1        0.0930
     11 C          -0.3157    2.7893   24.4501 C.ar    1  UNL1        0.1067
     12 N           0.1063    2.6462   25.8824 N.ar    1  UNL1       -0.2252
     13 C           1.2015    1.6231   25.9430 C.ar    1  UNL1        0.1586
     14 N           1.9996    1.0737   27.0881 N.ar    1  UNL1       -0.3349
     15 C           3.0526    0.0352   26.8383 C.ar    1  UNL1        0.0945
     16 C           3.3076   -0.4540   25.4434 C.ar    1  UNL1        0.1176
     17 N           2.5095    0.0953   24.2984 N.ar    1  UNL1       -0.2390
     18 C           1.4565    1.1339   24.5481 C.ar    1  UNL1        0.1210
     19 H           1.8323    1.3948   28.0036 H       1  UNL1        0.1675
     20 N           1.5775    1.0614   21.3894 N.am    1  UNL1       -0.3039
     21 C           0.4310    1.6727   22.1392 C.2     1  UNL1        0.2488
     22 O          -0.8030    2.1019   21.4026 O.2     1  UNL1       -0.2700
     23 H           2.3875    0.7796   21.8729 H       1  UNL1        0.1496
     24 C           1.9921    2.2784   19.7022 C.3     1  UNL1        0.0196
     25 C           1.4897    0.8794   19.9031 C.3     1  UNL1        0.0572
     26 C           0.9874   -0.5196   20.1040 C.3     1  UNL1        0.0196
     27 C           1.4020    0.6974   18.4168 C.3     1  UNL1        0.0196
     28 C           7.3054   -3.8270   26.1658 C.3     1  UNL1        0.1293
     29 C           7.0056   -5.1298   26.8462 C.3     1  UNL1        0.0516
     30 C           6.3069   -5.1392   28.1735 C.3     1  UNL1        0.1530
     31 S           7.0659   -5.4929   29.4180 S.O2    1  UNL1       -0.0082
     32 C           7.8249   -5.8468   30.6625 C.3     1  UNL1        0.1760
     33 O           6.4894   -4.2938   30.1105 O.2     1  UNL1       -0.1729
     34 O           7.6423   -6.6922   28.7256 O.2     1  UNL1       -0.1729
     35 O           3.8336   -2.7717   20.0449 O.3     1  UNL1       -0.4236
     36 C           3.7985   -3.9529   19.1209 C.3     1  UNL1        0.5087
     37 F           2.5653   -4.8024   19.0362 F       1  UNL1       -0.1550
     38 F           4.9968   -4.2844   18.2816 F       1  UNL1       -0.1550
@<TRIPOS>BOND
     1    24    25    1
     2    25    26    1
     3    25    27    1
     4    25    20    1
     5    20    21   am
     6    21    22    2
     7    21    10    1
     8    10    11   ar
     9    11    12   ar
    10    12    13   ar
    11    13    14   ar
    12    14    15   ar
    13    15    16   ar
    14    16     1    1
    15     1     2   ar
    16     2     3   ar
    17     3    28    1
    18    28    29    1
    19    29    30    1
    20    30    31    1
    21    31    32    1
    22    31    33    2
    23    31    34    2
    24     3     4   ar
    25     4     5   ar
    26     5     6   ar
    27     6     7   ar
    28     7    35    1
    29    35    36    1
    30    36    37    1
    31    36    38    1
    32     7     8   ar
    33     8     9   ar
    34    16    17   ar
    35    17    18   ar
    36    18    10   ar
    37    18    13    1
    38     9     1   ar
    39     9     4   ar
    40    20    23    1
    41    14    19    1
@<TRIPOS>MOLECULE
*****
 38 41 0 0 0
SMALL
GASTEIGER

@<TRIPOS>ATOM
      1 C           4.5738   -0.8009   32.2362 C.ar    1  UNL1        0.1214
      2 N           4.8791    0.0530   33.4311 N.ar    1  UNL1       -0.1677
      3 N           3.8844    1.1752   33.4652 N.ar    1  UNL1       -0.2508
      4 C           2.9643    1.0148   32.2914 C.ar    1  UNL1        0.0796
      5 C           1.7935    1.8231   31.8160 C.ar    1  UNL1        0.0219
      6 C           1.0489    1.4101   30.5812 C.ar    1  UNL1        0.0386
      7 C           1.4750    0.1888   29.8216 C.ar    1  UNL1        0.1444
      8 C           2.6458   -0.6195   30.2970 C.ar    1  UNL1        0.0402
      9 C           3.3904   -0.2064   31.5319 C.ar    1  UNL1        0.0412
     10 C           7.1096   -3.8421   28.6663 C.ar    1  UNL1        0.0930
     11 C           7.7495   -5.1859   28.8533 C.ar    1  UNL1        0.1067
     12 N           7.5674   -5.5905   30.2861 N.ar    1  UNL1       -0.2252
     13 C           6.8149   -4.4970   30.9847 C.ar    1  UNL1        0.1586
     14 N           6.3508   -4.3456   32.4030 N.ar    1  UNL1       -0.3349
     15 C           5.6038   -3.1135   32.8201 C.ar    1  UNL1        0.0945
     16 C           5.3209   -2.0329   31.8190 C.ar    1  UNL1        0.1176
     17 N           5.7850   -2.1844   30.4007 N.ar    1  UNL1       -0.2390
     18 C           6.5320   -3.4164   29.9835 C.ar    1  UNL1        0.1210
     19 H           6.5365   -5.0548   33.0600 H       1  UNL1        0.1675
     20 N           5.8028   -3.0550   26.5632 N.am    1  UNL1       -0.3039
     21 C           7.0567   -3.0612   27.3867 C.2     1  UNL1        0.2488
     22 O           8.2573   -2.2866   26.9305 O.2     1  UNL1       -0.2700
     23 H           5.0147   -3.5634   26.8626 H       1  UNL1        0.1496
     24 C           5.2637   -1.0718   26.0375 C.3     1  UNL1        0.0196
     25 C           5.7499   -2.2741   25.2836 C.3     1  UNL1        0.0572
     26 C           6.2360   -3.4763   24.5298 C.3     1  UNL1        0.0196
     27 C           5.6969   -1.4932   24.0041 C.3     1  UNL1        0.0196
     28 C           3.8209    2.2662   34.4927 C.3     1  UNL1        0.1293
     29 C           2.8257    2.1851   35.6121 C.3     1  UNL1        0.0516
     30 C           3.2698    1.7633   36.9813 C.3     1  UNL1        0.1530
     31 S           2.4196    2.0792   38.1760 S.O2    1  UNL1       -0.0082
     32 C           1.5692    2.3952   39.3706 C.3     1  UNL1        0.1760
     33 O           3.2939    1.2084   39.0286 O.2     1  UNL1       -0.1729
     34 O           1.5451    2.9501   37.3233 O.2     1  UNL1       -0.1729
     35 O           0.7303   -0.2241   28.5868 O.3     1  UNL1       -0.4236
     36 C          -0.7471    0.0156   28.4866 C.3     1  UNL1        0.5087
     37 F          -1.7088   -1.0998   28.7707 F       1  UNL1       -0.1550
     38 F          -1.2626    1.3709   28.1023 F       1  UNL1       -0.1550
@<TRIPOS>BOND
     1    24    25    1
     2    25    26    1
     3    25    27    1
     4    25    20    1
     5    20    21   am
     6    21    22    2
     7    21    10    1
     8    10    11   ar
     9    11    12   ar
    10    12    13   ar
    11    13    14   ar
    12    14    15   ar
    13    15    16   ar
    14    16     1    1
    15     1     2   ar
    16     2     3   ar
    17     3    28    1
    18    28    29    1
    19    29    30    1
    20    30    31    1
    21    31    32    1
    22    31    33    2
    23    31    34    2
    24     3     4   ar
    25     4     5   ar
    26     5     6   ar
    27     6     7   ar
    28     7    35    1
    29    35    36    1
    30    36    37    1
    31    36    38    1
    32     7     8   ar
    33     8     9   ar
    34    16    17   ar
    35    17    18   ar
    36    18    10   ar
    37    18    13    1
    38     9     1   ar
    39     9     4   ar
    40    20    23    1
    41    14    19    1
@<TRIPOS>MOLECULE
*****
 38 41 0 0 0
SMALL
GASTEIGER

@<TRIPOS>ATOM
      1 C           1.0663    1.3530   21.8905 C.ar    1  UNL1        0.1214
      2 N           1.0839    1.6326   23.3641 N.ar    1  UNL1       -0.1677
      3 N           2.0032    0.6409   24.0132 N.ar    1  UNL1       -0.2508
      4 C           2.5538   -0.2517   22.9406 C.ar    1  UNL1        0.0796
      5 C           3.5076   -1.4083   22.9891 C.ar    1  UNL1        0.0219
      6 C           3.8824   -2.1248   21.7258 C.ar    1  UNL1        0.0386
      7 C           3.3034   -1.6847   20.4139 C.ar    1  UNL1        0.1444
      8 C           2.3496   -0.5281   20.3654 C.ar    1  UNL1        0.0402
      9 C           1.9748    0.1884   21.6288 C.ar    1  UNL1        0.0412
     10 C          -3.3141    3.8297   20.1294 C.ar    1  UNL1        0.0930
     11 C          -3.5575    4.4944   18.8069 C.ar    1  UNL1        0.1067
     12 N          -2.3108    4.3595   17.9839 N.ar    1  UNL1       -0.2252
     13 C          -1.2968    3.6114   18.7977 C.ar    1  UNL1        0.1586
     14 N           0.1110    3.1860   18.5026 N.ar    1  UNL1       -0.3349
     15 C           0.8987    2.4332   19.5335 C.ar    1  UNL1        0.0945
     16 C           0.2786    2.1058   20.8595 C.ar    1  UNL1        0.1176
     17 N          -1.1293    2.5312   21.1546 N.ar    1  UNL1       -0.2390
     18 C          -1.9169    3.2840   20.1237 C.ar    1  UNL1        0.1210
     19 H           0.5180    3.4009   17.6323 H       1  UNL1        0.1675
     20 N          -4.8754    4.9734   21.8628 N.am    1  UNL1       -0.3039
     21 C          -4.2956    3.7285   21.2592 C.2     1  UNL1        0.2488
     22 O          -4.6973    2.3826   21.7854 O.2     1  UNL1       -0.2700
     23 H          -4.6117    5.8568   21.5175 H       1  UNL1        0.1496
     24 C          -6.9844    4.7970   22.0063 C.3     1  UNL1        0.0196
     25 C          -5.8568    4.8721   22.9927 C.3     1  UNL1        0.0572
     26 C          -4.7292    4.9473   23.9790 C.3     1  UNL1        0.0196
     27 C          -6.8382    4.7709   24.1224 C.3     1  UNL1        0.0196
     28 C           2.3168    0.5565   25.4776 C.3     1  UNL1        0.1293
     29 C           1.4821    1.3128   26.4681 C.3     1  UNL1        0.0516
     30 C           1.3467    0.8089   27.8744 C.3     1  UNL1        0.1530
     31 S           0.0121    0.3477   28.3806 S.O2    1  UNL1       -0.0082
     32 C          -1.3225   -0.1135   28.8869 C.3     1  UNL1        0.1760
     33 O          -0.6614    1.0309   27.2276 O.2     1  UNL1       -0.1729
     34 O           0.6856   -0.3355   29.5337 O.2     1  UNL1       -0.1729
     35 O           3.6783   -2.4013   19.1506 O.3     1  UNL1       -0.4236
     36 C           3.7933   -3.8969   19.1426 C.3     1  UNL1        0.5087
     37 F           2.5638   -4.7429   18.9924 F       1  UNL1       -0.1550
     38 F           5.1379   -4.5465   19.2847 F       1  UNL1       -0.1550
@<TRIPOS>BOND
     1    24    25    1
     2    25    26    1
     3    25    27    1
     4    25    20    1
     5    20    21   am
     6    21    22    2
     7    21    10    1
     8    10    11   ar
     9    11    12   ar
    10    12    13   ar
    11    13    14   ar
    12    14    15   ar
    13    15    16   ar
    14    16     1    1
    15     1     2   ar
    16     2     3   ar
    17     3    28    1
    18    28    29    1
    19    29    30    1
    20    30    31    1
    21    31    32    1
    22    31    33    2
    23    31    34    2
    24     3     4   ar
    25     4     5   ar
    26     5     6   ar
    27     6     7   ar
    28     7    35    1
    29    35    36    1
    30    36    37    1
    31    36    38    1
    32     7     8   ar
    33     8     9   ar
    34    16    17   ar
    35    17    18   ar
    36    18    10   ar
    37    18    13    1
    38     9     1   ar
    39     9     4   ar
    40    20    23    1
    41    14    19    1
@<TRIPOS>MOLECULE
*****
 38 41 0 0 0
SMALL
GASTEIGER

@<TRIPOS>ATOM
      1 C           2.3876    0.8690   24.1409 C.ar    1  UNL1        0.1214
      2 N           2.4614    1.5248   22.7939 N.ar    1  UNL1       -0.1677
      3 N           1.2694    2.4239   22.6501 N.ar    1  UNL1       -0.2508
      4 C           0.4589    2.3238   23.9083 C.ar    1  UNL1        0.0796
      5 C          -0.8191    2.9835   24.3341 C.ar    1  UNL1        0.0219
      6 C          -1.4061    2.6823   25.6811 C.ar    1  UNL1        0.0386
      7 C          -0.7150    1.7213   26.6026 C.ar    1  UNL1        0.1444
      8 C           0.5630    1.0616   26.1768 C.ar    1  UNL1        0.0402
      9 C           1.1500    1.3628   24.8297 C.ar    1  UNL1        0.0412
     10 C           5.7550   -3.2446   23.7375 C.ar    1  UNL1        0.0930
     11 C           6.6013   -3.8816   24.7995 C.ar    1  UNL1        0.1067
     12 N           6.3557   -3.1524   26.0871 N.ar    1  UNL1       -0.2252
     13 C           5.3576   -2.0647   25.8209 C.ar    1  UNL1        0.1586
     14 N           4.7389   -1.0298   26.7131 N.ar    1  UNL1       -0.3349
     15 C           3.7489   -0.0520   26.1531 C.ar    1  UNL1        0.0945
     16 C           3.3777   -0.1090   24.7009 C.ar    1  UNL1        0.1176
     17 N           3.9964   -1.1439   23.8087 N.ar    1  UNL1       -0.2390
     18 C           4.9864   -2.1217   24.3686 C.ar    1  UNL1        0.1210
     19 H           4.9826   -0.9924   27.6662 H       1  UNL1        0.1675
     20 N           4.5422   -3.2098   21.4400 N.am    1  UNL1       -0.3039
     21 C           5.6889   -3.6579   22.2970 C.2     1  UNL1        0.2488
     22 O           6.7694   -4.5193   21.7136 O.2     1  UNL1       -0.2700
     23 H           3.8331   -2.6444   21.8229 H       1  UNL1        0.1496
     24 C           3.7542   -4.8777   20.3928 C.3     1  UNL1        0.0196
     25 C           4.4762   -3.6231   19.9996 C.3     1  UNL1        0.0572
     26 C           5.1981   -2.3684   19.6064 C.3     1  UNL1        0.0196
     27 C           4.4100   -4.0364   18.5593 C.3     1  UNL1        0.0196
     28 C           0.9449    3.2739   21.4575 C.3     1  UNL1        0.1293
     29 C           0.0439    2.7440   20.3817 C.3     1  UNL1        0.0516
     30 C           0.5944    1.8359   19.3223 C.3     1  UNL1        0.1530
     31 S           1.0486    0.4524   19.6824 S.O2    1  UNL1       -0.0082
     32 C           1.5028   -0.9311   20.0425 C.3     1  UNL1        0.1760
     33 O           2.2994    0.6540   18.8794 O.2     1  UNL1       -0.1729
     34 O          -0.2022    0.2508   20.4855 O.2     1  UNL1       -0.1729
     35 O          -1.3021    1.4202   27.9496 O.3     1  UNL1       -0.4236
     36 C          -0.9212    0.1602   28.6690 C.3     1  UNL1        0.5087
     37 F          -1.7666   -1.0704   28.5250 F       1  UNL1       -0.1550
     38 F           0.3051    0.1310   29.5325 F       1  UNL1       -0.1550
@<TRIPOS>BOND
     1    24    25    1
     2    25    26    1
     3    25    27    1
     4    25    20    1
     5    20    21   am
     6    21    22    2
     7    21    10    1
     8    10    11   ar
     9    11    12   ar
    10    12    13   ar
    11    13    14   ar
    12    14    15   ar
    13    15    16   ar
    14    16     1    1
    15     1     2   ar
    16     2     3   ar
    17     3    28    1
    18    28    29    1
    19    29    30    1
    20    30    31    1
    21    31    32    1
    22    31    33    2
    23    31    34    2
    24     3     4   ar
    25     4     5   ar
    26     5     6   ar
    27     6     7   ar
    28     7    35    1
    29    35    36    1
    30    36    37    1
    31    36    38    1
    32     7     8   ar
    33     8     9   ar
    34    16    17   ar
    35    17    18   ar
    36    18    10   ar
    37    18    13    1
    38     9     1   ar
    39     9     4   ar
    40    20    23    1
    41    14    19    1
@<TRIPOS>MOLECULE
*****
 38 41 0 0 0
SMALL
GASTEIGER

@<TRIPOS>ATOM
      1 C           4.8431   -2.1569   24.3440 C.ar    1  UNL1        0.1214
      2 N           4.2991   -1.2703   25.4248 N.ar    1  UNL1       -0.1677
      3 N           3.2497   -0.3881   24.8163 N.ar    1  UNL1       -0.2508
      4 C           3.1450   -0.7295   23.3593 C.ar    1  UNL1        0.0796
      5 C           2.2802   -0.1863   22.2607 C.ar    1  UNL1        0.0219
      6 C           2.4001   -0.7361   20.8704 C.ar    1  UNL1        0.0386
      7 C           3.3850   -1.8293   20.5785 C.ar    1  UNL1        0.1444
      8 C           4.2498   -2.3726   21.6771 C.ar    1  UNL1        0.0402
      9 C           4.1298   -1.8227   23.0675 C.ar    1  UNL1        0.0412
     10 C           8.3306   -4.9680   27.2352 C.ar    1  UNL1        0.0930
     11 C           9.2828   -6.0381   26.7900 C.ar    1  UNL1        0.1067
     12 N           9.1103   -6.2262   25.3119 N.ar    1  UNL1       -0.2252
     13 C           8.0515   -5.2724   24.8436 C.ar    1  UNL1        0.1586
     14 N           7.4640   -5.0115   23.4883 N.ar    1  UNL1       -0.3349
     15 C           6.3946   -3.9730   23.3218 C.ar    1  UNL1        0.0945
     16 C           5.9126   -3.1954   24.5106 C.ar    1  UNL1        0.1176
     17 N           6.5001   -3.4563   25.8658 N.ar    1  UNL1       -0.2390
     18 C           7.5696   -4.4948   26.0323 C.ar    1  UNL1        0.1210
     19 H           7.7803   -5.5218   22.7081 H       1  UNL1        0.1675
     20 N           6.8611   -4.6378   29.3523 N.am    1  UNL1       -0.3039
     21 C           8.1678   -4.4603   28.6373 C.2     1  UNL1        0.2488
     22 O           9.3116   -3.7751   29.3244 O.2     1  UNL1       -0.2700
     23 H           6.1103   -5.0875   28.9014 H       1  UNL1        0.1496
     24 C           7.0756   -5.4806   31.2871 C.3     1  UNL1        0.0196
     25 C           6.6984   -4.1301   30.7544 C.3     1  UNL1        0.0572
     26 C           6.3211   -2.7796   30.2215 C.3     1  UNL1        0.0196
     27 C           6.5357   -3.6224   32.1563 C.3     1  UNL1        0.0196
     28 C           2.4460    0.6527   25.5379 C.3     1  UNL1        0.1293
     29 C           2.6685    0.8902   27.0021 C.3     1  UNL1        0.0516
     30 C           1.7131    0.3201   28.0081 C.3     1  UNL1        0.1530
     31 S           2.2296   -0.2346   29.3025 S.O2    1  UNL1       -0.0082
     32 C           2.7459   -0.7894   30.5970 C.3     1  UNL1        0.1760
     33 O           3.6164   -0.2738   28.7324 O.2     1  UNL1       -0.1729
     34 O           0.8426   -0.1955   29.8726 O.2     1  UNL1       -0.1729
     35 O           3.5048   -2.3791   19.1881 O.3     1  UNL1       -0.4236
     36 C           3.8532   -3.8233   18.9801 C.3     1  UNL1        0.5087
     37 F           2.8970   -4.8951   19.4122 F       1  UNL1       -0.1550
     38 F           5.1577   -4.1954   18.3400 F       1  UNL1       -0.1550
@<TRIPOS>BOND
     1    24    25    1
     2    25    26    1
     3    25    27    1
     4    25    20    1
     5    20    21   am
     6    21    22    2
     7    21    10    1
     8    10    11   ar
     9    11    12   ar
    10    12    13   ar
    11    13    14   ar
    12    14    15   ar
    13    15    16   ar
    14    16     1    1
    15     1     2   ar
    16     2     3   ar
    17     3    28    1
    18    28    29    1
    19    29    30    1
    20    30    31    1
    21    31    32    1
    22    31    33    2
    23    31    34    2
    24     3     4   ar
    25     4     5   ar
    26     5     6   ar
    27     6     7   ar
    28     7    35    1
    29    35    36    1
    30    36    37    1
    31    36    38    1
    32     7     8   ar
    33     8     9   ar
    34    16    17   ar
    35    17    18   ar
    36    18    10   ar
    37    18    13    1
    38     9     1   ar
    39     9     4   ar
    40    20    23    1
    41    14    19    1
@<TRIPOS>MOLECULE
*****
 38 41 0 0 0
SMALL
GASTEIGER

@<TRIPOS>ATOM
      1 C          -4.0189  -17.9151   22.9782 C.ar    1  UNL1        0.1214
      2 N          -2.5221  -17.8213   22.9479 N.ar    1  UNL1       -0.1677
      3 N          -2.0203  -18.7567   21.8881 N.ar    1  UNL1       -0.2508
      4 C          -3.2071  -19.4288   21.2634 C.ar    1  UNL1        0.0796
      5 C          -3.3225  -20.4471   20.1682 C.ar    1  UNL1        0.0219
      6 C          -4.6730  -20.9453   19.7467 C.ar    1  UNL1        0.0386
      7 C          -5.9083  -20.4251   20.4203 C.ar    1  UNL1        0.1444
      8 C          -5.7928  -19.4068   21.5156 C.ar    1  UNL1        0.0402
      9 C          -4.4422  -18.9086   21.9371 C.ar    1  UNL1        0.0412
     10 C          -8.7589  -15.9098   24.3694 C.ar    1  UNL1        0.0930
     11 C          -9.1264  -15.1045   25.5803 C.ar    1  UNL1        0.1067
     12 N          -7.8899  -14.9248   26.4102 N.ar    1  UNL1       -0.2252
     13 C          -6.7582  -15.6192   25.7122 C.ar    1  UNL1        0.1586
     14 N          -5.3080  -15.7757   26.0622 N.ar    1  UNL1       -0.3349
     15 C          -4.3950  -16.5410   25.1508 C.ar    1  UNL1        0.0945
     16 C          -4.9321  -17.1498   23.8895 C.ar    1  UNL1        0.1176
     17 N          -6.3822  -16.9932   23.5395 N.ar    1  UNL1       -0.2390
     18 C          -7.2953  -16.2279   24.4509 C.ar    1  UNL1        0.1210
     19 H          -4.9555  -15.3761   26.8900 H       1  UNL1        0.1675
     20 N         -10.9842  -17.0091   23.6012 N.am    1  UNL1       -0.3039
     21 C          -9.6913  -16.3244   23.2699 C.2     1  UNL1        0.2488
     22 O          -9.3310  -16.0542   21.8392 O.2     1  UNL1       -0.2700
     23 H         -11.2207  -17.1865   24.5403 H       1  UNL1        0.1496
     24 C         -11.3125  -18.7967   22.5073 C.3     1  UNL1        0.0196
     25 C         -11.9166  -17.4236   22.5018 C.3     1  UNL1        0.0572
     26 C         -12.5206  -16.0506   22.4964 C.3     1  UNL1        0.0196
     27 C         -12.8489  -17.8382   21.4024 C.3     1  UNL1        0.0196
     28 C          -0.5841  -18.9809   21.5181 C.3     1  UNL1        0.1293
     29 C          -0.0054  -18.3013   20.3126 C.3     1  UNL1        0.0516
     30 C          -0.6516  -17.0621   19.7678 C.3     1  UNL1        0.1530
     31 S          -1.9337  -17.1623   18.9957 S.O2    1  UNL1       -0.0082
     32 C          -3.2158  -17.2626   18.2235 C.3     1  UNL1        0.1760
     33 O          -2.6007  -16.2534   19.9851 O.2     1  UNL1       -0.1729
     34 O          -1.2667  -18.0713   18.0062 O.2     1  UNL1       -0.1729
     35 O          -7.2587  -20.9234   19.9987 O.3     1  UNL1       -0.4236
     36 C          -8.2773  -19.9636   19.4589 C.3     1  UNL1        0.5087
     37 F          -8.7237  -18.7976   20.2901 F       1  UNL1       -0.1550
     38 F          -8.8495  -20.1699   18.0876 F       1  UNL1       -0.1550
@<TRIPOS>BOND
     1    24    25    1
     2    25    26    1
     3    25    27    1
     4    25    20    1
     5    20    21   am
     6    21    22    2
     7    21    10    1
     8    10    11   ar
     9    11    12   ar
    10    12    13   ar
    11    13    14   ar
    12    14    15   ar
    13    15    16   ar
    14    16     1    1
    15     1     2   ar
    16     2     3   ar
    17     3    28    1
    18    28    29    1
    19    29    30    1
    20    30    31    1
    21    31    32    1
    22    31    33    2
    23    31    34    2
    24     3     4   ar
    25     4     5   ar
    26     5     6   ar
    27     6     7   ar
    28     7    35    1
    29    35    36    1
    30    36    37    1
    31    36    38    1
    32     7     8   ar
    33     8     9   ar
    34    16    17   ar
    35    17    18   ar
    36    18    10   ar
    37    18    13    1
    38     9     1   ar
    39     9     4   ar
    40    20    23    1
    41    14    19    1
@<TRIPOS>MOLECULE
*****
 38 41 0 0 0
SMALL
GASTEIGER

@<TRIPOS>ATOM
      1 C           1.2298    0.7557   20.3243 C.ar    1  UNL1        0.1214
      2 N           1.9137   -0.3242   19.5395 N.ar    1  UNL1       -0.1677
      3 N           2.7565   -1.1239   20.4883 N.ar    1  UNL1       -0.2508
      4 C           2.5934   -0.5381   21.8596 C.ar    1  UNL1        0.0796
      5 C           3.1822   -0.9124   23.1874 C.ar    1  UNL1        0.0219
      6 C           2.8275   -0.1251   24.4138 C.ar    1  UNL1        0.0386
      7 C           1.8840    1.0366   24.3125 C.ar    1  UNL1        0.1444
      8 C           1.2952    1.4109   22.9847 C.ar    1  UNL1        0.0402
      9 C           1.6499    0.6236   21.7582 C.ar    1  UNL1        0.0412
     10 C          -3.0536    3.9180   20.6008 C.ar    1  UNL1        0.0930
     11 C          -3.5811    4.8867   19.5842 C.ar    1  UNL1        0.1067
     12 N          -2.6750    4.8440   18.3895 N.ar    1  UNL1       -0.2252
     13 C          -1.5875    3.8491   18.6678 C.ar    1  UNL1        0.1586
     14 N          -0.4145    3.3903   17.8533 N.ar    1  UNL1       -0.3349
     15 C           0.5246    2.3592   18.4055 C.ar    1  UNL1        0.0945
     16 C           0.2906    1.7869   19.7721 C.ar    1  UNL1        0.1176
     17 N          -0.8824    2.2457   20.5866 N.ar    1  UNL1       -0.2390
     18 C          -1.8215    3.2768   20.0345 C.ar    1  UNL1        0.1210
     19 H          -0.2609    3.7659   16.9563 H       1  UNL1        0.1675
     20 N          -3.2743    4.4862   23.1264 N.am    1  UNL1       -0.3039
     21 C          -3.6529    3.6396   21.9474 C.2     1  UNL1        0.2488
     22 O          -4.6307    2.5146   22.1150 O.2     1  UNL1       -0.2700
     23 H          -2.6325    5.2246   23.0164 H       1  UNL1        0.1496
     24 C          -5.0676    5.0418   24.1140 C.3     1  UNL1        0.0196
     25 C          -3.8737    4.2077   24.4730 C.3     1  UNL1        0.0572
     26 C          -2.6797    3.3737   24.8319 C.3     1  UNL1        0.0196
     27 C          -4.4730    3.9293   25.8195 C.3     1  UNL1        0.0196
     28 C           3.6121   -2.3024   20.1290 C.3     1  UNL1        0.1293
     29 C           3.9179   -2.5962   18.6902 C.3     1  UNL1        0.0516
     30 C           4.5462   -1.5429   17.8267 C.3     1  UNL1        0.1530
     31 S           5.9519   -1.0935   18.0951 S.O2    1  UNL1       -0.0082
     32 C           7.3576   -0.6440   18.3636 C.3     1  UNL1        0.1760
     33 O           6.4745   -2.3448   17.4540 O.2     1  UNL1       -0.1729
     34 O           5.4294    0.1579   18.7363 O.2     1  UNL1       -0.1729
     35 O           1.5293    1.8239   25.5390 O.3     1  UNL1       -0.4236
     36 C           0.7350    1.1827   26.6381 C.3     1  UNL1        0.5087
     37 F           1.4391    0.5498   27.8015 F       1  UNL1       -0.1550
     38 F          -0.7637    1.1743   26.5737 F       1  UNL1       -0.1550
@<TRIPOS>BOND
     1    24    25    1
     2    25    26    1
     3    25    27    1
     4    25    20    1
     5    20    21   am
     6    21    22    2
     7    21    10    1
     8    10    11   ar
     9    11    12   ar
    10    12    13   ar
    11    13    14   ar
    12    14    15   ar
    13    15    16   ar
    14    16     1    1
    15     1     2   ar
    16     2     3   ar
    17     3    28    1
    18    28    29    1
    19    29    30    1
    20    30    31    1
    21    31    32    1
    22    31    33    2
    23    31    34    2
    24     3     4   ar
    25     4     5   ar
    26     5     6   ar
    27     6     7   ar
    28     7    35    1
    29    35    36    1
    30    36    37    1
    31    36    38    1
    32     7     8   ar
    33     8     9   ar
    34    16    17   ar
    35    17    18   ar
    36    18    10   ar
    37    18    13    1
    38     9     1   ar
    39     9     4   ar
    40    20    23    1
    41    14    19    1
@<TRIPOS>MOLECULE
*****
 38 41 0 0 0
SMALL
GASTEIGER

@<TRIPOS>ATOM
      1 C           1.2649    1.6523   21.5581 C.ar    1  UNL1        0.1214
      2 N           2.4422    1.1659   20.7659 N.ar    1  UNL1       -0.1677
      3 N           2.2283    1.5529   19.3326 N.ar    1  UNL1       -0.2508
      4 C           0.9188    2.2786   19.2390 C.ar    1  UNL1        0.0796
      5 C           0.1916    2.8914   18.0790 C.ar    1  UNL1        0.0219
      6 C          -1.1309    3.5656   18.2944 C.ar    1  UNL1        0.0386
      7 C          -1.7263    3.6270   19.6698 C.ar    1  UNL1        0.1444
      8 C          -0.9991    3.0142   20.8298 C.ar    1  UNL1        0.0402
      9 C           0.3234    2.3400   20.6144 C.ar    1  UNL1        0.0412
     10 C          -1.2410    2.6329   26.1606 C.ar    1  UNL1        0.0930
     11 C          -0.9514    2.0914   27.5291 C.ar    1  UNL1        0.1067
     12 N           0.2257    1.1678   27.4224 N.ar    1  UNL1       -0.2252
     13 C           0.6635    1.1385   25.9881 C.ar    1  UNL1        0.1586
     14 N           1.7705    0.4043   25.2913 N.ar    1  UNL1       -0.3349
     15 C           1.9710    0.5756   23.8147 C.ar    1  UNL1        0.0945
     16 C           1.0644    1.4811   23.0348 C.ar    1  UNL1        0.1176
     17 N          -0.0425    2.2153   23.7315 N.ar    1  UNL1       -0.2390
     18 C          -0.2430    2.0440   25.2081 C.ar    1  UNL1        0.1210
     19 H           2.3655   -0.1900   25.8032 H       1  UNL1        0.1675
     20 N          -3.0014    3.5130   24.4643 N.am    1  UNL1       -0.3039
     21 C          -2.3365    3.5945   25.8065 C.2     1  UNL1        0.2488
     22 O          -2.7671    4.6377   26.7945 O.2     1  UNL1       -0.2700
     23 H          -2.7188    2.8283   23.8158 H       1  UNL1        0.1496
     24 C          -3.0960    5.3671   23.4382 C.3     1  UNL1        0.0196
     25 C          -4.0968    4.4746   24.1103 C.3     1  UNL1        0.0572
     26 C          -5.0976    3.5820   24.7825 C.3     1  UNL1        0.0196
     27 C          -5.1922    5.4362   23.7563 C.3     1  UNL1        0.0196
     28 C           3.1601    1.2650   18.1931 C.3     1  UNL1        0.1293
     29 C           3.4401   -0.1534   17.7933 C.3     1  UNL1        0.0516
     30 C           4.5627   -0.9078   18.4420 C.3     1  UNL1        0.1530
     31 S           4.4328   -2.3820   18.6865 S.O2    1  UNL1       -0.0082
     32 C           4.3031   -3.8563   18.9308 C.3     1  UNL1        0.1760
     33 O           3.3583   -2.1195   19.6995 O.2     1  UNL1       -0.1729
     34 O           5.5074   -2.6446   17.6733 O.2     1  UNL1       -0.1729
     35 O          -3.0488    4.3012   19.8851 O.3     1  UNL1       -0.4236
     36 C          -4.2770    3.4789   20.1407 C.3     1  UNL1        0.5087
     37 F          -4.4114    2.7094   21.4212 F       1  UNL1       -0.1550
     38 F          -5.3709    3.4261   19.1156 F       1  UNL1       -0.1550
@<TRIPOS>BOND
     1    24    25    1
     2    25    26    1
     3    25    27    1
     4    25    20    1
     5    20    21   am
     6    21    22    2
     7    21    10    1
     8    10    11   ar
     9    11    12   ar
    10    12    13   ar
    11    13    14   ar
    12    14    15   ar
    13    15    16   ar
    14    16     1    1
    15     1     2   ar
    16     2     3   ar
    17     3    28    1
    18    28    29    1
    19    29    30    1
    20    30    31    1
    21    31    32    1
    22    31    33    2
    23    31    34    2
    24     3     4   ar
    25     4     5   ar
    26     5     6   ar
    27     6     7   ar
    28     7    35    1
    29    35    36    1
    30    36    37    1
    31    36    38    1
    32     7     8   ar
    33     8     9   ar
    34    16    17   ar
    35    17    18   ar
    36    18    10   ar
    37    18    13    1
    38     9     1   ar
    39     9     4   ar
    40    20    23    1
    41    14    19    1
@<TRIPOS>MOLECULE
*****
 38 41 0 0 0
SMALL
GASTEIGER

@<TRIPOS>ATOM
      1 C           0.9919    2.6172   31.5175 C.ar    1  UNL1        0.1214
      2 N           0.2251    2.2512   30.2814 N.ar    1  UNL1       -0.1677
      3 N           0.8129    0.9866   29.7288 N.ar    1  UNL1       -0.2508
      4 C           1.9430    0.5711   30.6234 C.ar    1  UNL1        0.0796
      5 C           2.8855   -0.5947   30.5742 C.ar    1  UNL1        0.0219
      6 C           3.9387   -0.7528   31.6305 C.ar    1  UNL1        0.0386
      7 C           4.0494    0.2550   32.7361 C.ar    1  UNL1        0.1444
      8 C           3.1068    1.4208   32.7852 C.ar    1  UNL1        0.0402
      9 C           2.0536    1.5789   31.7289 C.ar    1  UNL1        0.0412
     10 C           1.3448    5.3143   36.1028 C.ar    1  UNL1        0.0930
     11 C           0.8255    6.6810   36.4384 C.ar    1  UNL1        0.1067
     12 N           0.1422    7.2291   35.2207 N.ar    1  UNL1       -0.2252
     13 C           0.2393    6.2012   34.1326 C.ar    1  UNL1        0.1586
     14 N          -0.2530    6.1899   32.7158 N.ar    1  UNL1       -0.3349
     15 C          -0.0022    4.9953   31.8441 C.ar    1  UNL1        0.0945
     16 C           0.7411    3.8119   32.3893 C.ar    1  UNL1        0.1176
     17 N           1.2334    3.8232   33.8061 N.ar    1  UNL1       -0.2390
     18 C           0.9825    5.0178   34.6777 C.ar    1  UNL1        0.1210
     19 H          -0.7408    6.9666   32.3579 H       1  UNL1        0.1675
     20 N           1.8863    2.9203   36.9549 N.am    1  UNL1       -0.3039
     21 C           2.0947    4.4040   37.0296 C.2     1  UNL1        0.2488
     22 O           3.0530    4.9771   38.0311 O.2     1  UNL1       -0.2700
     23 H           1.2573    2.5441   36.2976 H       1  UNL1        0.1496
     24 C           3.7382    1.8892   36.8711 C.3     1  UNL1        0.0196
     25 C           2.6362    2.0100   37.8816 C.3     1  UNL1        0.0572
     26 C           1.5342    2.1309   38.8921 C.3     1  UNL1        0.0196
     27 C           3.3861    1.0997   38.8083 C.3     1  UNL1        0.0196
     28 C           0.3516    0.2644   28.4977 C.3     1  UNL1        0.1293
     29 C          -0.6620    0.8983   27.5918 C.3     1  UNL1        0.0516
     30 C          -0.2391    1.4489   26.2621 C.3     1  UNL1        0.1530
     31 S          -1.0340    2.5453   25.6173 S.O2    1  UNL1       -0.0082
     32 C          -1.8291    3.6418   24.9725 C.3     1  UNL1        0.1760
     33 O          -0.2981    2.3217   24.3296 O.2     1  UNL1       -0.1729
     34 O          -1.7701    2.7690   26.9051 O.2     1  UNL1       -0.1729
     35 O           5.1026    0.0969   33.7923 O.3     1  UNL1       -0.4236
     36 C           4.9303   -0.9259   34.8760 C.3     1  UNL1        0.5087
     37 F           4.0269   -2.1034   34.6592 F       1  UNL1       -0.1550
     38 F           5.6617   -0.7711   36.1765 F       1  UNL1       -0.1550
@<TRIPOS>BOND
     1    24    25    1
     2    25    26    1
     3    25    27    1
     4    25    20    1
     5    20    21   am
     6    21    22    2
     7    21    10    1
     8    10    11   ar
     9    11    12   ar
    10    12    13   ar
    11    13    14   ar
    12    14    15   ar
    13    15    16   ar
    14    16     1    1
    15     1     2   ar
    16     2     3   ar
    17     3    28    1
    18    28    29    1
    19    29    30    1
    20    30    31    1
    21    31    32    1
    22    31    33    2
    23    31    34    2
    24     3     4   ar
    25     4     5   ar
    26     5     6   ar
    27     6     7   ar
    28     7    35    1
    29    35    36    1
    30    36    37    1
    31    36    38    1
    32     7     8   ar
    33     8     9   ar
    34    16    17   ar
    35    17    18   ar
    36    18    10   ar
    37    18    13    1
    38     9     1   ar
    39     9     4   ar
    40    20    23    1
    41    14    19    1
