@<TRIPOS>MOLECULE
*****
 40 43 0 0 0
SMALL
GASTEIGER

@<TRIPOS>ATOM
      1 C           7.5356   -6.8100   25.8349 C.3     1  UNL1        0.0889
      2 C           8.3686   -6.5231   24.6209 C.3     1  UNL1        0.0383
      3 C           8.3709   -5.0394   24.4005 C.3     1  UNL1        0.0739
      4 N           7.5394   -4.4093   25.4783 N.3     1  UNL1       -0.2712
      5 C           7.0231   -5.5036   26.3648 C.3     1  UNL1        0.0919
      6 O           9.4523   -8.0090   27.8069 O.2     1  UNL1       -0.2733
      7 C           8.2213   -8.7648   27.4029 C.2     1  UNL1        0.2425
      8 N           7.2630   -8.1654   26.4169 N.am    1  UNL1       -0.3032
      9 H           6.4550   -8.6615   26.1517 H       1  UNL1        0.1495
     10 C           7.9486  -10.1201   27.9848 C.3     1  UNL1        0.1759
     11 N           6.5926  -10.7430   27.8320 N.am    1  UNL1       -0.2931
     12 C           6.4209  -12.2214   28.0188 C.2     1  UNL1        0.2462
     13 O           7.6052  -13.0769   28.3584 O.2     1  UNL1       -0.2701
     14 H           5.8152  -10.1815   27.6091 H       1  UNL1        0.1502
     15 C           5.0649  -12.8442   27.8660 C.ar    1  UNL1        0.0533
     16 C           4.7238  -13.6015   26.6170 C.ar    1  UNL1        0.0045
     17 C           3.3679  -14.2244   26.4642 C.ar    1  UNL1        0.0001
     18 C           2.3529  -14.0899   27.5605 C.ar    1  UNL1        0.0039
     19 C           2.6940  -13.3326   28.8095 C.ar    1  UNL1        0.0716
     20 C           4.0499  -12.7098   28.9623 C.ar    1  UNL1        0.0084
     21 C           1.6790  -13.1981   29.9058 C.3     1  UNL1        0.4186
     22 F           0.6641  -13.0636   31.0020 F       1  UNL1       -0.1659
     23 F           0.7880  -14.1776   29.2010 F       1  UNL1       -0.1659
     24 F           2.5700  -12.2186   30.6105 F       1  UNL1       -0.1659
     25 C           7.2712   -2.9424   25.6409 C.3     1  UNL1        0.0721
     26 C           5.8724   -2.4168   25.5104 C.3     1  UNL1        0.0174
     27 C           5.2127   -2.3664   24.1642 C.3     1  UNL1        0.0048
     28 C           4.5083   -1.1186   23.7205 C.3     1  UNL1        0.0216
     29 C           3.8486   -1.0682   22.3742 C.3     1  UNL1        0.0937
     30 N           3.8934   -2.2655   21.4718 N.am    1  UNL1       -0.2761
     31 C           3.2337   -2.2150   20.1255 C.2     1  UNL1        0.2490
     32 O           3.2785   -3.4123   19.2230 O.2     1  UNL1       -0.2699
     33 C           4.5979   -3.5132   21.9155 C.3     1  UNL1        0.0937
     34 C           5.2575   -3.5637   23.2617 C.3     1  UNL1        0.0216
     35 C           2.5293   -0.9673   19.6818 C.ar    1  UNL1        0.0536
     36 C           1.1502   -0.6643   20.1880 C.ar    1  UNL1        0.0045
     37 C           0.4458    0.5835   19.7443 C.ar    1  UNL1        0.0001
     38 C           1.1204    1.5282   18.7944 C.ar    1  UNL1        0.0000
     39 C           2.4995    1.2251   18.2882 C.ar    1  UNL1        0.0001
     40 C           3.2040   -0.0226   18.7319 C.ar    1  UNL1        0.0045
@<TRIPOS>BOND
     1     6     7    2
     2     7    10    1
     3    10    11    1
     4    11    12   am
     5    12    13    2
     6    12    15    1
     7    15    16   ar
     8    16    17   ar
     9    17    18   ar
    10    18    19   ar
    11    19    21    1
    12    21    22    1
    13    21    23    1
    14    21    24    1
    15    19    20   ar
    16     7     8   am
    17     1     8    1
    18     1     2    1
    19     2     3    1
    20     3     4    1
    21     4    25    1
    22    25    26    1
    23    26    27    1
    24    27    28    1
    25    28    29    1
    26    29    30    1
    27    30    31   am
    28    31    32    2
    29    31    35    1
    30    35    36   ar
    31    36    37   ar
    32    37    38   ar
    33    38    39   ar
    34    39    40   ar
    35    30    33    1
    36    33    34    1
    37     4     5    1
    38    20    15   ar
    39     5     1    1
    40    34    27    1
    41    40    35   ar
    42    11    14    1
    43     8     9    1
@<TRIPOS>MOLECULE
*****
 40 43 0 0 0
SMALL
GASTEIGER

@<TRIPOS>ATOM
      1 C           7.4166   -6.6706   25.8440 C.3     1  UNL1        0.0889
      2 C           7.8187   -6.3869   24.4271 C.3     1  UNL1        0.0383
      3 C           7.9645   -4.9018   24.2751 C.3     1  UNL1        0.0739
      4 N           7.6525   -4.2676   25.5983 N.3     1  UNL1       -0.2712
      5 C           7.3139   -5.3608   26.5678 C.3     1  UNL1        0.0919
      6 O           9.4625   -7.9349   27.6374 O.2     1  UNL1       -0.2733
      7 C           8.1848   -8.6583   27.3304 C.2     1  UNL1        0.2425
      8 N           7.1619   -8.0262   26.4337 N.am    1  UNL1       -0.3032
      9 H           6.3234   -8.5010   26.2322 H       1  UNL1        0.1495
     10 C           7.9301  -10.0138   27.9200 C.3     1  UNL1        0.1759
     11 N           6.5895  -10.6652   27.7512 N.am    1  UNL1       -0.2931
     12 C           6.4163  -12.1196   28.0747 C.2     1  UNL1        0.2462
     13 O           7.5838  -12.9227   28.5670 O.2     1  UNL1       -0.2701
     14 H           5.8233  -10.1382   27.4282 H       1  UNL1        0.1502
     15 C           5.0757  -12.7711   27.9059 C.ar    1  UNL1        0.0533
     16 C           4.7530  -13.5055   26.6385 C.ar    1  UNL1        0.0045
     17 C           3.4124  -14.1569   26.4698 C.ar    1  UNL1        0.0001
     18 C           2.3946  -14.0739   27.5685 C.ar    1  UNL1        0.0039
     19 C           2.7174  -13.3395   28.8359 C.ar    1  UNL1        0.0716
     20 C           4.0579  -12.6881   29.0047 C.ar    1  UNL1        0.0084
     21 C           1.6995  -13.2565   29.9347 C.3     1  UNL1        0.4186
     22 F           0.6817  -13.1736   31.0334 F       1  UNL1       -0.1659
     23 F           2.5027  -12.1766   30.5971 F       1  UNL1       -0.1659
     24 F           0.8964  -14.3364   29.2723 F       1  UNL1       -0.1659
     25 C           7.6752   -2.7982   25.8989 C.3     1  UNL1        0.0721
     26 C           6.4354   -1.9751   25.7111 C.3     1  UNL1        0.0174
     27 C           5.5782   -1.6299   26.8926 C.3     1  UNL1        0.0048
     28 C           6.1904   -1.5240   28.2579 C.3     1  UNL1        0.0216
     29 C           5.3332   -1.1788   29.4395 C.3     1  UNL1        0.0937
     30 N           3.8638   -0.9396   29.2557 N.am    1  UNL1       -0.2761
     31 C           3.0066   -0.5944   30.4373 C.2     1  UNL1        0.2490
     32 O           1.5373   -0.3551   30.2536 O.2     1  UNL1       -0.2699
     33 C           3.2516   -1.0455   27.8904 C.3     1  UNL1        0.0937
     34 C           4.1088   -1.3906   26.7089 C.3     1  UNL1        0.0216
     35 C           3.6188   -0.4885   31.8026 C.ar    1  UNL1        0.0536
     36 C           3.8794   -1.7281   32.6059 C.ar    1  UNL1        0.0045
     37 C           4.4916   -1.6221   33.9712 C.ar    1  UNL1        0.0001
     38 C           4.8432   -0.2766   34.5331 C.ar    1  UNL1        0.0000
     39 C           4.5826    0.9631   33.7298 C.ar    1  UNL1        0.0001
     40 C           3.9704    0.8572   32.3645 C.ar    1  UNL1        0.0045
@<TRIPOS>BOND
     1     6     7    2
     2     7    10    1
     3    10    11    1
     4    11    12   am
     5    12    13    2
     6    12    15    1
     7    15    16   ar
     8    16    17   ar
     9    17    18   ar
    10    18    19   ar
    11    19    21    1
    12    21    22    1
    13    21    23    1
    14    21    24    1
    15    19    20   ar
    16     7     8   am
    17     1     8    1
    18     1     2    1
    19     2     3    1
    20     3     4    1
    21     4    25    1
    22    25    26    1
    23    26    27    1
    24    27    28    1
    25    28    29    1
    26    29    30    1
    27    30    31   am
    28    31    32    2
    29    31    35    1
    30    35    36   ar
    31    36    37   ar
    32    37    38   ar
    33    38    39   ar
    34    39    40   ar
    35    30    33    1
    36    33    34    1
    37     4     5    1
    38    20    15   ar
    39     5     1    1
    40    34    27    1
    41    40    35   ar
    42    11    14    1
    43     8     9    1
@<TRIPOS>MOLECULE
*****
 40 43 0 0 0
SMALL
GASTEIGER

@<TRIPOS>ATOM
      1 C          -3.5586  -15.9009   22.7890 C.3     1  UNL1        0.0889
      2 C          -2.4837  -15.2344   21.9827 C.3     1  UNL1        0.0383
      3 C          -1.5291  -16.2937   21.5173 C.3     1  UNL1        0.0739
      4 N          -2.0141  -17.6150   22.0360 N.3     1  UNL1       -0.2712
      5 C          -3.2684  -17.3722   22.8220 C.3     1  UNL1        0.0919
      6 O          -6.2273  -17.2653   22.9183 O.2     1  UNL1       -0.2733
      7 C          -6.0542  -15.8985   23.5116 C.2     1  UNL1        0.2425
      8 N          -4.7199  -15.2163   23.4470 N.am    1  UNL1       -0.3032
      9 H          -4.6063  -14.3193   23.8364 H       1  UNL1        0.1495
     10 C          -7.2154  -15.2139   24.1695 C.3     1  UNL1        0.1759
     11 N          -8.6060  -15.7414   23.9739 N.am    1  UNL1       -0.2931
     12 C          -9.1523  -15.9202   22.5885 C.2     1  UNL1        0.2462
     13 O          -8.3082  -15.5716   21.3986 O.2     1  UNL1       -0.2701
     14 H          -9.1601  -15.9701   24.7549 H       1  UNL1        0.1502
     15 C         -10.5429  -16.4476   22.3929 C.ar    1  UNL1        0.0533
     16 C         -11.1894  -16.3749   21.0414 C.ar    1  UNL1        0.0045
     17 C         -12.5799  -16.9023   20.8458 C.ar    1  UNL1        0.0001
     18 C         -13.3239  -17.5024   22.0018 C.ar    1  UNL1        0.0039
     19 C         -12.6774  -17.5751   23.3534 C.ar    1  UNL1        0.0716
     20 C         -11.2869  -17.0477   23.5489 C.ar    1  UNL1        0.0084
     21 C         -13.4215  -18.1752   24.5094 C.3     1  UNL1        0.4186
     22 F         -14.1655  -18.7753   25.6654 F       1  UNL1       -0.1659
     23 F         -12.1190  -18.5288   25.1641 F       1  UNL1       -0.1659
     24 F         -14.7239  -17.8216   23.8547 F       1  UNL1       -0.1659
     25 C          -1.3597  -18.9454   21.8087 C.3     1  UNL1        0.0721
     26 C          -2.1341  -20.0639   21.1767 C.3     1  UNL1        0.0174
     27 C          -3.6041  -19.9081   20.9222 C.3     1  UNL1        0.0048
     28 C          -4.5931  -20.2822   21.9861 C.3     1  UNL1        0.0216
     29 C          -6.0632  -20.1264   21.7316 C.3     1  UNL1        0.0937
     30 N          -6.5441  -19.5966   20.4132 N.am    1  UNL1       -0.2761
     31 C          -8.0142  -19.4408   20.1588 C.2     1  UNL1        0.2490
     32 O          -8.4951  -18.9110   18.8404 O.2     1  UNL1       -0.2699
     33 C          -5.5550  -19.2225   19.3494 C.3     1  UNL1        0.0937
     34 C          -4.0850  -19.3783   19.6039 C.3     1  UNL1        0.0216
     35 C          -9.0033  -19.8149   21.2226 C.ar    1  UNL1        0.0536
     36 C          -8.5621  -19.9232   22.6521 C.ar    1  UNL1        0.0045
     37 C          -9.5512  -20.2973   23.7159 C.ar    1  UNL1        0.0001
     38 C         -10.9814  -20.5630   23.3502 C.ar    1  UNL1        0.0000
     39 C         -11.4226  -20.4547   21.9206 C.ar    1  UNL1        0.0001
     40 C         -10.4335  -20.0806   20.8568 C.ar    1  UNL1        0.0045
@<TRIPOS>BOND
     1     6     7    2
     2     7    10    1
     3    10    11    1
     4    11    12   am
     5    12    13    2
     6    12    15    1
     7    15    16   ar
     8    16    17   ar
     9    17    18   ar
    10    18    19   ar
    11    19    21    1
    12    21    22    1
    13    21    23    1
    14    21    24    1
    15    19    20   ar
    16     7     8   am
    17     1     8    1
    18     1     2    1
    19     2     3    1
    20     3     4    1
    21     4    25    1
    22    25    26    1
    23    26    27    1
    24    27    28    1
    25    28    29    1
    26    29    30    1
    27    30    31   am
    28    31    32    2
    29    31    35    1
    30    35    36   ar
    31    36    37   ar
    32    37    38   ar
    33    38    39   ar
    34    39    40   ar
    35    30    33    1
    36    33    34    1
    37     4     5    1
    38    20    15   ar
    39     5     1    1
    40    34    27    1
    41    40    35   ar
    42    11    14    1
    43     8     9    1
@<TRIPOS>MOLECULE
*****
 40 43 0 0 0
SMALL
GASTEIGER

@<TRIPOS>ATOM
      1 C           7.3357   -5.9600   27.9379 C.3     1  UNL1        0.0889
      2 C           8.0667   -4.9069   27.1590 C.3     1  UNL1        0.0383
      3 C           7.8667   -3.5932   27.8549 C.3     1  UNL1        0.0739
      4 N           7.0121   -3.8344   29.0639 N.3     1  UNL1       -0.2712
      5 C           6.6840   -5.2972   29.1151 C.3     1  UNL1        0.0919
      6 O           9.2776   -7.8797   29.1805 O.2     1  UNL1       -0.2733
      7 C           8.2392   -8.3795   28.2203 C.2     1  UNL1        0.2425
      8 N           7.2683   -7.4197   27.5990 N.am    1  UNL1       -0.3032
      9 H           6.5868   -7.7478   26.9688 H       1  UNL1        0.1495
     10 C           8.1717   -9.8392   27.8815 C.3     1  UNL1        0.1759
     11 N           6.8407  -10.5041   27.6905 N.am    1  UNL1       -0.2931
     12 C           6.6634  -11.9471   28.0594 C.2     1  UNL1        0.2462
     13 O           7.8170  -12.7253   28.6194 O.2     1  UNL1       -0.2701
     14 H           6.0836   -9.9933   27.3229 H       1  UNL1        0.1502
     15 C           5.3324  -12.6120   27.8684 C.ar    1  UNL1        0.0533
     16 C           5.0337  -13.3390   26.5909 C.ar    1  UNL1        0.0045
     17 C           3.7027  -14.0039   26.3999 C.ar    1  UNL1        0.0001
     18 C           2.6705  -13.9417   27.4866 C.ar    1  UNL1        0.0039
     19 C           2.9693  -13.2148   28.7641 C.ar    1  UNL1        0.0716
     20 C           4.3002  -12.5499   28.9550 C.ar    1  UNL1        0.0084
     21 C           1.9371  -13.1526   29.8507 C.3     1  UNL1        0.4186
     22 F           0.9049  -13.0905   30.9373 F       1  UNL1       -0.1659
     23 F           2.7087  -12.0547   30.5209 F       1  UNL1       -0.1659
     24 F           1.1655  -14.2506   29.1805 F       1  UNL1       -0.1659
     25 C           6.5643   -2.7953   30.0486 C.3     1  UNL1        0.0721
     26 C           6.3112   -3.1758   31.4773 C.3     1  UNL1        0.0174
     27 C           6.2928   -2.1199   32.5426 C.3     1  UNL1        0.0048
     28 C           4.9960   -1.7253   33.1850 C.3     1  UNL1        0.0216
     29 C           4.9775   -0.6694   34.2504 C.3     1  UNL1        0.0937
     30 N           6.2558   -0.0082   34.6731 N.am    1  UNL1       -0.2761
     31 C           6.2373    1.0477   35.7385 C.2     1  UNL1        0.2490
     32 O           7.5156    1.7089   36.1613 O.2     1  UNL1       -0.2699
     33 C           7.5526   -0.4028   34.0307 C.3     1  UNL1        0.0937
     34 C           7.5710   -1.4587   32.9654 C.3     1  UNL1        0.0216
     35 C           4.9406    1.4423   36.3809 C.ar    1  UNL1        0.0536
     36 C           4.4280    0.6791   37.5661 C.ar    1  UNL1        0.0045
     37 C           3.1313    1.0737   38.2085 C.ar    1  UNL1        0.0001
     38 C           2.3471    2.2315   37.6657 C.ar    1  UNL1        0.0000
     39 C           2.8598    2.9947   36.4805 C.ar    1  UNL1        0.0001
     40 C           4.1565    2.6001   35.8380 C.ar    1  UNL1        0.0045
@<TRIPOS>BOND
     1     6     7    2
     2     7    10    1
     3    10    11    1
     4    11    12   am
     5    12    13    2
     6    12    15    1
     7    15    16   ar
     8    16    17   ar
     9    17    18   ar
    10    18    19   ar
    11    19    21    1
    12    21    22    1
    13    21    23    1
    14    21    24    1
    15    19    20   ar
    16     7     8   am
    17     1     8    1
    18     1     2    1
    19     2     3    1
    20     3     4    1
    21     4    25    1
    22    25    26    1
    23    26    27    1
    24    27    28    1
    25    28    29    1
    26    29    30    1
    27    30    31   am
    28    31    32    2
    29    31    35    1
    30    35    36   ar
    31    36    37   ar
    32    37    38   ar
    33    38    39   ar
    34    39    40   ar
    35    30    33    1
    36    33    34    1
    37     4     5    1
    38    20    15   ar
    39     5     1    1
    40    34    27    1
    41    40    35   ar
    42    11    14    1
    43     8     9    1
@<TRIPOS>MOLECULE
*****
 40 43 0 0 0
SMALL
GASTEIGER

@<TRIPOS>ATOM
      1 C           7.1780   -5.7059   27.1427 C.3     1  UNL1        0.0889
      2 C           6.9377   -5.2773   25.7255 C.3     1  UNL1        0.0383
      3 C           7.1709   -3.7978   25.6428 C.3     1  UNL1        0.0739
      4 N           7.5554   -3.3121   27.0090 N.3     1  UNL1       -0.2712
      5 C           7.5598   -4.4913   27.9359 C.3     1  UNL1        0.0919
      6 O           9.1537   -7.8031   26.3070 O.2     1  UNL1       -0.2733
      7 C           8.0456   -8.1523   27.2557 C.2     1  UNL1        0.2425
      8 N           7.0578   -7.1037   27.6736 N.am    1  UNL1       -0.3032
      9 H           6.3304   -7.3329   28.2963 H       1  UNL1        0.1495
     10 C           7.9253   -9.5500   27.7866 C.3     1  UNL1        0.1759
     11 N           6.6418  -10.3080   27.6190 N.am    1  UNL1       -0.2931
     12 C           6.5658  -11.7518   28.0185 C.2     1  UNL1        0.2462
     13 O           7.7734  -12.4377   28.5855 O.2     1  UNL1       -0.2701
     14 H           5.8492   -9.8579   27.2469 H       1  UNL1        0.1502
     15 C           5.2823  -12.5099   27.8509 C.ar    1  UNL1        0.0533
     16 C           5.0394  -13.3070   26.6037 C.ar    1  UNL1        0.0045
     17 C           3.7559  -14.0650   26.4362 C.ar    1  UNL1        0.0001
     18 C           2.7154  -14.0259   27.5160 C.ar    1  UNL1        0.0039
     19 C           2.9583  -13.2288   28.7632 C.ar    1  UNL1        0.0716
     20 C           4.2418  -12.4708   28.9307 C.ar    1  UNL1        0.0084
     21 C           1.9178  -13.1898   29.8429 C.3     1  UNL1        0.4186
     22 F           0.8773  -13.1507   30.9226 F       1  UNL1       -0.1659
     23 F           1.1837  -14.3151   29.1761 F       1  UNL1       -0.1659
     24 F           2.6520  -12.0644   30.5097 F       1  UNL1       -0.1659
     25 C           7.8787   -1.8958   27.3825 C.3     1  UNL1        0.0721
     26 C           7.6842   -1.4296   28.7949 C.3     1  UNL1        0.0174
     27 C           6.3478   -0.9106   29.2360 C.3     1  UNL1        0.0048
     28 C           5.2860   -0.6130   28.2192 C.3     1  UNL1        0.0216
     29 C           3.9495   -0.0940   28.6604 C.3     1  UNL1        0.0937
     30 N           3.6750    0.1274   30.1183 N.am    1  UNL1       -0.2761
     31 C           2.3385    0.6464   30.5595 C.2     1  UNL1        0.2490
     32 O           2.0639    0.8677   32.0174 O.2     1  UNL1       -0.2699
     33 C           4.7368   -0.1703   31.1351 C.3     1  UNL1        0.0937
     34 C           6.0732   -0.6893   30.6940 C.3     1  UNL1        0.0216
     35 C           1.2766    0.9440   29.5427 C.ar    1  UNL1        0.0536
     36 C           1.1851    2.3109   28.9320 C.ar    1  UNL1        0.0045
     37 C           0.1233    2.6086   27.9152 C.ar    1  UNL1        0.0001
     38 C          -0.8470    1.5392   27.5091 C.ar    1  UNL1        0.0000
     39 C          -0.7555    0.1722   28.1198 C.ar    1  UNL1        0.0001
     40 C           0.3064   -0.1254   29.1366 C.ar    1  UNL1        0.0045
@<TRIPOS>BOND
     1     6     7    2
     2     7    10    1
     3    10    11    1
     4    11    12   am
     5    12    13    2
     6    12    15    1
     7    15    16   ar
     8    16    17   ar
     9    17    18   ar
    10    18    19   ar
    11    19    21    1
    12    21    22    1
    13    21    23    1
    14    21    24    1
    15    19    20   ar
    16     7     8   am
    17     1     8    1
    18     1     2    1
    19     2     3    1
    20     3     4    1
    21     4    25    1
    22    25    26    1
    23    26    27    1
    24    27    28    1
    25    28    29    1
    26    29    30    1
    27    30    31   am
    28    31    32    2
    29    31    35    1
    30    35    36   ar
    31    36    37   ar
    32    37    38   ar
    33    38    39   ar
    34    39    40   ar
    35    30    33    1
    36    33    34    1
    37     4     5    1
    38    20    15   ar
    39     5     1    1
    40    34    27    1
    41    40    35   ar
    42    11    14    1
    43     8     9    1
@<TRIPOS>MOLECULE
*****
 40 43 0 0 0
SMALL
GASTEIGER

@<TRIPOS>ATOM
      1 C           7.6997   -6.8654   25.4005 C.3     1  UNL1        0.0889
      2 C           8.3684   -6.7455   24.0632 C.3     1  UNL1        0.0383
      3 C           8.4860   -5.2871   23.7328 C.3     1  UNL1        0.0739
      4 N           7.8900   -4.5056   24.8660 N.3     1  UNL1       -0.2712
      5 C           7.4040   -5.4810   25.8966 C.3     1  UNL1        0.0919
      6 O           9.5231   -7.8673   27.5619 O.2     1  UNL1       -0.2733
      7 C           8.2941   -8.6459   27.1968 C.2     1  UNL1        0.2425
      8 N           7.3824   -8.1450   26.1161 N.am    1  UNL1       -0.3032
      9 H           6.5758   -8.6560   25.8765 H       1  UNL1        0.1495
     10 C           7.9767   -9.9254   27.9123 C.3     1  UNL1        0.1759
     11 N           6.6467  -10.5886   27.7089 N.am    1  UNL1       -0.2931
     12 C           6.4463  -12.0133   28.1331 C.2     1  UNL1        0.2462
     13 O           7.5758  -12.7749   28.7607 O.2     1  UNL1       -0.2701
     14 H           5.9053  -10.0887   27.2970 H       1  UNL1        0.1502
     15 C           5.1162  -12.6764   27.9297 C.ar    1  UNL1        0.0533
     16 C           4.8273  -13.4003   26.6482 C.ar    1  UNL1        0.0045
     17 C           3.4973  -14.0634   26.4449 C.ar    1  UNL1        0.0001
     18 C           2.4562  -14.0025   27.5231 C.ar    1  UNL1        0.0039
     19 C           2.7451  -13.2786   28.8046 C.ar    1  UNL1        0.0716
     20 C           4.0751  -12.6155   29.0079 C.ar    1  UNL1        0.0084
     21 C           1.7041  -13.2177   29.8828 C.3     1  UNL1        0.4186
     22 F           0.6630  -13.1568   30.9610 F       1  UNL1       -0.1659
     23 F           2.4968  -12.1577   30.5884 F       1  UNL1       -0.1659
     24 F           0.9113  -14.2777   29.1772 F       1  UNL1       -0.1659
     25 C           7.7963   -3.0110   24.9531 C.3     1  UNL1        0.0721
     26 C           6.7310   -2.2806   24.1905 C.3     1  UNL1        0.0174
     27 C           5.8489   -1.2924   24.8942 C.3     1  UNL1        0.0048
     28 C           4.4594   -1.6842   25.3013 C.3     1  UNL1        0.0216
     29 C           3.5772   -0.6960   26.0051 C.3     1  UNL1        0.0937
     30 N           4.0847    0.6841   26.3017 N.am    1  UNL1       -0.2761
     31 C           3.2025    1.6723   27.0054 C.2     1  UNL1        0.2490
     32 O           3.7099    3.0524   27.3021 O.2     1  UNL1       -0.2699
     33 C           5.4742    1.0759   25.8946 C.3     1  UNL1        0.0937
     34 C           6.3563    0.0877   25.1909 C.3     1  UNL1        0.0216
     35 C           1.8130    1.2805   27.4125 C.ar    1  UNL1        0.0536
     36 C           0.6293    1.8832   26.7158 C.ar    1  UNL1        0.0045
     37 C          -0.7602    1.4913   27.1228 C.ar    1  UNL1        0.0001
     38 C          -0.9660    0.4968   28.2267 C.ar    1  UNL1        0.0000
     39 C           0.2178   -0.1059   28.9235 C.ar    1  UNL1        0.0001
     40 C           1.6073    0.2859   28.5164 C.ar    1  UNL1        0.0045
@<TRIPOS>BOND
     1     6     7    2
     2     7    10    1
     3    10    11    1
     4    11    12   am
     5    12    13    2
     6    12    15    1
     7    15    16   ar
     8    16    17   ar
     9    17    18   ar
    10    18    19   ar
    11    19    21    1
    12    21    22    1
    13    21    23    1
    14    21    24    1
    15    19    20   ar
    16     7     8   am
    17     1     8    1
    18     1     2    1
    19     2     3    1
    20     3     4    1
    21     4    25    1
    22    25    26    1
    23    26    27    1
    24    27    28    1
    25    28    29    1
    26    29    30    1
    27    30    31   am
    28    31    32    2
    29    31    35    1
    30    35    36   ar
    31    36    37   ar
    32    37    38   ar
    33    38    39   ar
    34    39    40   ar
    35    30    33    1
    36    33    34    1
    37     4     5    1
    38    20    15   ar
    39     5     1    1
    40    34    27    1
    41    40    35   ar
    42    11    14    1
    43     8     9    1
@<TRIPOS>MOLECULE
*****
 40 43 0 0 0
SMALL
GASTEIGER

@<TRIPOS>ATOM
      1 C          -3.2686  -16.1532   22.4538 C.3     1  UNL1        0.0889
      2 C          -2.0678  -15.6101   21.7375 C.3     1  UNL1        0.0383
      3 C          -1.2649  -16.7719   21.2320 C.3     1  UNL1        0.0739
      4 N          -1.9695  -18.0331   21.6359 N.3     1  UNL1       -0.2712
      5 C          -3.2079  -17.6506   22.3910 C.3     1  UNL1        0.0919
      6 O          -4.5727  -17.1541   24.9633 O.2     1  UNL1       -0.2733
      7 C          -4.9938  -15.8417   24.3713 C.2     1  UNL1        0.2425
      8 N          -4.3418  -15.3413   23.1165 N.am    1  UNL1       -0.3032
      9 H          -4.6182  -14.4800   22.7280 H       1  UNL1        0.1495
     10 C          -6.0669  -15.0299   25.0339 C.3     1  UNL1        0.1759
     11 N          -7.5038  -15.2339   24.6546 N.am    1  UNL1       -0.2931
     12 C          -7.8517  -16.0507   23.4456 C.2     1  UNL1        0.2462
     13 O          -6.7627  -16.6637   22.6159 O.2     1  UNL1       -0.2701
     14 H          -8.2186  -14.8316   25.1992 H       1  UNL1        0.1502
     15 C          -9.2886  -16.2547   23.0663 C.ar    1  UNL1        0.0533
     16 C         -10.2619  -16.7893   24.0747 C.ar    1  UNL1        0.0045
     17 C         -11.6987  -16.9933   23.6953 C.ar    1  UNL1        0.0001
     18 C         -12.1622  -16.6626   22.3076 C.ar    1  UNL1        0.0039
     19 C         -11.1889  -16.1279   21.2992 C.ar    1  UNL1        0.0716
     20 C          -9.7521  -15.9240   21.6786 C.ar    1  UNL1        0.0084
     21 C         -11.6525  -15.7972   19.9115 C.3     1  UNL1        0.4186
     22 F         -12.1160  -15.4665   18.5238 F       1  UNL1       -0.1659
     23 F         -12.9215  -16.5593   20.1538 F       1  UNL1       -0.1659
     24 F         -10.3834  -15.0351   19.6692 F       1  UNL1       -0.1659
     25 C          -1.5155  -19.4311   21.3371 C.3     1  UNL1        0.0721
     26 C          -2.4440  -20.3915   20.6549 C.3     1  UNL1        0.0174
     27 C          -3.9182  -20.1160   20.6245 C.3     1  UNL1        0.0048
     28 C          -4.7777  -20.5036   21.7910 C.3     1  UNL1        0.0216
     29 C          -6.2520  -20.2281   21.7607 C.3     1  UNL1        0.0937
     30 N          -6.8665  -19.5650   20.5637 N.am    1  UNL1       -0.2761
     31 C          -8.3407  -19.2895   20.5334 C.2     1  UNL1        0.2490
     32 O          -8.9553  -18.6264   19.3364 O.2     1  UNL1       -0.2699
     33 C          -6.0069  -19.1774   19.3972 C.3     1  UNL1        0.0937
     34 C          -4.5327  -19.4529   19.4275 C.3     1  UNL1        0.0216
     35 C          -9.2003  -19.6771   21.6999 C.ar    1  UNL1        0.0536
     36 C          -8.5841  -19.8727   23.0534 C.ar    1  UNL1        0.0045
     37 C          -9.4436  -20.2603   24.2199 C.ar    1  UNL1        0.0001
     38 C         -10.9195  -20.4523   24.0330 C.ar    1  UNL1        0.0000
     39 C         -11.5358  -20.2567   22.6795 C.ar    1  UNL1        0.0001
     40 C         -10.6762  -19.8691   21.5129 C.ar    1  UNL1        0.0045
@<TRIPOS>BOND
     1     6     7    2
     2     7    10    1
     3    10    11    1
     4    11    12   am
     5    12    13    2
     6    12    15    1
     7    15    16   ar
     8    16    17   ar
     9    17    18   ar
    10    18    19   ar
    11    19    21    1
    12    21    22    1
    13    21    23    1
    14    21    24    1
    15    19    20   ar
    16     7     8   am
    17     1     8    1
    18     1     2    1
    19     2     3    1
    20     3     4    1
    21     4    25    1
    22    25    26    1
    23    26    27    1
    24    27    28    1
    25    28    29    1
    26    29    30    1
    27    30    31   am
    28    31    32    2
    29    31    35    1
    30    35    36   ar
    31    36    37   ar
    32    37    38   ar
    33    38    39   ar
    34    39    40   ar
    35    30    33    1
    36    33    34    1
    37     4     5    1
    38    20    15   ar
    39     5     1    1
    40    34    27    1
    41    40    35   ar
    42    11    14    1
    43     8     9    1
@<TRIPOS>MOLECULE
*****
 40 43 0 0 0
SMALL
GASTEIGER

@<TRIPOS>ATOM
      1 C           6.5797   -5.1330   28.1288 C.3     1  UNL1        0.0889
      2 C           7.3091   -6.1344   28.9744 C.3     1  UNL1        0.0383
      3 C           7.3791   -5.5967   30.3730 C.3     1  UNL1        0.0739
      4 N           6.6929   -4.2629   30.3917 N.3     1  UNL1       -0.2712
      5 C           6.1989   -3.9764   29.0047 C.3     1  UNL1        0.0919
      6 O           7.9530   -3.3415   26.1527 O.2     1  UNL1       -0.2733
      7 C           6.9699   -4.3693   25.6763 C.2     1  UNL1        0.2425
      8 N           6.2832   -5.2650   26.6643 N.am    1  UNL1       -0.3032
      9 H           5.6379   -5.9396   26.3515 H       1  UNL1        0.1495
     10 C           6.6733   -4.5013   24.2119 C.3     1  UNL1        0.1759
     11 N           5.7012   -3.5659   23.5561 N.am    1  UNL1       -0.2931
     12 C           5.6324   -3.4834   22.0600 C.2     1  UNL1        0.2462
     13 O           6.5357   -4.3364   21.2195 O.2     1  UNL1       -0.2701
     14 H           5.1083   -3.0060   24.1077 H       1  UNL1        0.1502
     15 C           4.6602   -2.5480   21.4043 C.ar    1  UNL1        0.0533
     16 C           3.6485   -1.8150   22.2343 C.ar    1  UNL1        0.0045
     17 C           2.6764   -0.8796   21.5785 C.ar    1  UNL1        0.0001
     18 C           2.7161   -0.6771   20.0928 C.ar    1  UNL1        0.0039
     19 C           3.7279   -1.4101   19.2628 C.ar    1  UNL1        0.0716
     20 C           4.7000   -2.3455   19.9185 C.ar    1  UNL1        0.0084
     21 C           3.7676   -1.2077   17.7770 C.3     1  UNL1        0.4186
     22 F           3.8073   -1.0053   16.2913 F       1  UNL1       -0.1659
     23 F           2.7094   -0.1510   17.8927 F       1  UNL1       -0.1659
     24 F           4.8259   -2.2645   17.6614 F       1  UNL1       -0.1659
     25 C           6.5295   -3.3721   31.5874 C.3     1  UNL1        0.0721
     26 C           6.5809   -1.8818   31.4250 C.3     1  UNL1        0.0174
     27 C           5.3083   -1.0930   31.3345 C.3     1  UNL1        0.0048
     28 C           4.6525   -0.8777   30.0028 C.3     1  UNL1        0.0216
     29 C           3.3798   -0.0888   29.9122 C.3     1  UNL1        0.0937
     30 N           2.7631    0.4847   31.1535 N.am    1  UNL1       -0.2761
     31 C           1.4905    1.2735   31.0629 C.2     1  UNL1        0.2490
     32 O           0.8737    1.8471   32.3042 O.2     1  UNL1       -0.2699
     33 C           3.4189    0.2694   32.4852 C.3     1  UNL1        0.0937
     34 C           4.6915   -0.5194   32.5758 C.3     1  UNL1        0.0216
     35 C           0.8346    1.4888   29.7312 C.ar    1  UNL1        0.0536
     36 C          -0.0711    0.4372   29.1625 C.ar    1  UNL1        0.0045
     37 C          -0.7269    0.6524   27.8307 C.ar    1  UNL1        0.0001
     38 C          -0.4769    1.9194   27.0678 C.ar    1  UNL1        0.0000
     39 C           0.4288    2.9712   27.6365 C.ar    1  UNL1        0.0001
     40 C           1.0847    2.7559   28.9683 C.ar    1  UNL1        0.0045
@<TRIPOS>BOND
     1     6     7    2
     2     7    10    1
     3    10    11    1
     4    11    12   am
     5    12    13    2
     6    12    15    1
     7    15    16   ar
     8    16    17   ar
     9    17    18   ar
    10    18    19   ar
    11    19    21    1
    12    21    22    1
    13    21    23    1
    14    21    24    1
    15    19    20   ar
    16     7     8   am
    17     1     8    1
    18     1     2    1
    19     2     3    1
    20     3     4    1
    21     4    25    1
    22    25    26    1
    23    26    27    1
    24    27    28    1
    25    28    29    1
    26    29    30    1
    27    30    31   am
    28    31    32    2
    29    31    35    1
    30    35    36   ar
    31    36    37   ar
    32    37    38   ar
    33    38    39   ar
    34    39    40   ar
    35    30    33    1
    36    33    34    1
    37     4     5    1
    38    20    15   ar
    39     5     1    1
    40    34    27    1
    41    40    35   ar
    42    11    14    1
    43     8     9    1
@<TRIPOS>MOLECULE
*****
 40 43 0 0 0
SMALL
GASTEIGER

@<TRIPOS>ATOM
      1 C           8.3231   -6.0441   24.7343 C.3     1  UNL1        0.0889
      2 C           7.7467   -7.3772   25.1093 C.3     1  UNL1        0.0383
      3 C           7.7201   -7.4660   26.6064 C.3     1  UNL1        0.0739
      4 N           8.2801   -6.1879   27.1567 N.3     1  UNL1       -0.2712
      5 C           8.6528   -5.3091   25.9996 C.3     1  UNL1        0.0919
      6 O           6.2828   -4.2436   23.4712 O.2     1  UNL1       -0.2733
      7 C           7.5129   -4.6351   22.7074 C.2     1  UNL1        0.2425
      8 N           8.5331   -5.5354   23.3388 N.am    1  UNL1       -0.3032
      9 H           9.3404   -5.7923   22.8375 H       1  UNL1        0.1495
     10 C           7.7229   -4.1264   21.3120 C.3     1  UNL1        0.1759
     11 N           6.8275   -3.0564   20.7611 N.am    1  UNL1       -0.2931
     12 C           5.6175   -3.4310   19.9578 C.2     1  UNL1        0.2462
     13 O           5.3028   -4.8757   19.7053 O.2     1  UNL1       -0.2701
     14 H           7.0341   -2.1081   20.9268 H       1  UNL1        0.1502
     15 C           4.7221   -2.3610   19.4069 C.ar    1  UNL1        0.0533
     16 C           5.0156   -1.7539   18.0670 C.ar    1  UNL1        0.0045
     17 C           4.1202   -0.6839   17.5162 C.ar    1  UNL1        0.0001
     18 C           2.9315   -0.2210   18.3053 C.ar    1  UNL1        0.0039
     19 C           2.6380   -0.8282   19.6451 C.ar    1  UNL1        0.0716
     20 C           3.5334   -1.8981   20.1959 C.ar    1  UNL1        0.0084
     21 C           1.4492   -0.3653   20.4341 C.3     1  UNL1        0.4186
     22 F           0.2605    0.0976   21.2232 F       1  UNL1       -0.1659
     23 F           0.6819   -0.1655   19.1609 F       1  UNL1       -0.1659
     24 F           2.2166   -0.5651   21.7074 F       1  UNL1       -0.1659
     25 C           8.4395   -5.8482   28.6090 C.3     1  UNL1        0.0721
     26 C           7.2297   -5.7217   29.4868 C.3     1  UNL1        0.0174
     27 C           6.9255   -4.4169   30.1612 C.3     1  UNL1        0.0048
     28 C           6.9592   -4.3205   31.6577 C.3     1  UNL1        0.0216
     29 C           6.6551   -3.0156   32.3323 C.3     1  UNL1        0.0937
     30 N           6.3173   -1.8073   31.5102 N.am    1  UNL1       -0.2761
     31 C           6.0131   -0.5024   32.1847 C.2     1  UNL1        0.2490
     32 O           5.6753    0.7060   31.3627 O.2     1  UNL1       -0.2699
     33 C           6.2836   -1.9037   30.0137 C.3     1  UNL1        0.0937
     34 C           6.5877   -3.2085   29.3392 C.3     1  UNL1        0.0216
     35 C           6.0468   -0.4060   33.6812 C.ar    1  UNL1        0.0536
     36 C           7.3390   -0.1155   34.3852 C.ar    1  UNL1        0.0045
     37 C           7.3727   -0.0190   35.8817 C.ar    1  UNL1        0.0001
     38 C           6.1140   -0.2132   36.6742 C.ar    1  UNL1        0.0000
     39 C           4.8217   -0.5037   35.9702 C.ar    1  UNL1        0.0001
     40 C           4.7881   -0.6001   34.4737 C.ar    1  UNL1        0.0045
@<TRIPOS>BOND
     1     6     7    2
     2     7    10    1
     3    10    11    1
     4    11    12   am
     5    12    13    2
     6    12    15    1
     7    15    16   ar
     8    16    17   ar
     9    17    18   ar
    10    18    19   ar
    11    19    21    1
    12    21    22    1
    13    21    23    1
    14    21    24    1
    15    19    20   ar
    16     7     8   am
    17     1     8    1
    18     1     2    1
    19     2     3    1
    20     3     4    1
    21     4    25    1
    22    25    26    1
    23    26    27    1
    24    27    28    1
    25    28    29    1
    26    29    30    1
    27    30    31   am
    28    31    32    2
    29    31    35    1
    30    35    36   ar
    31    36    37   ar
    32    37    38   ar
    33    38    39   ar
    34    39    40   ar
    35    30    33    1
    36    33    34    1
    37     4     5    1
    38    20    15   ar
    39     5     1    1
    40    34    27    1
    41    40    35   ar
    42    11    14    1
    43     8     9    1
