@<TRIPOS>MOLECULE
*****
 30 32 0 0 0
SMALL
GASTEIGER

@<TRIPOS>ATOM
      1 C          -6.1589  -15.7491   24.0954 C.ar    1  UNL1        0.1593
      2 C          -4.7256  -15.5190   23.7178 C.ar    1  UNL1        0.1357
      3 N          -3.9937  -16.5379   22.8956 N.ar    1  UNL1       -0.2390
      4 C          -4.6952  -17.7870   22.4509 C.ar    1  UNL1        0.1030
      5 C          -4.2356  -18.9612   21.6386 C.ar    1  UNL1        0.0895
      6 C          -5.3849  -19.9171   21.5141 C.ar    1  UNL1        0.0823
      7 N          -6.5548  -19.3336   22.2494 N.ar    1  UNL1       -0.3189
      8 C          -6.1285  -18.0171   22.8284 C.ar    1  UNL1        0.0814
      9 C          -6.8604  -16.9981   23.6507 C.ar    1  UNL1        0.0572
     10 C          -2.8670  -19.1470   21.0535 C.2     1  UNL1        0.2489
     11 O          -2.0960  -20.4030   21.3328 O.2     1  UNL1       -0.2700
     12 N          -2.2693  -18.0767   20.1890 N.am    1  UNL1       -0.2984
     13 H          -2.7752  -17.2523   20.0056 H       1  UNL1        0.1498
     14 C          -0.9006  -18.2625   19.6039 C.3     1  UNL1        0.1215
     15 C           0.2264  -17.3712   20.0344 C.3     1  UNL1        0.1583
     16 O           1.3805  -17.9405   20.8051 O.3     1  UNL1       -0.3802
     17 H           1.0717  -18.2427   21.6735 H       1  UNL1        0.2105
     18 C          -7.8985  -15.1723   25.9369 C.3     1  UNL1        0.2525
     19 O          -6.8908  -14.7301   24.9176 O.3     1  UNL1       -0.4698
     20 C          -7.9125  -19.9571   22.3825 C.3     1  UNL1        0.1517
     21 C          -9.0959  -19.3283   21.7084 C.ar    1  UNL1        0.0823
     22 N          -9.2526  -19.4297   20.2201 N.ar    1  UNL1       -0.2266
     23 C         -10.4359  -18.8009   19.5460 C.ar    1  UNL1        0.1998
     24 N         -11.4626  -18.0708   20.3602 N.ar    1  UNL1       -0.2093
     25 C         -11.3058  -17.9695   21.8486 C.ar    1  UNL1        0.1307
     26 C         -10.1225  -18.5982   22.5227 C.ar    1  UNL1        0.0253
     27 C          -9.9658  -18.4968   24.0110 C.3     1  UNL1        0.0353
     28 N         -12.3324  -17.2393   22.6628 N.pl3   1  UNL1       -0.2899
     29 C         -12.3515  -15.7395   22.6754 C.3     1  UNL1        0.1136
     30 C         -13.3399  -18.0090   23.4644 C.3     1  UNL1        0.1136
@<TRIPOS>BOND
     1    18    19    1
     2    19     1    1
     3     1     2   ar
     4     2     3   ar
     5     3     4   ar
     6     4     5   ar
     7     5    10    1
     8    10    11    2
     9    10    12   am
    10    12    14    1
    11    14    15    1
    12    15    16    1
    13     5     6   ar
    14     6     7   ar
    15     7    20    1
    16    20    21    1
    17    21    22   ar
    18    22    23   ar
    19    23    24   ar
    20    24    25   ar
    21    25    28    1
    22    28    29    1
    23    28    30    1
    24    25    26   ar
    25    26    27    1
    26     7     8   ar
    27     8     9   ar
    28     9     1   ar
    29     8     4   ar
    30    26    21   ar
    31    12    13    1
    32    16    17    1
@<TRIPOS>MOLECULE
*****
 30 32 0 0 0
SMALL
GASTEIGER

@<TRIPOS>ATOM
      1 C          -6.6230  -15.8404   24.0576 C.ar    1  UNL1        0.1593
      2 C          -5.1333  -15.6730   24.0050 C.ar    1  UNL1        0.1357
      3 N          -4.2993  -16.6265   23.2017 N.ar    1  UNL1       -0.2390
      4 C          -4.9550  -17.7474   22.4510 C.ar    1  UNL1        0.1030
      5 C          -4.3968  -18.8347   21.5814 C.ar    1  UNL1        0.0895
      6 C          -5.5415  -19.6741   21.0966 C.ar    1  UNL1        0.0823
      7 N          -6.8072  -19.1056   21.6665 N.ar    1  UNL1       -0.3189
      8 C          -6.4447  -17.9147   22.5036 C.ar    1  UNL1        0.0814
      9 C          -7.2787  -16.9613   23.3069 C.ar    1  UNL1        0.0572
     10 C          -2.9482  -19.0455   21.2541 C.2     1  UNL1        0.2489
     11 O          -2.4133  -20.4360   21.0801 O.2     1  UNL1       -0.2700
     12 N          -2.0345  -17.8658   21.1009 N.am    1  UNL1       -0.2984
     13 H          -2.3856  -16.9532   21.2151 H       1  UNL1        0.1498
     14 C          -0.5859  -18.0767   20.7736 C.3     1  UNL1        0.1215
     15 C          -0.0810  -17.7951   19.3895 C.3     1  UNL1        0.1583
     16 O          -1.0232  -17.8425   18.2233 O.3     1  UNL1       -0.3802
     17 H          -1.3386  -18.7514   18.0992 H       1  UNL1        0.2105
     18 C          -8.6509  -15.3887   25.6175 C.3     1  UNL1        0.2525
     19 O          -7.4569  -14.8869   24.8609 O.3     1  UNL1       -0.4698
     20 C          -8.1922  -19.6349   21.4393 C.3     1  UNL1        0.1517
     21 C          -9.2255  -19.5206   22.5205 C.ar    1  UNL1        0.0823
     22 N          -9.0921  -20.3329   23.7744 N.ar    1  UNL1       -0.2266
     23 C         -10.1254  -20.2186   24.8557 C.ar    1  UNL1        0.1998
     24 N         -11.2922  -19.2919   24.6831 N.ar    1  UNL1       -0.2093
     25 C         -11.4256  -18.4795   23.4292 C.ar    1  UNL1        0.1307
     26 C         -10.3923  -18.5938   22.3479 C.ar    1  UNL1        0.0253
     27 C         -10.5258  -17.7814   21.0940 C.3     1  UNL1        0.0353
     28 N         -12.5925  -17.5528   23.2566 N.pl3   1  UNL1       -0.2899
     29 C         -13.9520  -17.9603   23.7420 C.3     1  UNL1        0.1136
     30 C         -12.3997  -16.2187   22.5986 C.3     1  UNL1        0.1136
@<TRIPOS>BOND
     1    18    19    1
     2    19     1    1
     3     1     2   ar
     4     2     3   ar
     5     3     4   ar
     6     4     5   ar
     7     5    10    1
     8    10    11    2
     9    10    12   am
    10    12    14    1
    11    14    15    1
    12    15    16    1
    13     5     6   ar
    14     6     7   ar
    15     7    20    1
    16    20    21    1
    17    21    22   ar
    18    22    23   ar
    19    23    24   ar
    20    24    25   ar
    21    25    28    1
    22    28    29    1
    23    28    30    1
    24    25    26   ar
    25    26    27    1
    26     7     8   ar
    27     8     9   ar
    28     9     1   ar
    29     8     4   ar
    30    26    21   ar
    31    12    13    1
    32    16    17    1
@<TRIPOS>MOLECULE
*****
 30 32 0 0 0
SMALL
GASTEIGER

@<TRIPOS>ATOM
      1 C          -7.4783  -16.5898   23.6813 C.ar    1  UNL1        0.1593
      2 C          -5.9820  -16.6540   23.7648 C.ar    1  UNL1        0.1357
      3 N          -5.2127  -17.5043   22.7978 N.ar    1  UNL1       -0.2390
      4 C          -5.9396  -18.2903   21.7473 C.ar    1  UNL1        0.1030
      5 C          -5.4540  -19.2087   20.6652 C.ar    1  UNL1        0.0895
      6 C          -6.6501  -19.7120   19.9130 C.ar    1  UNL1        0.0823
      7 N          -7.8750  -19.1048   20.5301 N.ar    1  UNL1       -0.3189
      8 C          -7.4359  -18.2261   21.6638 C.ar    1  UNL1        0.0814
      9 C          -8.2052  -17.3759   22.6308 C.ar    1  UNL1        0.0572
     10 C          -4.0234  -19.5616   20.3847 C.2     1  UNL1        0.2489
     11 O          -3.6786  -20.9131   19.8327 O.2     1  UNL1       -0.2700
     12 N          -2.9374  -18.5631   20.6562 N.am    1  UNL1       -0.2984
     13 H          -3.1636  -17.6761   21.0185 H       1  UNL1        0.1498
     14 C          -1.5068  -18.9161   20.3756 C.3     1  UNL1        0.1215
     15 C          -0.6145  -17.9325   19.6782 C.3     1  UNL1        0.1583
     16 O          -0.6193  -17.8462   18.1807 O.3     1  UNL1       -0.3802
     17 H          -0.2730  -18.6721   17.8081 H       1  UNL1        0.2105
     18 C          -7.6409  -15.3699   25.9694 C.3     1  UNL1        0.2525
     19 O          -8.2476  -15.7395   24.6484 O.3     1  UNL1       -0.4698
     20 C          -9.2905  -19.3357   20.0908 C.3     1  UNL1        0.1517
     21 C         -10.3921  -18.4679   20.6232 C.ar    1  UNL1        0.0823
     22 N         -10.8326  -17.2583   19.8532 N.ar    1  UNL1       -0.2266
     23 C         -11.9342  -16.3905   20.3856 C.ar    1  UNL1        0.1998
     24 N         -12.5952  -16.7322   21.6881 N.ar    1  UNL1       -0.2093
     25 C         -12.1546  -17.9418   22.4580 C.ar    1  UNL1        0.1307
     26 C         -11.0531  -18.8096   21.9256 C.ar    1  UNL1        0.0253
     27 C         -10.6126  -20.0192   22.6957 C.3     1  UNL1        0.0353
     28 N         -12.8156  -18.2835   23.7605 N.pl3   1  UNL1       -0.2899
     29 C         -11.9870  -18.7358   24.9261 C.3     1  UNL1        0.1136
     30 C         -14.3053  -18.1729   23.8972 C.3     1  UNL1        0.1136
@<TRIPOS>BOND
     1    18    19    1
     2    19     1    1
     3     1     2   ar
     4     2     3   ar
     5     3     4   ar
     6     4     5   ar
     7     5    10    1
     8    10    11    2
     9    10    12   am
    10    12    14    1
    11    14    15    1
    12    15    16    1
    13     5     6   ar
    14     6     7   ar
    15     7    20    1
    16    20    21    1
    17    21    22   ar
    18    22    23   ar
    19    23    24   ar
    20    24    25   ar
    21    25    28    1
    22    28    29    1
    23    28    30    1
    24    25    26   ar
    25    26    27    1
    26     7     8   ar
    27     8     9   ar
    28     9     1   ar
    29     8     4   ar
    30    26    21   ar
    31    12    13    1
    32    16    17    1
@<TRIPOS>MOLECULE
*****
 30 32 0 0 0
SMALL
GASTEIGER

@<TRIPOS>ATOM
      1 C         -10.4817   -5.9035   17.7483 C.ar    1  UNL1        0.1593
      2 C         -10.8983   -7.2309   17.1877 C.ar    1  UNL1        0.1357
      3 N         -12.2623   -7.7775   17.4889 N.ar    1  UNL1       -0.2390
      4 C         -13.2097   -6.9967   18.3507 C.ar    1  UNL1        0.1030
      5 C         -14.6076   -7.2783   18.8160 C.ar    1  UNL1        0.0895
      6 C         -15.0549   -6.1249   19.6643 C.ar    1  UNL1        0.0823
      7 N         -13.9335   -5.1304   19.7232 N.ar    1  UNL1       -0.3189
      8 C         -12.7931   -5.6693   18.9113 C.ar    1  UNL1        0.0814
      9 C         -11.4291   -5.1227   18.6101 C.ar    1  UNL1        0.0572
     10 C         -15.4161   -8.4990   18.4903 C.2     1  UNL1        0.2489
     11 O         -14.7898   -9.8590   18.5784 O.2     1  UNL1       -0.2700
     12 N         -16.8512   -8.3596   18.0765 N.am    1  UNL1       -0.2984
     13 H         -17.2623   -7.4669   18.0186 H       1  UNL1        0.1498
     14 C         -17.6598   -9.5803   17.7507 C.3     1  UNL1        0.1215
     15 C         -17.9464  -10.5964   18.8163 C.3     1  UNL1        0.1583
     16 O         -17.0374  -11.7767   18.9911 O.3     1  UNL1       -0.3802
     17 H         -17.0906  -12.3447   18.2066 H       1  UNL1        0.2105
     18 C          -8.9705   -4.1494   16.5695 C.3     1  UNL1        0.2525
     19 O          -9.1177   -5.3569   17.4472 O.3     1  UNL1       -0.4698
     20 C         -13.9497   -3.8262   20.4639 C.3     1  UNL1        0.1517
     21 C         -13.7870   -2.5365   19.7153 C.ar    1  UNL1        0.0823
     22 N         -12.4150   -2.0345   19.3753 N.ar    1  UNL1       -0.2266
     23 C         -12.2524   -0.7449   18.6267 C.ar    1  UNL1        0.1998
     24 N         -13.4617    0.0428   18.2181 N.ar    1  UNL1       -0.2093
     25 C         -14.8338   -0.4592   18.5582 C.ar    1  UNL1        0.1307
     26 C         -14.9964   -1.7489   19.3068 C.ar    1  UNL1        0.0253
     27 C         -16.3685   -2.2508   19.6467 C.3     1  UNL1        0.0353
     28 N         -16.0432    0.3285   18.1496 N.pl3   1  UNL1       -0.2899
     29 C         -16.6479    1.3205   19.0985 C.3     1  UNL1        0.1136
     30 C         -16.6478    0.1243   16.7922 C.3     1  UNL1        0.1136
@<TRIPOS>BOND
     1    18    19    1
     2    19     1    1
     3     1     2   ar
     4     2     3   ar
     5     3     4   ar
     6     4     5   ar
     7     5    10    1
     8    10    11    2
     9    10    12   am
    10    12    14    1
    11    14    15    1
    12    15    16    1
    13     5     6   ar
    14     6     7   ar
    15     7    20    1
    16    20    21    1
    17    21    22   ar
    18    22    23   ar
    19    23    24   ar
    20    24    25   ar
    21    25    28    1
    22    28    29    1
    23    28    30    1
    24    25    26   ar
    25    26    27    1
    26     7     8   ar
    27     8     9   ar
    28     9     1   ar
    29     8     4   ar
    30    26    21   ar
    31    12    13    1
    32    16    17    1
@<TRIPOS>MOLECULE
*****
 30 32 0 0 0
SMALL
GASTEIGER

@<TRIPOS>ATOM
      1 C           2.6908    0.2493   24.5528 C.ar    1  UNL1        0.1593
      2 C           3.5462   -0.4346   25.5778 C.ar    1  UNL1        0.1357
      3 N           4.3984   -1.6043   25.1836 N.ar    1  UNL1       -0.2390
      4 C           4.3953   -2.0902   23.7646 C.ar    1  UNL1        0.1030
      5 C           5.1258   -3.2106   23.0856 C.ar    1  UNL1        0.0895
      6 C           4.7220   -3.2192   21.6410 C.ar    1  UNL1        0.0823
      7 N           3.7418   -2.1041   21.4271 N.ar    1  UNL1       -0.3189
      8 C           3.5399   -1.4064   22.7396 C.ar    1  UNL1        0.0814
      9 C           2.6877   -0.2366   23.1337 C.ar    1  UNL1        0.0572
     10 C           6.0908   -4.1564   23.7370 C.2     1  UNL1        0.2489
     11 O           6.9856   -5.0145   22.8926 O.2     1  UNL1       -0.2700
     12 N           6.1611   -4.2441   25.2328 N.am    1  UNL1       -0.2984
     13 H           5.5739   -3.6809   25.7870 H       1  UNL1        0.1498
     14 C           7.1261   -5.1899   25.8841 C.3     1  UNL1        0.1215
     15 C           6.6492   -6.1328   26.9488 C.3     1  UNL1        0.1583
     16 O           5.4419   -5.7885   27.7696 O.3     1  UNL1       -0.3802
     17 H           5.6336   -5.0103   28.3160 H       1  UNL1        0.2105
     18 C           0.3452    1.3295   24.8381 C.3     1  UNL1        0.2525
     19 O           1.8385    1.4191   24.9469 O.3     1  UNL1       -0.4698
     20 C           3.0797   -1.7491   20.1288 C.3     1  UNL1        0.1517
     21 C           3.2037   -0.3589   19.5793 C.ar    1  UNL1        0.0823
     22 N           4.5176    0.1182   19.0355 N.ar    1  UNL1       -0.2266
     23 C           4.6416    1.5084   18.4859 C.ar    1  UNL1        0.1998
     24 N           3.4515    2.4215   18.4802 N.ar    1  UNL1       -0.2093
     25 C           2.1375    1.9443   19.0241 C.ar    1  UNL1        0.1307
     26 C           2.0136    0.5542   19.5737 C.ar    1  UNL1        0.0253
     27 C           0.6996    0.0771   20.1175 C.3     1  UNL1        0.0353
     28 N           0.9475    2.8575   19.0185 N.pl3   1  UNL1       -0.2899
     29 C          -0.0018    2.8451   17.8572 C.3     1  UNL1        0.1136
     30 C           0.7067    3.7829   20.1741 C.3     1  UNL1        0.1136
@<TRIPOS>BOND
     1    18    19    1
     2    19     1    1
     3     1     2   ar
     4     2     3   ar
     5     3     4   ar
     6     4     5   ar
     7     5    10    1
     8    10    11    2
     9    10    12   am
    10    12    14    1
    11    14    15    1
    12    15    16    1
    13     5     6   ar
    14     6     7   ar
    15     7    20    1
    16    20    21    1
    17    21    22   ar
    18    22    23   ar
    19    23    24   ar
    20    24    25   ar
    21    25    28    1
    22    28    29    1
    23    28    30    1
    24    25    26   ar
    25    26    27    1
    26     7     8   ar
    27     8     9   ar
    28     9     1   ar
    29     8     4   ar
    30    26    21   ar
    31    12    13    1
    32    16    17    1
@<TRIPOS>MOLECULE
*****
 30 32 0 0 0
SMALL
GASTEIGER

@<TRIPOS>ATOM
      1 C           2.7395   -0.0634   24.1233 C.ar    1  UNL1        0.1593
      2 C           3.5286   -0.6358   25.2633 C.ar    1  UNL1        0.1357
      3 N           4.4578   -1.7895   25.0277 N.ar    1  UNL1       -0.2390
      4 C           4.5980   -2.3708   23.6520 C.ar    1  UNL1        0.1030
      5 C           5.4290   -3.5003   23.1196 C.ar    1  UNL1        0.0895
      6 C           5.1535   -3.6260   21.6504 C.ar    1  UNL1        0.0823
      7 N           4.1522   -2.5741   21.2749 N.ar    1  UNL1       -0.3189
      8 C           3.8089   -1.7984   22.5120 C.ar    1  UNL1        0.0814
      9 C           2.8796   -0.6447   22.7477 C.ar    1  UNL1        0.0572
     10 C           6.3702   -4.3542   23.9163 C.2     1  UNL1        0.2489
     11 O           7.3421   -5.2556   23.2143 O.2     1  UNL1       -0.2700
     12 N           6.3397   -4.3067   25.4153 N.am    1  UNL1       -0.2984
     13 H           5.7018   -3.7151   25.8761 H       1  UNL1        0.1498
     14 C           7.2809   -5.1606   26.2121 C.3     1  UNL1        0.1215
     15 C           6.8618   -5.6906   27.5513 C.3     1  UNL1        0.1583
     16 O           5.4075   -5.9008   27.8529 O.3     1  UNL1       -0.3802
     17 H           4.9533   -5.0439   27.8681 H       1  UNL1        0.2105
     18 C           0.8798    1.5382   23.2710 C.3     1  UNL1        0.2525
     19 O           1.8102    1.0903   24.3589 O.3     1  UNL1       -0.4698
     20 C           3.5925   -2.3393   19.9032 C.3     1  UNL1        0.1517
     21 C           3.6773   -0.9767   19.2818 C.ar    1  UNL1        0.0823
     22 N           2.4497   -0.1207   19.1807 N.ar    1  UNL1       -0.2266
     23 C           2.5345    1.2419   18.5593 C.ar    1  UNL1        0.1998
     24 N           3.8470    1.7485   18.0389 N.ar    1  UNL1       -0.2093
     25 C           5.0746    0.8924   18.1400 C.ar    1  UNL1        0.1307
     26 C           4.9898   -0.4701   18.7614 C.ar    1  UNL1        0.0253
     27 C           6.2175   -1.3261   18.8624 C.3     1  UNL1        0.0353
     28 N           6.3871    1.3991   17.6196 N.pl3   1  UNL1       -0.2899
     29 C           7.3102    2.1588   18.5255 C.3     1  UNL1        0.1136
     30 C           6.7764    1.1460   16.1933 C.3     1  UNL1        0.1136
@<TRIPOS>BOND
     1    18    19    1
     2    19     1    1
     3     1     2   ar
     4     2     3   ar
     5     3     4   ar
     6     4     5   ar
     7     5    10    1
     8    10    11    2
     9    10    12   am
    10    12    14    1
    11    14    15    1
    12    15    16    1
    13     5     6   ar
    14     6     7   ar
    15     7    20    1
    16    20    21    1
    17    21    22   ar
    18    22    23   ar
    19    23    24   ar
    20    24    25   ar
    21    25    28    1
    22    28    29    1
    23    28    30    1
    24    25    26   ar
    25    26    27    1
    26     7     8   ar
    27     8     9   ar
    28     9     1   ar
    29     8     4   ar
    30    26    21   ar
    31    12    13    1
    32    16    17    1
@<TRIPOS>MOLECULE
*****
 30 32 0 0 0
SMALL
GASTEIGER

@<TRIPOS>ATOM
      1 C           4.8494    0.0831   35.5930 C.ar    1  UNL1        0.1593
      2 C           4.6062   -0.6558   34.3105 C.ar    1  UNL1        0.1357
      3 N           3.6713   -0.0885   33.2837 N.ar    1  UNL1       -0.2390
      4 C           2.9796    1.2176   33.5395 C.ar    1  UNL1        0.1030
      5 C           2.0113    2.0180   32.7198 C.ar    1  UNL1        0.0895
      6 C           1.6560    3.2516   33.4958 C.ar    1  UNL1        0.0823
      7 N           2.4047    3.2136   34.7950 N.ar    1  UNL1       -0.3189
      8 C           3.2228    1.9565   34.8220 C.ar    1  UNL1        0.0814
      9 C           4.1577    1.3893   35.8487 C.ar    1  UNL1        0.0572
     10 C           1.4898    1.6495   31.3626 C.2     1  UNL1        0.2489
     11 O           0.0154    1.6877   31.0897 O.2     1  UNL1       -0.2700
     12 N           2.4428    1.2426   30.2780 N.am    1  UNL1       -0.2984
     13 H           3.4106    1.2175   30.4570 H       1  UNL1        0.1498
     14 C           1.9214    0.8741   28.9207 C.3     1  UNL1        0.1215
     15 C           1.2182   -0.4352   28.7175 C.3     1  UNL1        0.1583
     16 O          -0.1719   -0.6300   29.2464 O.3     1  UNL1       -0.3802
     17 H          -0.1557   -0.6032   30.2159 H       1  UNL1        0.2105
     18 C           7.2472   -0.1579   36.5635 C.3     1  UNL1        0.2525
     19 O           5.7842   -0.4841   36.6197 O.3     1  UNL1       -0.4698
     20 C           2.3458    4.2506   35.8772 C.3     1  UNL1        0.1517
     21 C           2.3620    3.8329   37.3178 C.ar    1  UNL1        0.0823
     22 N           1.2837    2.9371   37.8512 N.ar    1  UNL1       -0.2266
     23 C           1.2999    2.5195   39.2918 C.ar    1  UNL1        0.1998
     24 N           2.3945    2.9977   40.1990 N.ar    1  UNL1       -0.2093
     25 C           3.4729    3.8935   39.6656 C.ar    1  UNL1        0.1307
     26 C           3.4567    4.3112   38.2250 C.ar    1  UNL1        0.0253
     27 C           4.5352    5.2070   37.6917 C.3     1  UNL1        0.0353
     28 N           4.5676    4.3717   40.5728 N.pl3   1  UNL1       -0.2899
     29 C           4.4028    5.6520   41.3368 C.3     1  UNL1        0.1136
     30 C           5.8270    3.5696   40.7161 C.3     1  UNL1        0.1136
@<TRIPOS>BOND
     1    18    19    1
     2    19     1    1
     3     1     2   ar
     4     2     3   ar
     5     3     4   ar
     6     4     5   ar
     7     5    10    1
     8    10    11    2
     9    10    12   am
    10    12    14    1
    11    14    15    1
    12    15    16    1
    13     5     6   ar
    14     6     7   ar
    15     7    20    1
    16    20    21    1
    17    21    22   ar
    18    22    23   ar
    19    23    24   ar
    20    24    25   ar
    21    25    28    1
    22    28    29    1
    23    28    30    1
    24    25    26   ar
    25    26    27    1
    26     7     8   ar
    27     8     9   ar
    28     9     1   ar
    29     8     4   ar
    30    26    21   ar
    31    12    13    1
    32    16    17    1
@<TRIPOS>MOLECULE
*****
 30 32 0 0 0
SMALL
GASTEIGER

@<TRIPOS>ATOM
      1 C          -0.0575    1.6237   21.2887 C.ar    1  UNL1        0.1593
      2 C           0.2222    0.6356   20.1953 C.ar    1  UNL1        0.1357
      3 N           1.3695   -0.3218   20.3251 N.ar    1  UNL1       -0.2390
      4 C           2.2372   -0.2912   21.5482 C.ar    1  UNL1        0.1030
      5 C           3.4301   -1.1054   21.9533 C.ar    1  UNL1        0.0895
      6 C           3.8877   -0.6206   23.2970 C.ar    1  UNL1        0.0823
      7 N           2.9776    0.4933   23.7224 N.ar    1  UNL1       -0.3189
      8 C           1.9576    0.6968   22.6416 C.ar    1  UNL1        0.0814
      9 C           0.8102    1.6543   22.5118 C.ar    1  UNL1        0.0572
     10 C           4.0556   -2.2104   21.1547 C.2     1  UNL1        0.2489
     11 O           5.3576   -2.8105   21.5961 O.2     1  UNL1       -0.2700
     12 N           3.3792   -2.7154   19.9148 N.am    1  UNL1       -0.2984
     13 H           2.5246   -2.3216   19.6251 H       1  UNL1        0.1498
     14 C           4.0046   -3.8205   19.1163 C.3     1  UNL1        0.1215
     15 C           5.1952   -3.5378   18.2488 C.3     1  UNL1        0.1583
     16 O           5.1629   -2.3922   17.2809 O.3     1  UNL1       -0.3802
     17 H           4.5000   -2.5673   16.5948 H       1  UNL1        0.2105
     18 C          -1.4297    3.3119   19.8684 C.3     1  UNL1        0.2525
     19 O          -1.2049    2.5811   21.1589 O.3     1  UNL1       -0.4698
     20 C           3.0711    1.2677   25.0037 C.3     1  UNL1        0.1517
     21 C           2.8274    0.5807   26.3147 C.ar    1  UNL1        0.0823
     22 N           3.8510   -0.3665   26.8668 N.ar    1  UNL1       -0.2266
     23 C           3.6073   -1.0534   28.1778 C.ar    1  UNL1        0.1998
     24 N           2.3398   -0.7932   28.9367 N.ar    1  UNL1       -0.2093
     25 C           1.3162    0.1541   28.3845 C.ar    1  UNL1        0.1307
     26 C           1.5599    0.8410   27.0735 C.ar    1  UNL1        0.0253
     27 C           0.5362    1.7882   26.5214 C.3     1  UNL1        0.0353
     28 N           0.0487    0.4143   29.1433 N.pl3   1  UNL1       -0.2899
     29 C           0.0015    1.5036   30.1734 C.3     1  UNL1        0.1136
     30 C          -1.1715   -0.4148   28.8721 C.3     1  UNL1        0.1136
@<TRIPOS>BOND
     1    18    19    1
     2    19     1    1
     3     1     2   ar
     4     2     3   ar
     5     3     4   ar
     6     4     5   ar
     7     5    10    1
     8    10    11    2
     9    10    12   am
    10    12    14    1
    11    14    15    1
    12    15    16    1
    13     5     6   ar
    14     6     7   ar
    15     7    20    1
    16    20    21    1
    17    21    22   ar
    18    22    23   ar
    19    23    24   ar
    20    24    25   ar
    21    25    28    1
    22    28    29    1
    23    28    30    1
    24    25    26   ar
    25    26    27    1
    26     7     8   ar
    27     8     9   ar
    28     9     1   ar
    29     8     4   ar
    30    26    21   ar
    31    12    13    1
    32    16    17    1
@<TRIPOS>MOLECULE
*****
 30 32 0 0 0
SMALL
GASTEIGER

@<TRIPOS>ATOM
      1 C           3.1966   -0.2893   24.1181 C.ar    1  UNL1        0.1593
      2 C           2.2979    0.9114   24.1409 C.ar    1  UNL1        0.1357
      3 N           1.5500    1.3120   22.9039 N.ar    1  UNL1       -0.2390
      4 C           1.7006    0.5117   21.6442 C.ar    1  UNL1        0.1030
      5 C           1.0950    0.6633   20.2803 C.ar    1  UNL1        0.0895
      6 C           1.6194   -0.4439   19.4146 C.ar    1  UNL1        0.0823
      7 N           2.5491   -1.2796   20.2435 N.ar    1  UNL1       -0.3189
      8 C           2.5993   -0.6890   21.6215 C.ar    1  UNL1        0.0814
      9 C           3.3473   -1.0896   22.8585 C.ar    1  UNL1        0.0572
     10 C           0.1338    1.7340   19.8565 C.2     1  UNL1        0.2489
     11 O           0.2624    2.3638   18.5013 O.2     1  UNL1       -0.2700
     12 N          -0.9562    2.1749   20.7880 N.am    1  UNL1       -0.2984
     13 H          -1.0406    1.7615   21.6775 H       1  UNL1        0.1498
     14 C          -1.9174    3.2456   20.3641 C.3     1  UNL1        0.1215
     15 C          -3.1925    3.4533   21.1265 C.3     1  UNL1        0.1583
     16 O          -4.3160    2.4688   20.9913 O.3     1  UNL1       -0.3802
     17 H          -4.6622    2.4956   20.0856 H       1  UNL1        0.2105
     18 C           3.3486   -0.4342   26.7077 C.3     1  UNL1        0.2525
     19 O           3.9446   -0.6898   25.3551 O.3     1  UNL1       -0.4698
     20 C           3.2972   -2.4930   19.7765 C.3     1  UNL1        0.1517
     21 C           4.7723   -2.4107   19.5169 C.ar    1  UNL1        0.0823
     22 N           5.2797   -1.7243   18.2835 N.ar    1  UNL1       -0.2266
     23 C           6.7547   -1.6420   18.0239 C.ar    1  UNL1        0.1998
     24 N           7.7225   -2.2462   18.9978 N.ar    1  UNL1       -0.2093
     25 C           7.2150   -2.9327   20.2313 C.ar    1  UNL1        0.1307
     26 C           5.7400   -3.0149   20.4909 C.ar    1  UNL1        0.0253
     27 C           5.2327   -3.7013   21.7243 C.3     1  UNL1        0.0353
     28 N           8.1828   -3.5368   21.2052 N.pl3   1  UNL1       -0.2899
     29 C           8.5959   -4.9715   21.0598 C.3     1  UNL1        0.1136
     30 C           8.7375   -2.7063   22.3244 C.3     1  UNL1        0.1136
@<TRIPOS>BOND
     1    18    19    1
     2    19     1    1
     3     1     2   ar
     4     2     3   ar
     5     3     4   ar
     6     4     5   ar
     7     5    10    1
     8    10    11    2
     9    10    12   am
    10    12    14    1
    11    14    15    1
    12    15    16    1
    13     5     6   ar
    14     6     7   ar
    15     7    20    1
    16    20    21    1
    17    21    22   ar
    18    22    23   ar
    19    23    24   ar
    20    24    25   ar
    21    25    28    1
    22    28    29    1
    23    28    30    1
    24    25    26   ar
    25    26    27    1
    26     7     8   ar
    27     8     9   ar
    28     9     1   ar
    29     8     4   ar
    30    26    21   ar
    31    12    13    1
    32    16    17    1
