@<TRIPOS>MOLECULE
*****
 25 26 0 0 0
SMALL
GASTEIGER

@<TRIPOS>ATOM
      1 C          -8.5318  -17.4872   21.7773 C.ar    1  UNL1        0.1327
      2 N          -8.7565  -16.2236   22.5536 N.ar    1  UNL1       -0.1993
      3 C          -7.6437  -15.6375   23.3710 C.ar    1  UNL1        0.2148
      4 N          -7.8684  -14.3738   24.1473 N.pl3   1  UNL1       -0.3274
      5 N          -6.3061  -16.3151   23.4120 N.ar    1  UNL1       -0.2138
      6 C          -6.0813  -17.5788   22.6357 C.ar    1  UNL1        0.0899
      7 C          -4.7438  -18.2565   22.6768 C.ar    1  UNL1        0.0562
      8 C          -4.5191  -19.5201   21.9005 C.ar    1  UNL1        0.1402
      9 C          -5.6320  -20.1061   21.0831 C.ar    1  UNL1        0.0371
     10 C          -6.9695  -19.4285   21.0420 C.ar    1  UNL1        0.0074
     11 C          -7.1942  -18.1649   21.8183 C.ar    1  UNL1        0.0494
     12 H          -8.7463  -13.9291   24.1203 H       1  UNL1        0.1452
     13 H          -7.1380  -13.9892   24.6838 H       1  UNL1        0.1452
     14 N          -9.6447  -18.0732   20.9599 N.pl3   1  UNL1       -0.3195
     15 H          -9.4448  -18.5252   20.1084 H       1  UNL1        0.1481
     16 C         -11.0621  -17.9706   21.4398 C.3     1  UNL1        0.0729
     17 C         -11.5308  -18.8225   22.5820 C.3     1  UNL1        0.0196
     18 C         -13.6392  -17.9898   23.8513 C.3     1  UNL1        0.0001
     19 C         -12.1532  -18.1837   23.7881 C.3     1  UNL1        0.0017
     20 C         -12.0110  -17.0161   20.7775 C.3     1  UNL1        0.0512
     21 C         -11.5028  -16.0385   19.7597 C.3     1  UNL1        0.1389
     22 O         -12.4668  -15.3220   18.8613 O.3     1  UNL1       -0.3819
     23 H         -12.8960  -15.9617   18.2718 H       1  UNL1        0.2104
     24 O          -3.1815  -20.1978   21.9415 O.3     1  UNL1       -0.4714
     25 C          -2.0272  -19.6261   21.1728 C.3     1  UNL1        0.2525
@<TRIPOS>BOND
     1    18    19    1
     2    19    17    1
     3    16    17    1
     4    16    20    1
     5    20    21    1
     6    21    22    1
     7    16    14    1
     8    14     1    1
     9     1     2   ar
    10     2     3   ar
    11     3     4    1
    12     3     5   ar
    13     5     6   ar
    14     6     7   ar
    15     7     8   ar
    16     8    24    1
    17    24    25    1
    18     8     9   ar
    19     9    10   ar
    20    10    11   ar
    21    11     1   ar
    22    11     6   ar
    23    22    23    1
    24    14    15    1
    25     4    12    1
    26     4    13    1
@<TRIPOS>MOLECULE
*****
 25 26 0 0 0
SMALL
GASTEIGER

@<TRIPOS>ATOM
      1 C          -8.6013  -17.5167   21.9792 C.ar    1  UNL1        0.1327
      2 N          -8.7697  -16.2271   22.7264 N.ar    1  UNL1       -0.1993
      3 C          -7.6033  -15.6210   23.4490 C.ar    1  UNL1        0.2148
      4 N          -7.7718  -14.3313   24.1962 N.pl3   1  UNL1       -0.3274
      5 N          -6.2683  -16.3046   23.4242 N.ar    1  UNL1       -0.2138
      6 C          -6.0998  -17.5943   22.6770 C.ar    1  UNL1        0.0899
      7 C          -4.7649  -18.2779   22.6522 C.ar    1  UNL1        0.0562
      8 C          -4.5965  -19.5675   21.9050 C.ar    1  UNL1        0.1402
      9 C          -5.7629  -20.1736   21.1825 C.ar    1  UNL1        0.0371
     10 C          -7.0979  -19.4900   21.2072 C.ar    1  UNL1        0.0074
     11 C          -7.2663  -18.2004   21.9544 C.ar    1  UNL1        0.0494
     12 H          -8.6479  -13.8827   24.2125 H       1  UNL1        0.1452
     13 H          -7.0062  -13.9335   24.6705 H       1  UNL1        0.1452
     14 N          -9.7678  -18.1228   21.2567 N.pl3   1  UNL1       -0.3195
     15 H          -9.8154  -18.0782   20.2743 H       1  UNL1        0.1481
     16 C         -10.8616  -18.7966   22.0308 C.3     1  UNL1        0.0729
     17 C         -10.6043  -20.1135   22.7013 C.3     1  UNL1        0.0196
     18 C         -10.0321  -19.0313   24.9929 C.3     1  UNL1        0.0001
     19 C          -9.8801  -20.1579   24.0142 C.3     1  UNL1        0.0017
     20 C         -12.2129  -18.1536   22.1345 C.3     1  UNL1        0.0512
     21 C         -12.3604  -16.8232   22.8113 C.3     1  UNL1        0.1389
     22 O         -11.5634  -15.6459   22.3329 O.3     1  UNL1       -0.3819
     23 H         -10.6205  -15.8066   22.4944 H       1  UNL1        0.2104
     24 O          -3.2615  -20.2512   21.8802 O.3     1  UNL1       -0.4714
     25 C          -2.1140  -19.6293   21.1409 C.3     1  UNL1        0.2525
@<TRIPOS>BOND
     1    18    19    1
     2    19    17    1
     3    16    17    1
     4    16    20    1
     5    20    21    1
     6    21    22    1
     7    16    14    1
     8    14     1    1
     9     1     2   ar
    10     2     3   ar
    11     3     4    1
    12     3     5   ar
    13     5     6   ar
    14     6     7   ar
    15     7     8   ar
    16     8    24    1
    17    24    25    1
    18     8     9   ar
    19     9    10   ar
    20    10    11   ar
    21    11     1   ar
    22    11     6   ar
    23    22    23    1
    24    14    15    1
    25     4    12    1
    26     4    13    1
@<TRIPOS>MOLECULE
*****
 25 26 0 0 0
SMALL
GASTEIGER

@<TRIPOS>ATOM
      1 C          -8.5885  -17.5983   21.8653 C.ar    1  UNL1        0.1327
      2 N          -8.8204  -16.3174   22.6105 N.ar    1  UNL1       -0.1993
      3 C          -7.6967  -15.6783   23.3713 C.ar    1  UNL1        0.2148
      4 N          -7.9286  -14.3973   24.1166 N.pl3   1  UNL1       -0.3274
      5 N          -6.3410  -16.3200   23.3868 N.ar    1  UNL1       -0.2138
      6 C          -6.1090  -17.6010   22.6415 C.ar    1  UNL1        0.0899
      7 C          -4.7534  -18.2428   22.6570 C.ar    1  UNL1        0.0562
      8 C          -4.5215  -19.5237   21.9118 C.ar    1  UNL1        0.1402
      9 C          -5.6452  -20.1628   21.1510 C.ar    1  UNL1        0.0371
     10 C          -7.0008  -19.5210   21.1355 C.ar    1  UNL1        0.0074
     11 C          -7.2328  -18.2401   21.8808 C.ar    1  UNL1        0.0494
     12 H          -8.8184  -13.9760   24.1064 H       1  UNL1        0.1452
     13 H          -7.1911  -13.9778   24.6159 H       1  UNL1        0.1452
     14 N          -9.7122  -18.2374   21.1045 N.pl3   1  UNL1       -0.3195
     15 H          -9.6598  -18.3186   20.1248 H       1  UNL1        0.1481
     16 C         -10.9157  -18.7528   21.8365 C.3     1  UNL1        0.0729
     17 C         -12.2070  -17.9910   21.7868 C.3     1  UNL1        0.0196
     18 C         -13.7081  -17.9887   23.9073 C.3     1  UNL1        0.0001
     19 C         -12.7177  -17.2996   23.0161 C.3     1  UNL1        0.0017
     20 C         -10.8281  -20.0300   22.6183 C.3     1  UNL1        0.0512
     21 C         -10.1182  -20.0535   23.9394 C.3     1  UNL1        0.1389
     22 O         -10.8920  -19.8622   25.2101 O.3     1  UNL1       -0.3819
     23 H         -11.2536  -18.9625   25.2361 H       1  UNL1        0.2104
     24 O          -3.1658  -20.1655   21.9273 O.3     1  UNL1       -0.4714
     25 C          -2.0902  -19.6686   21.0074 C.3     1  UNL1        0.2525
@<TRIPOS>BOND
     1    18    19    1
     2    19    17    1
     3    16    17    1
     4    16    20    1
     5    20    21    1
     6    21    22    1
     7    16    14    1
     8    14     1    1
     9     1     2   ar
    10     2     3   ar
    11     3     4    1
    12     3     5   ar
    13     5     6   ar
    14     6     7   ar
    15     7     8   ar
    16     8    24    1
    17    24    25    1
    18     8     9   ar
    19     9    10   ar
    20    10    11   ar
    21    11     1   ar
    22    11     6   ar
    23    22    23    1
    24    14    15    1
    25     4    12    1
    26     4    13    1
@<TRIPOS>MOLECULE
*****
 25 26 0 0 0
SMALL
GASTEIGER

@<TRIPOS>ATOM
      1 C          -8.5452  -18.0890   22.8544 C.ar    1  UNL1        0.1327
      2 N          -8.7619  -16.6971   23.3696 N.ar    1  UNL1       -0.1993
      3 C          -7.5887  -15.7910   23.5989 C.ar    1  UNL1        0.2148
      4 N          -7.8054  -14.3990   24.1141 N.pl3   1  UNL1       -0.3274
      5 N          -6.1987  -16.2769   23.3129 N.ar    1  UNL1       -0.2138
      6 C          -5.9819  -17.6689   22.7976 C.ar    1  UNL1        0.0899
      7 C          -4.5919  -18.1548   22.5116 C.ar    1  UNL1        0.0562
      8 C          -4.3752  -19.5468   21.9964 C.ar    1  UNL1        0.1402
      9 C          -5.5485  -20.4528   21.7672 C.ar    1  UNL1        0.0371
     10 C          -6.9385  -19.9669   22.0531 C.ar    1  UNL1        0.0074
     11 C          -7.1552  -18.5750   22.5684 C.ar    1  UNL1        0.0494
     12 H          -8.7178  -14.0801   24.3019 H       1  UNL1        0.1452
     13 H          -7.0354  -13.8044   24.2646 H       1  UNL1        0.1452
     14 N          -9.7185  -18.9951   22.6251 N.pl3   1  UNL1       -0.3195
     15 H          -9.7300  -19.8957   23.0227 H       1  UNL1        0.1481
     16 C         -10.8742  -18.5289   21.7903 C.3     1  UNL1        0.0729
     17 C         -10.7056  -18.3473   20.3109 C.3     1  UNL1        0.0196
     18 C          -8.8493  -19.6776   19.0721 C.3     1  UNL1        0.0001
     19 C         -10.2894  -19.5071   19.4554 C.3     1  UNL1        0.0017
     20 C         -12.1985  -18.2445   22.4347 C.3     1  UNL1        0.0512
     21 C         -12.2877  -18.0756   23.9225 C.3     1  UNL1        0.1389
     22 O         -11.5812  -19.0383   24.8302 O.3     1  UNL1       -0.3819
     23 H         -11.9805  -19.9179   24.7425 H       1  UNL1        0.2104
     24 O          -2.9852  -20.0327   21.7104 O.3     1  UNL1       -0.4714
     25 C          -2.0855  -19.2425   20.8069 C.3     1  UNL1        0.2525
@<TRIPOS>BOND
     1    18    19    1
     2    19    17    1
     3    16    17    1
     4    16    20    1
     5    20    21    1
     6    21    22    1
     7    16    14    1
     8    14     1    1
     9     1     2   ar
    10     2     3   ar
    11     3     4    1
    12     3     5   ar
    13     5     6   ar
    14     6     7   ar
    15     7     8   ar
    16     8    24    1
    17    24    25    1
    18     8     9   ar
    19     9    10   ar
    20    10    11   ar
    21    11     1   ar
    22    11     6   ar
    23    22    23    1
    24    14    15    1
    25     4    12    1
    26     4    13    1
@<TRIPOS>MOLECULE
*****
 25 26 0 0 0
SMALL
GASTEIGER

@<TRIPOS>ATOM
      1 C          -7.7752  -18.4325   22.3250 C.ar    1  UNL1        0.1327
      2 N          -7.3560  -17.1140   21.7455 N.ar    1  UNL1       -0.1993
      3 C          -8.2668  -15.9266   21.8469 C.ar    1  UNL1        0.2148
      4 N          -7.8475  -14.6080   21.2674 N.pl3   1  UNL1       -0.3274
      5 N          -9.5970  -16.0576   22.5277 N.ar    1  UNL1       -0.2138
      6 C         -10.0163  -17.3761   23.1072 C.ar    1  UNL1        0.0899
      7 C         -11.3464  -17.5071   23.7881 C.ar    1  UNL1        0.0562
      8 C         -11.7656  -18.8256   24.3675 C.ar    1  UNL1        0.1402
      9 C         -10.8547  -20.0130   24.2661 C.ar    1  UNL1        0.0371
     10 C          -9.5246  -19.8820   23.5853 C.ar    1  UNL1        0.0074
     11 C          -9.1054  -18.5636   23.0058 C.ar    1  UNL1        0.0494
     12 H          -6.9745  -14.5220   20.8205 H       1  UNL1        0.1452
     13 H          -8.4454  -13.8287   21.3339 H       1  UNL1        0.1452
     14 N          -6.8643  -19.6199   22.2236 N.pl3   1  UNL1       -0.3195
     15 H          -7.1712  -20.5034   22.5310 H       1  UNL1        0.1481
     16 C          -5.4859  -19.4613   21.6538 C.3     1  UNL1        0.0729
     17 C          -4.3087  -19.3060   22.5704 C.3     1  UNL1        0.0196
     18 C          -2.8344  -17.1668   22.5505 C.3     1  UNL1        0.0001
     19 C          -3.9686  -17.9575   23.1324 C.3     1  UNL1        0.0017
     20 C          -5.2845  -19.4580   20.1673 C.3     1  UNL1        0.0512
     21 C          -3.9724  -19.0177   19.5892 C.3     1  UNL1        0.1389
     22 O          -3.8391  -17.6502   18.9874 O.3     1  UNL1       -0.3819
     23 H          -4.3942  -17.5905   18.1942 H       1  UNL1        0.2104
     24 O         -13.0958  -18.9567   25.0484 O.3     1  UNL1       -0.4714
     25 C         -14.2888  -18.2232   24.5111 C.3     1  UNL1        0.2525
@<TRIPOS>BOND
     1    18    19    1
     2    19    17    1
     3    16    17    1
     4    16    20    1
     5    20    21    1
     6    21    22    1
     7    16    14    1
     8    14     1    1
     9     1     2   ar
    10     2     3   ar
    11     3     4    1
    12     3     5   ar
    13     5     6   ar
    14     6     7   ar
    15     7     8   ar
    16     8    24    1
    17    24    25    1
    18     8     9   ar
    19     9    10   ar
    20    10    11   ar
    21    11     1   ar
    22    11     6   ar
    23    22    23    1
    24    14    15    1
    25     4    12    1
    26     4    13    1
@<TRIPOS>MOLECULE
*****
 25 26 0 0 0
SMALL
GASTEIGER

@<TRIPOS>ATOM
      1 C          -7.8415  -18.4002   22.2608 C.ar    1  UNL1        0.1327
      2 N          -7.4024  -17.0701   21.7242 N.ar    1  UNL1       -0.1993
      3 C          -8.2820  -15.8666   21.8912 C.ar    1  UNL1        0.2148
      4 N          -7.8428  -14.5365   21.3545 N.pl3   1  UNL1       -0.3274
      5 N          -9.6006  -15.9932   22.5947 N.ar    1  UNL1       -0.2138
      6 C         -10.0398  -17.3233   23.1314 C.ar    1  UNL1        0.0899
      7 C         -11.3585  -17.4499   23.8349 C.ar    1  UNL1        0.0562
      8 C         -11.7976  -18.7800   24.3715 C.ar    1  UNL1        0.1402
      9 C         -10.9180  -19.9835   24.2045 C.ar    1  UNL1        0.0371
     10 C          -9.5993  -19.8570   23.5010 C.ar    1  UNL1        0.0074
     11 C          -9.1602  -18.5269   22.9644 C.ar    1  UNL1        0.0494
     12 H          -6.9773  -14.4534   20.8928 H       1  UNL1        0.1452
     13 H          -8.4201  -13.7465   21.4641 H       1  UNL1        0.1452
     14 N          -6.9619  -19.6038   22.0939 N.pl3   1  UNL1       -0.3195
     15 H          -6.7041  -20.1379   22.8797 H       1  UNL1        0.1481
     16 C          -6.4752  -19.9935   20.7297 C.3     1  UNL1        0.0729
     17 C          -7.4287  -20.5838   19.7334 C.3     1  UNL1        0.0196
     18 C          -9.8506  -19.6919   19.4351 C.3     1  UNL1        0.0001
     19 C          -8.4093  -19.7011   19.0197 C.3     1  UNL1        0.0017
     20 C          -5.0349  -19.7931   20.3616 C.3     1  UNL1        0.0512
     21 C          -4.0695  -19.2552   21.3758 C.3     1  UNL1        0.1389
     22 O          -4.3570  -17.9572   22.0703 O.3     1  UNL1       -0.3819
     23 H          -4.3345  -17.2333   21.4249 H       1  UNL1        0.2104
     24 O         -13.1163  -18.9066   25.0751 O.3     1  UNL1       -0.4714
     25 C         -14.3378  -18.2507   24.5026 C.3     1  UNL1        0.2525
@<TRIPOS>BOND
     1    18    19    1
     2    19    17    1
     3    16    17    1
     4    16    20    1
     5    20    21    1
     6    21    22    1
     7    16    14    1
     8    14     1    1
     9     1     2   ar
    10     2     3   ar
    11     3     4    1
    12     3     5   ar
    13     5     6   ar
    14     6     7   ar
    15     7     8   ar
    16     8    24    1
    17    24    25    1
    18     8     9   ar
    19     9    10   ar
    20    10    11   ar
    21    11     1   ar
    22    11     6   ar
    23    22    23    1
    24    14    15    1
    25     4    12    1
    26     4    13    1
@<TRIPOS>MOLECULE
*****
 25 26 0 0 0
SMALL
GASTEIGER

@<TRIPOS>ATOM
      1 C          -6.1243  -18.1024   22.5693 C.ar    1  UNL1        0.1327
      2 N          -5.6432  -16.9582   23.4115 N.ar    1  UNL1       -0.1993
      3 C          -6.5698  -15.8240   23.7358 C.ar    1  UNL1        0.2148
      4 N          -6.0886  -14.6798   24.5781 N.pl3   1  UNL1       -0.3274
      5 N          -7.9775  -15.8341   23.2180 N.ar    1  UNL1       -0.2138
      6 C          -8.4587  -16.9784   22.3758 C.ar    1  UNL1        0.0899
      7 C          -9.8664  -16.9885   21.8580 C.ar    1  UNL1        0.0562
      8 C         -10.3475  -18.1327   21.0158 C.ar    1  UNL1        0.1402
      9 C          -9.4209  -19.2668   20.6915 C.ar    1  UNL1        0.0371
     10 C          -8.0132  -19.2567   21.2093 C.ar    1  UNL1        0.0074
     11 C          -7.5321  -18.1125   22.0515 C.ar    1  UNL1        0.0494
     12 H          -5.1647  -14.6732   24.9179 H       1  UNL1        0.1452
     13 H          -6.6968  -13.9354   24.7909 H       1  UNL1        0.1452
     14 N          -5.1977  -19.2365   22.2450 N.pl3   1  UNL1       -0.3195
     15 H          -5.3618  -20.1301   22.6242 H       1  UNL1        0.1481
     16 C          -4.0211  -19.0091   21.3429 C.3     1  UNL1        0.0729
     17 C          -2.6822  -18.6695   21.9278 C.3     1  UNL1        0.0196
     18 C          -1.9657  -16.1875   21.6509 C.3     1  UNL1        0.0001
     19 C          -2.4451  -17.3119   22.5203 C.3     1  UNL1        0.0017
     20 C          -4.1833  -19.1214   19.8559 C.3     1  UNL1        0.0512
     21 C          -3.2855  -18.3407   18.9424 C.3     1  UNL1        0.1389
     22 O          -3.5854  -16.9011   18.6467 O.3     1  UNL1       -0.3819
     23 H          -4.4160  -16.8393   18.1496 H       1  UNL1        0.2104
     24 O         -11.7553  -18.1428   20.4980 O.3     1  UNL1       -0.4714
     25 C         -12.8452  -17.4660   21.2752 C.3     1  UNL1        0.2525
@<TRIPOS>BOND
     1    18    19    1
     2    19    17    1
     3    16    17    1
     4    16    20    1
     5    20    21    1
     6    21    22    1
     7    16    14    1
     8    14     1    1
     9     1     2   ar
    10     2     3   ar
    11     3     4    1
    12     3     5   ar
    13     5     6   ar
    14     6     7   ar
    15     7     8   ar
    16     8    24    1
    17    24    25    1
    18     8     9   ar
    19     9    10   ar
    20    10    11   ar
    21    11     1   ar
    22    11     6   ar
    23    22    23    1
    24    14    15    1
    25     4    12    1
    26     4    13    1
@<TRIPOS>MOLECULE
*****
 25 26 0 0 0
SMALL
GASTEIGER

@<TRIPOS>ATOM
      1 C          -6.7559  -18.0668   22.2531 C.ar    1  UNL1        0.1327
      2 N          -5.9446  -16.9309   22.8023 N.ar    1  UNL1       -0.1993
      3 C          -6.5492  -15.9938   23.8055 C.ar    1  UNL1        0.2148
      4 N          -5.7379  -14.8579   24.3548 N.pl3   1  UNL1       -0.3274
      5 N          -7.9649  -16.1926   24.2595 N.ar    1  UNL1       -0.2138
      6 C          -8.7762  -17.3285   23.7103 C.ar    1  UNL1        0.0899
      7 C         -10.1919  -17.5272   24.1642 C.ar    1  UNL1        0.0562
      8 C         -11.0032  -18.6631   23.6150 C.ar    1  UNL1        0.1402
      9 C         -10.3987  -19.6002   22.6118 C.ar    1  UNL1        0.0371
     10 C          -8.9829  -19.4014   22.1578 C.ar    1  UNL1        0.0074
     11 C          -8.1717  -18.2656   22.7071 C.ar    1  UNL1        0.0494
     12 H          -4.8086  -14.7275   24.0568 H       1  UNL1        0.1452
     13 H          -6.1346  -14.2429   25.0132 H       1  UNL1        0.1452
     14 N          -6.1514  -19.0039   21.2499 N.pl3   1  UNL1       -0.3195
     15 H          -6.7296  -19.4848   20.6147 H       1  UNL1        0.1481
     16 C          -4.6658  -19.2081   21.2145 C.3     1  UNL1        0.0729
     17 C          -3.9731  -19.4509   19.9064 C.3     1  UNL1        0.0196
     18 C          -1.9557  -18.1322   18.9361 C.3     1  UNL1        0.0001
     19 C          -3.4360  -18.2945   19.1161 C.3     1  UNL1        0.0017
     20 C          -3.8729  -19.1696   22.4873 C.3     1  UNL1        0.0512
     21 C          -2.7247  -18.2146   22.6270 C.3     1  UNL1        0.1389
     22 O          -1.3303  -18.6665   22.3088 O.3     1  UNL1       -0.3819
     23 H          -1.0565  -19.3439   22.9467 H       1  UNL1        0.2104
     24 O         -12.4190  -18.8619   24.0689 O.3     1  UNL1       -0.4714
     25 C         -13.4906  -17.9129   23.6206 C.3     1  UNL1        0.2525
@<TRIPOS>BOND
     1    18    19    1
     2    19    17    1
     3    16    17    1
     4    16    20    1
     5    20    21    1
     6    21    22    1
     7    16    14    1
     8    14     1    1
     9     1     2   ar
    10     2     3   ar
    11     3     4    1
    12     3     5   ar
    13     5     6   ar
    14     6     7   ar
    15     7     8   ar
    16     8    24    1
    17    24    25    1
    18     8     9   ar
    19     9    10   ar
    20    10    11   ar
    21    11     1   ar
    22    11     6   ar
    23    22    23    1
    24    14    15    1
    25     4    12    1
    26     4    13    1
@<TRIPOS>MOLECULE
*****
 25 26 0 0 0
SMALL
GASTEIGER

@<TRIPOS>ATOM
      1 C         -12.4880   -6.0613   17.7585 C.ar    1  UNL1        0.1327
      2 N         -12.8955   -7.4900   17.9656 N.ar    1  UNL1       -0.1993
      3 C         -14.1139   -7.8120   18.7792 C.ar    1  UNL1        0.2148
      4 N         -14.5213   -9.2407   18.9863 N.pl3   1  UNL1       -0.3274
      5 N         -14.9248   -6.7054   19.3855 N.ar    1  UNL1       -0.2138
      6 C         -14.5174   -5.2767   19.1784 C.ar    1  UNL1        0.0899
      7 C         -15.3283   -4.1701   19.7848 C.ar    1  UNL1        0.0562
      8 C         -14.9209   -2.7414   19.5776 C.ar    1  UNL1        0.1402
      9 C         -13.7025   -2.4194   18.7641 C.ar    1  UNL1        0.0371
     10 C         -12.8916   -3.5260   18.1577 C.ar    1  UNL1        0.0074
     11 C         -13.2990   -4.9546   18.3649 C.ar    1  UNL1        0.0494
     12 H         -13.9890   -9.9670   18.5883 H       1  UNL1        0.1452
     13 H         -15.3209   -9.4521   19.5202 H       1  UNL1        0.1452
     14 N         -11.2696   -5.7393   16.9450 N.pl3   1  UNL1       -0.3195
     15 H         -11.3316   -5.6913   15.9636 H       1  UNL1        0.1481
     16 C          -9.9569   -5.4905   17.6266 C.3     1  UNL1        0.0729
     17 C          -8.9592   -4.5531   17.0136 C.3     1  UNL1        0.0196
     18 C         -10.0532   -2.2755   16.4084 C.3     1  UNL1        0.0001
     19 C          -9.4010   -3.5573   15.9823 C.3     1  UNL1        0.0017
     20 C          -9.6417   -6.1792   18.9215 C.3     1  UNL1        0.0512
     21 C          -9.4825   -7.6702   18.9585 C.3     1  UNL1        0.1389
     22 O          -9.8565   -8.4944   17.7624 O.3     1  UNL1       -0.3819
     23 H         -10.8138   -8.4369   17.6166 H       1  UNL1        0.2104
     24 O         -15.7319   -1.6347   20.1840 O.3     1  UNL1       -0.4714
     25 C         -15.7538   -0.2808   19.5388 C.3     1  UNL1        0.2525
@<TRIPOS>BOND
     1    18    19    1
     2    19    17    1
     3    16    17    1
     4    16    20    1
     5    20    21    1
     6    21    22    1
     7    16    14    1
     8    14     1    1
     9     1     2   ar
    10     2     3   ar
    11     3     4    1
    12     3     5   ar
    13     5     6   ar
    14     6     7   ar
    15     7     8   ar
    16     8    24    1
    17    24    25    1
    18     8     9   ar
    19     9    10   ar
    20    10    11   ar
    21    11     1   ar
    22    11     6   ar
    23    22    23    1
    24    14    15    1
    25     4    12    1
    26     4    13    1
