@<TRIPOS>MOLECULE
*****
 27 30 0 0 0
SMALL
GASTEIGER

@<TRIPOS>ATOM
      1 C         -10.2891  -17.5915   24.1696 C.ar    1  UNL1        0.0366
      2 C          -8.9585  -17.4984   23.4836 C.ar    1  UNL1       -0.0012
      3 C          -8.2268  -18.7483   23.0932 C.ar    1  UNL1       -0.0223
      4 C          -8.8258  -20.0913   23.3888 C.ar    1  UNL1       -0.0012
      5 C         -10.1564  -20.1845   24.0748 C.ar    1  UNL1        0.0366
      6 C         -10.8881  -18.9346   24.4651 C.ar    1  UNL1        0.1385
      7 C          -6.8961  -18.6551   22.4072 C.3     1  UNL1        0.0224
      8 C          -5.7764  -17.8860   23.0436 C.3     1  UNL1        0.0057
      9 C          -4.4458  -17.7928   22.3576 C.3     1  UNL1        0.0163
     10 C          -4.2347  -18.4687   21.0352 C.3     1  UNL1        0.0575
     11 C          -5.3543  -19.2377   20.3988 C.3     1  UNL1        0.0163
     12 C          -6.6850  -19.3309   21.0848 C.3     1  UNL1        0.0057
     13 N          -2.9040  -18.3754   20.3492 N.3     1  UNL1       -0.2740
     14 C          -1.5874  -18.8181   20.9153 C.3     1  UNL1        0.0721
     15 C          -0.5259  -18.5395   19.8927 C.3     1  UNL1        0.0188
     16 C          -1.1866  -17.9245   18.6946 C.3     1  UNL1        0.0188
     17 C          -2.6563  -17.8232   18.9768 C.3     1  UNL1        0.0721
     18 O         -12.2189  -19.0278   25.1512 O.3     1  UNL1       -0.4754
     19 C         -13.4554  -18.5356   24.4593 C.3     1  UNL1        0.2068
     20 C         -13.3592  -17.4366   23.4431 C.3     1  UNL1        0.0646
     21 C         -13.4727  -17.7543   21.9815 C.3     1  UNL1        0.0759
     22 N         -12.2457  -18.1043   21.1926 N.3     1  UNL1       -0.2726
     23 C         -11.4772  -17.0282   20.4845 C.3     1  UNL1        0.0721
     24 C         -10.2503  -17.3781   19.6957 C.3     1  UNL1        0.0174
     25 C          -9.7920  -18.8041   19.6149 C.3     1  UNL1        0.0029
     26 C         -10.5606  -19.8802   20.3230 C.3     1  UNL1        0.0174
     27 C         -11.7875  -19.5303   21.1119 C.3     1  UNL1        0.0721
@<TRIPOS>BOND
     1     1     2   ar
     2     2     3   ar
     3     7     3    1
     4     7     8    1
     5     8     9    1
     6     9    10    1
     7    10    13    1
     8    13    14    1
     9    14    15    1
    10    15    16    1
    11    16    17    1
    12    10    11    1
    13    11    12    1
    14     3     4   ar
    15     4     5   ar
    16     5     6   ar
    17     6    18    1
    18    18    19    1
    19    19    20    1
    20    20    21    1
    21    21    22    1
    22    22    23    1
    23    23    24    1
    24    24    25    1
    25    25    26    1
    26    26    27    1
    27     6     1   ar
    28    27    22    1
    29    12     7    1
    30    17    13    1
@<TRIPOS>MOLECULE
*****
 27 30 0 0 0
SMALL
GASTEIGER

@<TRIPOS>ATOM
      1 C          -1.0749    3.5841   23.3288 C.ar    1  UNL1        0.0366
      2 C          -0.2507    2.6591   22.4833 C.ar    1  UNL1       -0.0012
      3 C           0.4396    1.4844   23.1108 C.ar    1  UNL1       -0.0223
      4 C           0.3056    1.2348   24.5837 C.ar    1  UNL1       -0.0012
      5 C          -0.5186    2.1599   25.4292 C.ar    1  UNL1        0.0366
      6 C          -1.2089    3.3345   24.8018 C.ar    1  UNL1        0.1385
      7 C           1.2638    0.5594   22.2652 C.3     1  UNL1        0.0224
      8 C           2.5416   -0.0115   22.8049 C.3     1  UNL1        0.0057
      9 C           3.3659   -0.9365   21.9594 C.3     1  UNL1        0.0163
     10 C           2.9123   -1.2907   20.5741 C.3     1  UNL1        0.0575
     11 C           1.6345   -0.7198   20.0344 C.3     1  UNL1        0.0163
     12 C           0.8103    0.2053   20.8800 C.3     1  UNL1        0.0057
     13 N           3.7366   -2.2157   19.7286 N.3     1  UNL1       -0.2740
     14 C           3.4944   -3.6831   19.5338 C.3     1  UNL1        0.0721
     15 C           4.5559   -4.2101   18.6143 C.3     1  UNL1        0.0188
     16 C           5.4542   -3.0683   18.2407 C.3     1  UNL1        0.0188
     17 C           4.9478   -1.8357   18.9294 C.3     1  UNL1        0.0721
     18 O          -2.0332    4.2596   25.6473 O.3     1  UNL1       -0.4754
     19 C          -3.1590    3.7153   26.4757 C.3     1  UNL1        0.2068
     20 C          -4.5079    4.3698   26.4306 C.3     1  UNL1        0.0646
     21 C          -5.4321    4.1044   25.2793 C.3     1  UNL1        0.0759
     22 N          -4.9317    4.2322   23.8709 N.3     1  UNL1       -0.2726
     23 C          -4.9206    3.0349   22.9674 C.3     1  UNL1        0.0721
     24 C          -4.4203    3.1626   21.5592 C.3     1  UNL1        0.0174
     25 C          -3.9311    4.4877   21.0544 C.3     1  UNL1        0.0029
     26 C          -3.9422    5.6850   21.9579 C.3     1  UNL1        0.0174
     27 C          -4.4426    5.5573   23.3662 C.3     1  UNL1        0.0721
@<TRIPOS>BOND
     1     1     2   ar
     2     2     3   ar
     3     7     3    1
     4     7     8    1
     5     8     9    1
     6     9    10    1
     7    10    13    1
     8    13    14    1
     9    14    15    1
    10    15    16    1
    11    16    17    1
    12    10    11    1
    13    11    12    1
    14     3     4   ar
    15     4     5   ar
    16     5     6   ar
    17     6    18    1
    18    18    19    1
    19    19    20    1
    20    20    21    1
    21    21    22    1
    22    22    23    1
    23    23    24    1
    24    24    25    1
    25    25    26    1
    26    26    27    1
    27     6     1   ar
    28    27    22    1
    29    12     7    1
    30    17    13    1
@<TRIPOS>MOLECULE
*****
 27 30 0 0 0
SMALL
GASTEIGER

@<TRIPOS>ATOM
      1 C           4.2050   -3.2289   19.9609 C.ar    1  UNL1        0.0366
      2 C           3.1970   -2.1471   19.7092 C.ar    1  UNL1       -0.0012
      3 C           2.8617   -1.1671   20.7943 C.ar    1  UNL1       -0.0223
      4 C           3.5344   -1.2691   22.1311 C.ar    1  UNL1       -0.0012
      5 C           4.5425   -2.3509   22.3828 C.ar    1  UNL1        0.0366
      6 C           4.8778   -3.3308   21.2977 C.ar    1  UNL1        0.1385
      7 C           1.8536   -0.0852   20.5425 C.3     1  UNL1        0.0224
      8 C           1.1586    0.5754   21.6960 C.3     1  UNL1        0.0057
      9 C           0.1505    1.6573   21.4443 C.3     1  UNL1        0.0163
     10 C          -0.1626    2.0785   20.0391 C.3     1  UNL1        0.0575
     11 C           0.5324    1.4178   18.8856 C.3     1  UNL1        0.0163
     12 C           1.5405    0.3359   19.1374 C.3     1  UNL1        0.0057
     13 N          -1.1706    3.1603   19.7874 N.3     1  UNL1       -0.2740
     14 C          -2.4941    3.3100   20.4772 C.3     1  UNL1        0.0721
     15 C          -3.1737    4.5246   19.9178 C.3     1  UNL1        0.0188
     16 C          -2.2701    5.1257   18.8822 C.3     1  UNL1        0.0188
     17 C          -1.0322    4.2825   18.8016 C.3     1  UNL1        0.0721
     18 O           5.8859   -4.4127   21.5495 O.3     1  UNL1       -0.4754
     19 C           7.2787   -4.2807   21.0084 C.3     1  UNL1        0.2068
     20 C           7.8915   -2.9222   20.8382 C.3     1  UNL1        0.0646
     21 C           7.9356   -2.2840   19.4815 C.3     1  UNL1        0.0759
     22 N           6.9717   -1.1876   19.1367 N.3     1  UNL1       -0.2726
     23 C           6.3572   -1.1317   17.7695 C.3     1  UNL1        0.0721
     24 C           5.3933   -0.0353   17.4247 C.3     1  UNL1        0.0174
     25 C           5.0440    1.0052   18.4471 C.3     1  UNL1        0.0029
     26 C           5.6585    0.9492   19.8143 C.3     1  UNL1        0.0174
     27 C           6.6223   -0.1471   20.1591 C.3     1  UNL1        0.0721
@<TRIPOS>BOND
     1     1     2   ar
     2     2     3   ar
     3     7     3    1
     4     7     8    1
     5     8     9    1
     6     9    10    1
     7    10    13    1
     8    13    14    1
     9    14    15    1
    10    15    16    1
    11    16    17    1
    12    10    11    1
    13    11    12    1
    14     3     4   ar
    15     4     5   ar
    16     5     6   ar
    17     6    18    1
    18    18    19    1
    19    19    20    1
    20    20    21    1
    21    21    22    1
    22    22    23    1
    23    23    24    1
    24    24    25    1
    25    25    26    1
    26    26    27    1
    27     6     1   ar
    28    27    22    1
    29    12     7    1
    30    17    13    1
@<TRIPOS>MOLECULE
*****
 27 30 0 0 0
SMALL
GASTEIGER

@<TRIPOS>ATOM
      1 C           8.0213   -1.8102   19.2016 C.ar    1  UNL1        0.0366
      2 C           8.2294   -2.5656   20.4806 C.ar    1  UNL1       -0.0012
      3 C           7.2142   -3.5744   20.9297 C.ar    1  UNL1       -0.0223
      4 C           5.9908   -3.8278   20.0996 C.ar    1  UNL1       -0.0012
      5 C           5.7826   -3.0725   18.8205 C.ar    1  UNL1        0.0366
      6 C           6.7979   -2.0637   18.3715 C.ar    1  UNL1        0.1385
      7 C           7.4223   -4.3298   22.2088 C.3     1  UNL1        0.0224
      8 C           8.4249   -5.4439   22.2672 C.3     1  UNL1        0.0057
      9 C           8.6331   -6.1993   23.5462 C.3     1  UNL1        0.0163
     10 C           7.8387   -5.8405   24.7670 C.3     1  UNL1        0.0575
     11 C           6.8361   -4.7263   24.7087 C.3     1  UNL1        0.0163
     12 C           6.6279   -3.9709   23.4295 C.3     1  UNL1        0.0057
     13 N           8.0469   -6.5959   26.0461 N.3     1  UNL1       -0.2740
     14 C           8.3019   -8.0689   26.1686 C.3     1  UNL1        0.0721
     15 C           8.4493   -8.3943   27.6254 C.3     1  UNL1        0.0188
     16 C           8.2854   -7.1222   28.4033 C.3     1  UNL1        0.0188
     17 C           8.0368   -6.0108   27.4272 C.3     1  UNL1        0.0721
     18 O           6.5897   -1.3083   17.0924 O.3     1  UNL1       -0.4754
     19 C           6.6431    0.1907   17.0894 C.3     1  UNL1        0.2068
     20 C           5.4281    0.9852   17.4669 C.3     1  UNL1        0.0646
     21 C           5.2129    1.3940   18.8940 C.3     1  UNL1        0.0759
     22 N           4.7011    0.3967   19.8908 N.3     1  UNL1       -0.2726
     23 C           5.4717    0.1320   21.1502 C.3     1  UNL1        0.0721
     24 C           4.9599   -0.8653   22.1470 C.3     1  UNL1        0.0174
     25 C           3.6776   -1.5978   21.8843 C.3     1  UNL1        0.0029
     26 C           2.9071   -1.3332   20.6248 C.3     1  UNL1        0.0174
     27 C           3.4188   -0.3359   19.6281 C.3     1  UNL1        0.0721
@<TRIPOS>BOND
     1     1     2   ar
     2     2     3   ar
     3     7     3    1
     4     7     8    1
     5     8     9    1
     6     9    10    1
     7    10    13    1
     8    13    14    1
     9    14    15    1
    10    15    16    1
    11    16    17    1
    12    10    11    1
    13    11    12    1
    14     3     4   ar
    15     4     5   ar
    16     5     6   ar
    17     6    18    1
    18    18    19    1
    19    19    20    1
    20    20    21    1
    21    21    22    1
    22    22    23    1
    23    23    24    1
    24    24    25    1
    25    25    26    1
    26    26    27    1
    27     6     1   ar
    28    27    22    1
    29    12     7    1
    30    17    13    1
@<TRIPOS>MOLECULE
*****
 27 30 0 0 0
SMALL
GASTEIGER

@<TRIPOS>ATOM
      1 C           7.0436   -1.4554   19.6934 C.ar    1  UNL1        0.0366
      2 C           7.2342   -1.9567   21.0942 C.ar    1  UNL1       -0.0012
      3 C           6.5066   -3.1839   21.5572 C.ar    1  UNL1       -0.0223
      4 C           5.5883   -3.9099   20.6194 C.ar    1  UNL1       -0.0012
      5 C           5.3976   -3.4087   19.2185 C.ar    1  UNL1        0.0366
      6 C           6.1253   -2.1814   18.7555 C.ar    1  UNL1        0.1385
      7 C           6.6973   -3.6851   22.9581 C.3     1  UNL1        0.0224
      8 C           6.1081   -2.9290   24.1119 C.3     1  UNL1        0.0057
      9 C           6.2988   -3.4301   25.5127 C.3     1  UNL1        0.0163
     10 C           7.0786   -4.6875   25.7599 C.3     1  UNL1        0.0575
     11 C           7.6677   -5.4436   24.6061 C.3     1  UNL1        0.0163
     12 C           7.4770   -4.9424   23.2052 C.3     1  UNL1        0.0057
     13 N           7.2693   -5.1886   27.1607 N.3     1  UNL1       -0.2740
     14 C           6.3303   -4.9717   28.3102 C.3     1  UNL1        0.0721
     15 C           6.9130   -5.6437   29.5180 C.3     1  UNL1        0.0188
     16 C           8.2123   -6.2760   29.1150 C.3     1  UNL1        0.0188
     17 C           8.4324   -5.9947   27.6582 C.3     1  UNL1        0.0721
     18 O           5.9346   -1.6802   17.3546 O.3     1  UNL1       -0.4754
     19 C           5.0970   -0.4618   17.1015 C.3     1  UNL1        0.2068
     20 C           3.6007   -0.5604   17.1336 C.3     1  UNL1        0.0646
     21 C           2.8284    0.1082   18.2321 C.3     1  UNL1        0.0759
     22 N           3.2673   -0.0453   19.6582 N.3     1  UNL1       -0.2726
     23 C           4.2143    0.9487   20.2626 C.3     1  UNL1        0.0721
     24 C           4.6532    0.7952   21.6887 C.3     1  UNL1        0.0174
     25 C           4.1450   -0.3521   22.5104 C.3     1  UNL1        0.0029
     26 C           3.1979   -1.3460   21.9061 C.3     1  UNL1        0.0174
     27 C           2.7591   -1.1926   20.4800 C.3     1  UNL1        0.0721
@<TRIPOS>BOND
     1     1     2   ar
     2     2     3   ar
     3     7     3    1
     4     7     8    1
     5     8     9    1
     6     9    10    1
     7    10    13    1
     8    13    14    1
     9    14    15    1
    10    15    16    1
    11    16    17    1
    12    10    11    1
    13    11    12    1
    14     3     4   ar
    15     4     5   ar
    16     5     6   ar
    17     6    18    1
    18    18    19    1
    19    19    20    1
    20    20    21    1
    21    21    22    1
    22    22    23    1
    23    23    24    1
    24    24    25    1
    25    25    26    1
    26    26    27    1
    27     6     1   ar
    28    27    22    1
    29    12     7    1
    30    17    13    1
@<TRIPOS>MOLECULE
*****
 27 30 0 0 0
SMALL
GASTEIGER

@<TRIPOS>ATOM
      1 C           4.3414    1.2187   21.7070 C.ar    1  UNL1        0.0366
      2 C           3.0654    1.8181   22.2194 C.ar    1  UNL1       -0.0012
      3 C           2.2663    1.0995   23.2658 C.ar    1  UNL1       -0.0223
      4 C           2.7432   -0.2186   23.7999 C.ar    1  UNL1       -0.0012
      5 C           4.0192   -0.8180   23.2875 C.ar    1  UNL1        0.0366
      6 C           4.8183   -0.0994   22.2411 C.ar    1  UNL1        0.1385
      7 C           0.9903    1.6990   23.7782 C.3     1  UNL1        0.0224
      8 C           0.1980    2.6310   22.9101 C.3     1  UNL1        0.0057
      9 C          -1.0780    3.2304   23.4224 C.3     1  UNL1        0.0163
     10 C          -1.5617    2.8979   24.8029 C.3     1  UNL1        0.0575
     11 C          -0.7693    1.9659   25.6709 C.3     1  UNL1        0.0163
     12 C           0.5067    1.3664   25.1586 C.3     1  UNL1        0.0057
     13 N          -2.8376    3.4974   25.3152 N.3     1  UNL1       -0.2740
     14 C          -4.0287    3.8767   24.4861 C.3     1  UNL1        0.0721
     15 C          -5.0738    4.4366   25.4050 C.3     1  UNL1        0.0188
     16 C          -4.5286    4.4032   26.8021 C.3     1  UNL1        0.0188
     17 C          -3.1466    3.8228   26.7465 C.3     1  UNL1        0.0721
     18 O           6.0943   -0.6988   21.7287 O.3     1  UNL1       -0.4754
     19 C           6.3065   -0.8624   20.2528 C.3     1  UNL1        0.2068
     20 C           5.7047   -2.0333   19.5339 C.3     1  UNL1        0.0646
     21 C           4.6471   -1.8118   18.4935 C.3     1  UNL1        0.0759
     22 N           3.4045   -1.0456   18.8386 N.3     1  UNL1       -0.2726
     23 C           3.0785    0.2232   18.1079 C.3     1  UNL1        0.0721
     24 C           1.8360    0.9894   18.4529 C.3     1  UNL1        0.0174
     25 C           0.9194    0.4868   19.5286 C.3     1  UNL1        0.0029
     26 C           1.2454   -0.7821   20.2593 C.3     1  UNL1        0.0174
     27 C           2.4879   -1.5482   19.9143 C.3     1  UNL1        0.0721
@<TRIPOS>BOND
     1     1     2   ar
     2     2     3   ar
     3     7     3    1
     4     7     8    1
     5     8     9    1
     6     9    10    1
     7    10    13    1
     8    13    14    1
     9    14    15    1
    10    15    16    1
    11    16    17    1
    12    10    11    1
    13    11    12    1
    14     3     4   ar
    15     4     5   ar
    16     5     6   ar
    17     6    18    1
    18    18    19    1
    19    19    20    1
    20    20    21    1
    21    21    22    1
    22    22    23    1
    23    23    24    1
    24    24    25    1
    25    25    26    1
    26    26    27    1
    27     6     1   ar
    28    27    22    1
    29    12     7    1
    30    17    13    1
@<TRIPOS>MOLECULE
*****
 27 30 0 0 0
SMALL
GASTEIGER

@<TRIPOS>ATOM
      1 C           9.0113   -8.0306   25.4023 C.ar    1  UNL1        0.0366
      2 C           8.6875   -7.1324   24.2454 C.ar    1  UNL1       -0.0012
      3 C           7.8182   -5.9275   24.4518 C.ar    1  UNL1       -0.0223
      4 C           7.2727   -5.6209   25.8150 C.ar    1  UNL1       -0.0012
      5 C           7.5964   -6.5191   26.9718 C.ar    1  UNL1        0.0366
      6 C           8.4657   -7.7240   26.7654 C.ar    1  UNL1        0.1385
      7 C           7.4945   -5.0292   23.2949 C.3     1  UNL1        0.0224
      8 C           8.3616   -5.0407   22.0709 C.3     1  UNL1        0.0057
      9 C           8.0379   -4.1425   20.9140 C.3     1  UNL1        0.0163
     10 C           6.8471   -3.2327   20.9811 C.3     1  UNL1        0.0575
     11 C           5.9801   -3.2212   22.2051 C.3     1  UNL1        0.0163
     12 C           6.3038   -4.1195   23.3620 C.3     1  UNL1        0.0057
     13 N           6.5234   -2.3345   19.8242 N.3     1  UNL1       -0.2740
     14 C           7.4960   -1.8334   18.7981 C.3     1  UNL1        0.0721
     15 C           6.7440   -0.9689   17.8300 C.3     1  UNL1        0.0188
     16 C           5.3067   -0.9357   18.2579 C.3     1  UNL1        0.0188
     17 C           5.1704   -1.7797   19.4903 C.3     1  UNL1        0.0721
     18 O           8.7894   -8.6223   27.9224 O.3     1  UNL1       -0.4754
     19 C           8.4821  -10.0883   27.8425 C.3     1  UNL1        0.2068
     20 C           7.0570  -10.5562   27.8291 C.3     1  UNL1        0.0646
     21 C           6.7163  -11.9364   28.3076 C.3     1  UNL1        0.0759
     22 N           5.3069  -12.4394   28.2041 N.3     1  UNL1       -0.2726
     23 C           4.8805  -13.2346   27.0058 C.3     1  UNL1        0.0721
     24 C           3.4712  -13.7376   26.9022 C.3     1  UNL1        0.0174
     25 C           2.4883  -13.4455   27.9968 C.3     1  UNL1        0.0029
     26 C           2.9146  -12.6503   29.1951 C.3     1  UNL1        0.0174
     27 C           4.3239  -12.1472   29.2987 C.3     1  UNL1        0.0721
@<TRIPOS>BOND
     1     1     2   ar
     2     2     3   ar
     3     7     3    1
     4     7     8    1
     5     8     9    1
     6     9    10    1
     7    10    13    1
     8    13    14    1
     9    14    15    1
    10    15    16    1
    11    16    17    1
    12    10    11    1
    13    11    12    1
    14     3     4   ar
    15     4     5   ar
    16     5     6   ar
    17     6    18    1
    18    18    19    1
    19    19    20    1
    20    20    21    1
    21    21    22    1
    22    22    23    1
    23    23    24    1
    24    24    25    1
    25    25    26    1
    26    26    27    1
    27     6     1   ar
    28    27    22    1
    29    12     7    1
    30    17    13    1
@<TRIPOS>MOLECULE
*****
 27 30 0 0 0
SMALL
GASTEIGER

@<TRIPOS>ATOM
      1 C           6.4175   -2.1650   20.2537 C.ar    1  UNL1        0.0366
      2 C           5.3719   -1.1156   20.0182 C.ar    1  UNL1       -0.0012
      3 C           3.9338   -1.5118   19.8604 C.ar    1  UNL1       -0.0223
      4 C           3.5413   -2.9574   19.9383 C.ar    1  UNL1       -0.0012
      5 C           4.5868   -4.0068   20.1738 C.ar    1  UNL1        0.0366
      6 C           6.0249   -3.6106   20.3315 C.ar    1  UNL1        0.1385
      7 C           2.8882   -0.4623   19.6249 C.3     1  UNL1        0.0224
      8 C           3.1860    0.7061   18.7326 C.3     1  UNL1        0.0057
      9 C           2.1406    1.7555   18.4970 C.3     1  UNL1        0.0163
     10 C           0.7972    1.6367   19.1538 C.3     1  UNL1        0.0575
     11 C           0.4994    0.4683   20.0462 C.3     1  UNL1        0.0163
     12 C           1.5450   -0.5812   20.2817 C.3     1  UNL1        0.0057
     13 N          -0.2483    2.6861   18.9183 N.3     1  UNL1       -0.2740
     14 C          -1.2592    3.1636   19.9183 C.3     1  UNL1        0.0721
     15 C          -2.1022    4.2149   19.2594 C.3     1  UNL1        0.0188
     16 C          -1.6122    4.3873   17.8522 C.3     1  UNL1        0.0188
     17 C          -0.4664    3.4424   17.6414 C.3     1  UNL1        0.0721
     18 O           7.0705   -4.6601   20.5670 O.3     1  UNL1       -0.4754
     19 C           8.0458   -4.5070   21.6964 C.3     1  UNL1        0.2068
     20 C           7.5746   -4.6252   23.1155 C.3     1  UNL1        0.0646
     21 C           7.5289   -3.4104   23.9943 C.3     1  UNL1        0.0759
     22 N           6.4424   -2.3926   23.8110 N.3     1  UNL1       -0.2726
     23 C           5.0112   -2.8320   23.7173 C.3     1  UNL1        0.0721
     24 C           3.9247   -1.8142   23.5340 C.3     1  UNL1        0.0174
     25 C           4.2693   -0.3571   23.4444 C.3     1  UNL1        0.0029
     26 C           5.7005    0.0822   23.5382 C.3     1  UNL1        0.0174
     27 C           6.7870   -0.9355   23.7214 C.3     1  UNL1        0.0721
@<TRIPOS>BOND
     1     1     2   ar
     2     2     3   ar
     3     7     3    1
     4     7     8    1
     5     8     9    1
     6     9    10    1
     7    10    13    1
     8    13    14    1
     9    14    15    1
    10    15    16    1
    11    16    17    1
    12    10    11    1
    13    11    12    1
    14     3     4   ar
    15     4     5   ar
    16     5     6   ar
    17     6    18    1
    18    18    19    1
    19    19    20    1
    20    20    21    1
    21    21    22    1
    22    22    23    1
    23    23    24    1
    24    24    25    1
    25    25    26    1
    26    26    27    1
    27     6     1   ar
    28    27    22    1
    29    12     7    1
    30    17    13    1
@<TRIPOS>MOLECULE
*****
 27 30 0 0 0
SMALL
GASTEIGER

@<TRIPOS>ATOM
      1 C           6.4882   -0.7884   17.6838 C.ar    1  UNL1        0.0366
      2 C           5.1437   -0.1314   17.5812 C.ar    1  UNL1       -0.0012
      3 C           4.7140    0.8636   18.6182 C.ar    1  UNL1       -0.0223
      4 C           5.6288    1.2016   19.7578 C.ar    1  UNL1       -0.0012
      5 C           6.9733    0.5445   19.8605 C.ar    1  UNL1        0.0366
      6 C           7.4030   -0.4504   18.8235 C.ar    1  UNL1        0.1385
      7 C           3.3694    1.5207   18.5155 C.3     1  UNL1        0.0224
      8 C           3.2676    3.0162   18.4614 C.3     1  UNL1        0.0057
      9 C           1.9231    3.6733   18.3587 C.3     1  UNL1        0.0163
     10 C           0.6803    2.8347   18.3100 C.3     1  UNL1        0.0575
     11 C           0.7820    1.3392   18.3641 C.3     1  UNL1        0.0163
     12 C           2.1266    0.6821   18.4669 C.3     1  UNL1        0.0057
     13 N          -0.6642    3.4918   18.2073 N.3     1  UNL1       -0.2740
     14 C          -1.3169    3.9716   16.9449 C.3     1  UNL1        0.0721
     15 C          -2.6481    4.5608   17.3064 C.3     1  UNL1        0.0188
     16 C          -2.8182    4.4450   18.7922 C.3     1  UNL1        0.0188
     17 C          -1.5921    3.7844   19.3490 C.3     1  UNL1        0.0721
     18 O           8.7475   -1.1075   18.9262 O.3     1  UNL1       -0.4754
     19 C           8.8448   -2.5730   19.2308 C.3     1  UNL1        0.2068
     20 C           8.5052   -3.0783   20.6016 C.3     1  UNL1        0.0646
     21 C           7.3021   -3.9514   20.8024 C.3     1  UNL1        0.0759
     22 N           5.9339   -3.4290   20.4782 N.3     1  UNL1       -0.2726
     23 C           5.2956   -2.3987   21.3620 C.3     1  UNL1        0.0721
     24 C           3.9274   -1.8763   21.0378 C.3     1  UNL1        0.0174
     25 C           3.1975   -2.3843   19.8299 C.3     1  UNL1        0.0029
     26 C           3.8357   -3.4146   18.9462 C.3     1  UNL1        0.0174
     27 C           5.2039   -3.9370   19.2703 C.3     1  UNL1        0.0721
@<TRIPOS>BOND
     1     1     2   ar
     2     2     3   ar
     3     7     3    1
     4     7     8    1
     5     8     9    1
     6     9    10    1
     7    10    13    1
     8    13    14    1
     9    14    15    1
    10    15    16    1
    11    16    17    1
    12    10    11    1
    13    11    12    1
    14     3     4   ar
    15     4     5   ar
    16     5     6   ar
    17     6    18    1
    18    18    19    1
    19    19    20    1
    20    20    21    1
    21    21    22    1
    22    22    23    1
    23    23    24    1
    24    24    25    1
    25    25    26    1
    26    26    27    1
    27     6     1   ar
    28    27    22    1
    29    12     7    1
    30    17    13    1
