@<TRIPOS>MOLECULE
*****
 34 37 0 0 0
SMALL
GASTEIGER

@<TRIPOS>ATOM
      1 N         -15.5150   -7.8012   19.8844 N.am    1  UNL1       -0.2683
      2 C         -14.6396   -6.8225   19.1592 C.2     1  UNL1        0.3047
      3 O         -14.9166   -6.4893   17.7231 O.2     1  UNL1       -0.2525
      4 N         -13.4872   -6.1770   19.8701 N.am    1  UNL1       -0.2863
      5 H         -15.3332   -8.0199   20.8269 H       1  UNL1        0.1564
      6 H         -13.3054   -6.3956   20.8126 H       1  UNL1        0.1512
      7 C         -12.6119   -5.1983   19.1449 C.3     1  UNL1        0.1019
      8 C         -11.3213   -5.6565   18.5330 C.3     1  UNL1        0.0642
      9 C         -10.4459   -4.6778   17.8078 C.3     1  UNL1        0.1352
     10 C          -9.2865   -4.1324   17.0279 C.3     1  UNL1        0.0437
     11 C          -9.6280   -5.9253   17.6503 C.3     1  UNL1        0.0437
     12 O         -10.8612   -3.2409   17.6945 O.3     1  UNL1       -0.4827
     13 C         -12.1518   -2.7827   18.3063 C.ar    1  UNL1        0.1387
     14 C         -12.5671   -1.3458   18.1930 C.ar    1  UNL1        0.0738
     15 C         -13.8577   -0.8876   18.8049 C.ar    1  UNL1        0.1498
     16 C         -14.7330   -1.8662   19.5300 C.ar    1  UNL1        0.0371
     17 C         -14.3177   -3.3031   19.6434 C.ar    1  UNL1        0.0034
     18 C         -13.0271   -3.7613   19.0315 C.ar    1  UNL1        0.0298
     19 O         -14.2729    0.5494   18.6915 O.3     1  UNL1       -0.4044
     20 C         -15.7195    0.8996   18.5052 C.3     1  UNL1        0.5753
     21 F         -17.1661    1.2498   18.3189 F       1  UNL1       -0.1328
     22 F         -15.7978    1.3383   19.9374 F       1  UNL1       -0.1328
     23 F         -15.6412    0.4609   17.0729 F       1  UNL1       -0.1328
     24 C         -19.4124   -4.0595   19.6397 C.3     1  UNL1        0.0521
     25 C         -19.3023   -5.4790   19.1677 C.ar    1  UNL1        0.0594
     26 C         -18.0399   -6.2531   19.4066 C.ar    1  UNL1        0.0160
     27 C         -17.9298   -7.6726   18.9346 C.ar    1  UNL1        0.0162
     28 C         -16.6673   -8.4467   19.1735 C.ar    1  UNL1        0.0516
     29 C         -16.5573   -9.8662   18.7015 C.ar    1  UNL1        0.0147
     30 C         -17.7097  -10.5117   17.9906 C.ar    1  UNL1        0.0013
     31 C         -18.9721   -9.7377   17.7517 C.ar    1  UNL1        0.0016
     32 C         -19.0822   -8.3181   18.2237 C.ar    1  UNL1        0.0204
     33 C         -20.3446   -7.5441   17.9848 C.ar    1  UNL1        0.0984
     34 N         -20.4547   -6.1245   18.4569 N.ar    1  UNL1       -0.2481
@<TRIPOS>BOND
     1    24    25    1
     2    25    26   ar
     3    26    27   ar
     4    27    28   ar
     5    28     1    1
     6     1     2   am
     7     2     3    2
     8     2     4   am
     9     7     4    1
    10     7     8    1
    11     8     9    1
    12     9    10    1
    13     9    11    1
    14     9    12    1
    15    12    13    1
    16    13    14   ar
    17    14    15   ar
    18    15    19    1
    19    19    20    1
    20    20    21    1
    21    20    22    1
    22    20    23    1
    23    15    16   ar
    24    16    17   ar
    25    17    18   ar
    26    28    29   ar
    27    29    30   ar
    28    30    31   ar
    29    31    32   ar
    30    32    33   ar
    31    33    34   ar
    32    34    25   ar
    33    32    27   ar
    34    18     7    1
    35    18    13   ar
    36     1     5    1
    37     4     6    1
@<TRIPOS>MOLECULE
*****
 34 37 0 0 0
SMALL
GASTEIGER

@<TRIPOS>ATOM
      1 N           1.3222    2.4531   20.0227 N.am    1  UNL1       -0.2683
      2 C          -0.1742    2.4223   20.1215 C.2     1  UNL1        0.3047
      3 O          -0.8908    1.1103   20.2450 O.2     1  UNL1       -0.2525
      4 N          -0.9541    3.7033   20.0968 N.am    1  UNL1       -0.2863
      5 H           1.7926    3.3142   19.9416 H       1  UNL1        0.1564
      6 H          -0.4838    4.5644   20.0157 H       1  UNL1        0.1512
      7 C          -2.4505    3.6725   20.1956 C.3     1  UNL1        0.1019
      8 C          -3.2850    3.6941   18.9493 C.3     1  UNL1        0.0642
      9 C          -4.7815    3.6632   19.0482 C.3     1  UNL1        0.1352
     10 C          -6.2217    3.6488   18.6293 C.3     1  UNL1        0.0437
     11 C          -4.6198    3.7107   17.5576 C.3     1  UNL1        0.0437
     12 O          -5.4433    3.6107   20.3932 O.3     1  UNL1       -0.4827
     13 C          -4.6088    3.5890   21.6394 C.ar    1  UNL1        0.1387
     14 C          -5.2706    3.5365   22.9845 C.ar    1  UNL1        0.0738
     15 C          -4.4361    3.5149   24.2307 C.ar    1  UNL1        0.1498
     16 C          -2.9397    3.5457   24.1319 C.ar    1  UNL1        0.0371
     17 C          -2.2779    3.5983   22.7869 C.ar    1  UNL1        0.0034
     18 C          -3.1124    3.6199   21.5406 C.ar    1  UNL1        0.0298
     19 O          -5.0980    3.4623   25.5758 O.3     1  UNL1       -0.4044
     20 C          -4.7439    4.4731   26.6259 C.3     1  UNL1        0.5753
     21 F          -4.3896    5.4838   27.6762 F       1  UNL1       -0.1328
     22 F          -3.7901    3.4951   27.2455 F       1  UNL1       -0.1328
     23 F          -5.6976    5.4510   26.0064 F       1  UNL1       -0.1328
     24 C           1.8168    1.0986   25.2352 C.3     1  UNL1        0.0521
     25 C           2.2780    0.4764   23.9507 C.ar    1  UNL1        0.0594
     26 C           1.9594    1.1353   22.6414 C.ar    1  UNL1        0.0160
     27 C           2.4207    0.5131   21.3568 C.ar    1  UNL1        0.0162
     28 C           2.1020    1.1720   20.0474 C.ar    1  UNL1        0.0516
     29 C           2.5633    0.5498   18.7629 C.ar    1  UNL1        0.0147
     30 C           3.3431   -0.7314   18.7877 C.ar    1  UNL1        0.0013
     31 C           3.6617   -1.3902   20.0970 C.ar    1  UNL1        0.0016
     32 C           3.2005   -0.7680   21.3815 C.ar    1  UNL1        0.0204
     33 C           3.5191   -1.4269   22.6908 C.ar    1  UNL1        0.0984
     34 N           3.0578   -0.8047   23.9754 N.ar    1  UNL1       -0.2481
@<TRIPOS>BOND
     1    24    25    1
     2    25    26   ar
     3    26    27   ar
     4    27    28   ar
     5    28     1    1
     6     1     2   am
     7     2     3    2
     8     2     4   am
     9     7     4    1
    10     7     8    1
    11     8     9    1
    12     9    10    1
    13     9    11    1
    14     9    12    1
    15    12    13    1
    16    13    14   ar
    17    14    15   ar
    18    15    19    1
    19    19    20    1
    20    20    21    1
    21    20    22    1
    22    20    23    1
    23    15    16   ar
    24    16    17   ar
    25    17    18   ar
    26    28    29   ar
    27    29    30   ar
    28    30    31   ar
    29    31    32   ar
    30    32    33   ar
    31    33    34   ar
    32    34    25   ar
    33    32    27   ar
    34    18     7    1
    35    18    13   ar
    36     1     5    1
    37     4     6    1
@<TRIPOS>MOLECULE
*****
 34 37 0 0 0
SMALL
GASTEIGER

@<TRIPOS>ATOM
      1 N          -0.7765    3.3782   23.6394 N.am    1  UNL1       -0.2683
      2 C           0.0980    2.1812   23.8681 C.2     1  UNL1        0.3047
      3 O          -0.2448    1.1971   24.9470 O.2     1  UNL1       -0.2525
      4 N           1.3153    1.9682   23.0179 N.am    1  UNL1       -0.2863
      5 H          -0.5515    4.0241   22.9313 H       1  UNL1        0.1564
      6 H           1.5403    2.6141   22.3098 H       1  UNL1        0.1512
      7 C           2.1898    0.7712   23.2467 C.3     1  UNL1        0.1019
      8 C           2.6851    0.4570   24.6273 C.3     1  UNL1        0.0642
      9 C           3.5596   -0.7401   24.8560 C.3     1  UNL1        0.1352
     10 C           4.4042   -1.7526   25.5711 C.3     1  UNL1        0.0437
     11 C           3.4737   -0.2089   26.2562 C.3     1  UNL1        0.0437
     12 O           3.9388   -1.6230   23.7042 O.3     1  UNL1       -0.4827
     13 C           3.4435   -1.3088   22.3236 C.ar    1  UNL1        0.1387
     14 C           3.8227   -2.1917   21.1718 C.ar    1  UNL1        0.0738
     15 C           3.3274   -1.8775   19.7912 C.ar    1  UNL1        0.1498
     16 C           2.4529   -0.6804   19.5624 C.ar    1  UNL1        0.0371
     17 C           2.0737    0.2024   20.7143 C.ar    1  UNL1        0.0034
     18 C           2.5690   -0.1118   22.0948 C.ar    1  UNL1        0.0298
     19 O           3.7066   -2.7604   18.6393 O.3     1  UNL1       -0.4044
     20 C           4.0908   -4.1895   18.8845 C.3     1  UNL1        0.5753
     21 F           4.4749   -5.6186   19.1297 F       1  UNL1       -0.1328
     22 F           2.6409   -4.5664   18.9592 F       1  UNL1       -0.1328
     23 F           5.5407   -3.8125   18.8099 F       1  UNL1       -0.1328
     24 C          -4.9871    3.4237   20.2455 C.3     1  UNL1        0.0521
     25 C          -4.8475    3.5720   21.7316 C.ar    1  UNL1        0.0594
     26 C          -3.4905    3.5074   22.3675 C.ar    1  UNL1        0.0160
     27 C          -3.3508    3.6558   23.8536 C.ar    1  UNL1        0.0162
     28 C          -1.9938    3.5912   24.4896 C.ar    1  UNL1        0.0516
     29 C          -1.8541    3.7396   25.9757 C.ar    1  UNL1        0.0147
     30 C          -3.0715    3.9525   26.8258 C.ar    1  UNL1        0.0013
     31 C          -4.4284    4.0171   26.1899 C.ar    1  UNL1        0.0016
     32 C          -4.5681    3.8688   24.7038 C.ar    1  UNL1        0.0204
     33 C          -5.9251    3.9333   24.0679 C.ar    1  UNL1        0.0984
     34 N          -6.0647    3.7850   22.5818 N.ar    1  UNL1       -0.2481
@<TRIPOS>BOND
     1    24    25    1
     2    25    26   ar
     3    26    27   ar
     4    27    28   ar
     5    28     1    1
     6     1     2   am
     7     2     3    2
     8     2     4   am
     9     7     4    1
    10     7     8    1
    11     8     9    1
    12     9    10    1
    13     9    11    1
    14     9    12    1
    15    12    13    1
    16    13    14   ar
    17    14    15   ar
    18    15    19    1
    19    19    20    1
    20    20    21    1
    21    20    22    1
    22    20    23    1
    23    15    16   ar
    24    16    17   ar
    25    17    18   ar
    26    28    29   ar
    27    29    30   ar
    28    30    31   ar
    29    31    32   ar
    30    32    33   ar
    31    33    34   ar
    32    34    25   ar
    33    32    27   ar
    34    18     7    1
    35    18    13   ar
    36     1     5    1
    37     4     6    1
@<TRIPOS>MOLECULE
*****
 34 37 0 0 0
SMALL
GASTEIGER

@<TRIPOS>ATOM
      1 N           5.7877   -1.4859   23.0207 N.am    1  UNL1       -0.2683
      2 C           6.0345   -2.7703   23.7552 C.2     1  UNL1        0.3047
      3 O           5.4079   -4.0440   23.2701 O.2     1  UNL1       -0.2525
      4 N           6.9078   -2.7810   24.9747 N.am    1  UNL1       -0.2863
      5 H           6.1989   -0.6499   23.3391 H       1  UNL1        0.1564
      6 H           7.3190   -1.9451   25.2931 H       1  UNL1        0.1512
      7 C           7.1545   -4.0654   25.7091 C.3     1  UNL1        0.1019
      8 C           7.5579   -5.2963   24.9528 C.3     1  UNL1        0.0642
      9 C           7.8047   -6.5808   25.6873 C.3     1  UNL1        0.1352
     10 C           8.1471   -8.0202   25.9336 C.3     1  UNL1        0.0437
     11 C           8.0802   -7.0272   24.2820 C.3     1  UNL1        0.0437
     12 O           7.6480   -6.6342   27.1781 O.3     1  UNL1       -0.4827
     13 C           7.2446   -5.4033   27.9345 C.ar    1  UNL1        0.1387
     14 C           7.0880   -5.4568   29.4253 C.ar    1  UNL1        0.0738
     15 C           6.6846   -4.2258   30.1816 C.ar    1  UNL1        0.1498
     16 C           6.4379   -2.9415   29.4472 C.ar    1  UNL1        0.0371
     17 C           6.5945   -2.8880   27.9564 C.ar    1  UNL1        0.0034
     18 C           6.9979   -4.1189   27.2000 C.ar    1  UNL1        0.0298
     19 O           6.5280   -4.2794   31.6725 O.3     1  UNL1       -0.4044
     20 C           6.5659   -3.0136   32.4766 C.3     1  UNL1        0.5753
     21 F           6.6040   -1.7479   33.2806 F       1  UNL1       -0.1328
     22 F           8.0654   -3.0441   32.4537 F       1  UNL1       -0.1328
     23 F           5.0665   -2.9832   32.4994 F       1  UNL1       -0.1328
     24 C           9.0505   -2.5081   18.8303 C.3     1  UNL1        0.0521
     25 C           7.5798   -2.2445   18.9633 C.ar    1  UNL1        0.0594
     26 C           6.9824   -1.9916   20.3157 C.ar    1  UNL1        0.0160
     27 C           5.5118   -1.7280   20.4487 C.ar    1  UNL1        0.0162
     28 C           4.9144   -1.4752   21.8012 C.ar    1  UNL1        0.0516
     29 C           3.4437   -1.2116   21.9342 C.ar    1  UNL1        0.0147
     30 C           2.5704   -1.2009   20.7146 C.ar    1  UNL1        0.0013
     31 C           3.1678   -1.4537   19.3621 C.ar    1  UNL1        0.0016
     32 C           4.6385   -1.7173   19.2292 C.ar    1  UNL1        0.0204
     33 C           5.2359   -1.9702   17.8767 C.ar    1  UNL1        0.0984
     34 N           6.7065   -2.2337   17.7438 N.ar    1  UNL1       -0.2481
@<TRIPOS>BOND
     1    24    25    1
     2    25    26   ar
     3    26    27   ar
     4    27    28   ar
     5    28     1    1
     6     1     2   am
     7     2     3    2
     8     2     4   am
     9     7     4    1
    10     7     8    1
    11     8     9    1
    12     9    10    1
    13     9    11    1
    14     9    12    1
    15    12    13    1
    16    13    14   ar
    17    14    15   ar
    18    15    19    1
    19    19    20    1
    20    20    21    1
    21    20    22    1
    22    20    23    1
    23    15    16   ar
    24    16    17   ar
    25    17    18   ar
    26    28    29   ar
    27    29    30   ar
    28    30    31   ar
    29    31    32   ar
    30    32    33   ar
    31    33    34   ar
    32    34    25   ar
    33    32    27   ar
    34    18     7    1
    35    18    13   ar
    36     1     5    1
    37     4     6    1
@<TRIPOS>MOLECULE
*****
 34 37 0 0 0
SMALL
GASTEIGER

@<TRIPOS>ATOM
      1 N           6.6093   -1.1938   28.5877 N.am    1  UNL1       -0.2683
      2 C           5.5567   -1.2153   27.5191 C.2     1  UNL1        0.3047
      3 O           4.2963   -2.0024   27.7238 O.2     1  UNL1       -0.2525
      4 N           5.7646   -0.4499   26.2460 N.am    1  UNL1       -0.2863
      5 H           7.4366   -0.6772   28.4534 H       1  UNL1        0.1564
      6 H           6.5919    0.0666   26.1117 H       1  UNL1        0.1512
      7 C           4.7120   -0.4715   25.1776 C.3     1  UNL1        0.1019
      8 C           3.5829    0.5151   25.2171 C.3     1  UNL1        0.0642
      9 C           2.5303    0.4935   24.1485 C.3     1  UNL1        0.1352
     10 C           1.3031    0.8672   23.3711 C.3     1  UNL1        0.0437
     11 C           2.0275    1.6315   24.9865 C.3     1  UNL1        0.0437
     12 O           2.6069   -0.5148   23.0406 O.3     1  UNL1       -0.4827
     13 C           3.7360   -1.5014   23.0011 C.ar    1  UNL1        0.1387
     14 C           3.8126   -2.5096   21.8932 C.ar    1  UNL1        0.0738
     15 C           4.9418   -3.4963   21.8537 C.ar    1  UNL1        0.1498
     16 C           5.9943   -3.4747   22.9222 C.ar    1  UNL1        0.0371
     17 C           5.9177   -2.4665   24.0301 C.ar    1  UNL1        0.0034
     18 C           4.7886   -1.4798   24.0696 C.ar    1  UNL1        0.0298
     19 O           5.0183   -4.5046   20.7457 O.3     1  UNL1       -0.4044
     20 C           3.9214   -4.5827   19.7256 C.3     1  UNL1        0.5753
     21 F           2.8245   -4.6608   18.7055 F       1  UNL1       -0.1328
     22 F           3.2287   -5.6265   20.5504 F       1  UNL1       -0.1328
     23 F           4.6142   -3.5388   18.9008 F       1  UNL1       -0.1328
     24 C           8.6635   -6.1222   27.7272 C.3     1  UNL1        0.0521
     25 C           7.9940   -5.4642   28.8972 C.ar    1  UNL1        0.0594
     26 C           7.5324   -4.0408   28.7940 C.ar    1  UNL1        0.0160
     27 C           6.8630   -3.3827   29.9640 C.ar    1  UNL1        0.0162
     28 C           6.4014   -1.9592   29.8608 C.ar    1  UNL1        0.0516
     29 C           5.7319   -1.3012   31.0307 C.ar    1  UNL1        0.0147
     30 C           5.5241   -2.0667   32.3039 C.ar    1  UNL1        0.0013
     31 C           5.9856   -3.4901   32.4071 C.ar    1  UNL1        0.0016
     32 C           6.6551   -4.1482   31.2371 C.ar    1  UNL1        0.0204
     33 C           7.1167   -5.5716   31.3402 C.ar    1  UNL1        0.0984
     34 N           7.7861   -6.2296   30.1703 N.ar    1  UNL1       -0.2481
@<TRIPOS>BOND
     1    24    25    1
     2    25    26   ar
     3    26    27   ar
     4    27    28   ar
     5    28     1    1
     6     1     2   am
     7     2     3    2
     8     2     4   am
     9     7     4    1
    10     7     8    1
    11     8     9    1
    12     9    10    1
    13     9    11    1
    14     9    12    1
    15    12    13    1
    16    13    14   ar
    17    14    15   ar
    18    15    19    1
    19    19    20    1
    20    20    21    1
    21    20    22    1
    22    20    23    1
    23    15    16   ar
    24    16    17   ar
    25    17    18   ar
    26    28    29   ar
    27    29    30   ar
    28    30    31   ar
    29    31    32   ar
    30    32    33   ar
    31    33    34   ar
    32    34    25   ar
    33    32    27   ar
    34    18     7    1
    35    18    13   ar
    36     1     5    1
    37     4     6    1
@<TRIPOS>MOLECULE
*****
 34 37 0 0 0
SMALL
GASTEIGER

@<TRIPOS>ATOM
      1 N           6.8800   -2.2178   21.8238 N.am    1  UNL1       -0.2683
      2 C           6.8076   -3.2832   22.8773 C.2     1  UNL1        0.3047
      3 O           5.7551   -4.3488   22.7953 O.2     1  UNL1       -0.2525
      4 N           7.7877   -3.2829   24.0128 N.am    1  UNL1       -0.2863
      5 H           7.5707   -1.5184   21.8776 H       1  UNL1        0.1564
      6 H           8.4785   -2.5835   24.0666 H       1  UNL1        0.1512
      7 C           7.7153   -4.3482   25.0662 C.3     1  UNL1        0.1019
      8 C           8.0360   -5.7713   24.7170 C.3     1  UNL1        0.0642
      9 C           7.9636   -6.8367   25.7706 C.3     1  UNL1        0.1352
     10 C           8.0366   -8.1894   26.4145 C.3     1  UNL1        0.0437
     11 C           8.3821   -7.6643   24.5916 C.3     1  UNL1        0.0437
     12 O           7.5705   -6.4789   27.1732 O.3     1  UNL1       -0.4827
     13 C           7.2498   -5.0558   27.5224 C.ar    1  UNL1        0.1387
     14 C           6.8567   -4.6980   28.9250 C.ar    1  UNL1        0.0738
     15 C           6.5360   -3.2749   29.2742 C.ar    1  UNL1        0.1498
     16 C           6.6084   -2.2096   28.2208 C.ar    1  UNL1        0.0371
     17 C           7.0015   -2.5674   26.8181 C.ar    1  UNL1        0.0034
     18 C           7.3222   -3.9905   26.4689 C.ar    1  UNL1        0.0298
     19 O           6.1429   -2.9171   30.6769 O.3     1  UNL1       -0.4044
     20 C           7.1734   -2.9136   31.7669 C.3     1  UNL1        0.5753
     21 F           8.2040   -2.9100   32.8568 F       1  UNL1       -0.1328
     22 F           7.7673   -1.6576   31.2014 F       1  UNL1       -0.1328
     23 F           6.5796   -4.1696   32.3324 F       1  UNL1       -0.1328
     24 C           2.4104    0.1808   23.6998 C.3     1  UNL1        0.0521
     25 C           2.7927   -0.4190   22.3792 C.ar    1  UNL1        0.0594
     26 C           4.1551   -1.0186   22.1941 C.ar    1  UNL1        0.0160
     27 C           4.5374   -1.6185   20.8734 C.ar    1  UNL1        0.0162
     28 C           5.8998   -2.2181   20.6883 C.ar    1  UNL1        0.0516
     29 C           6.2821   -2.8180   19.3677 C.ar    1  UNL1        0.0147
     30 C           5.3019   -2.8182   18.2322 C.ar    1  UNL1        0.0013
     31 C           3.9395   -2.2186   18.4174 C.ar    1  UNL1        0.0016
     32 C           3.5572   -1.6188   19.7380 C.ar    1  UNL1        0.0204
     33 C           2.1948   -1.0192   19.9231 C.ar    1  UNL1        0.0984
     34 N           1.8126   -0.4193   21.2438 N.ar    1  UNL1       -0.2481
@<TRIPOS>BOND
     1    24    25    1
     2    25    26   ar
     3    26    27   ar
     4    27    28   ar
     5    28     1    1
     6     1     2   am
     7     2     3    2
     8     2     4   am
     9     7     4    1
    10     7     8    1
    11     8     9    1
    12     9    10    1
    13     9    11    1
    14     9    12    1
    15    12    13    1
    16    13    14   ar
    17    14    15   ar
    18    15    19    1
    19    19    20    1
    20    20    21    1
    21    20    22    1
    22    20    23    1
    23    15    16   ar
    24    16    17   ar
    25    17    18   ar
    26    28    29   ar
    27    29    30   ar
    28    30    31   ar
    29    31    32   ar
    30    32    33   ar
    31    33    34   ar
    32    34    25   ar
    33    32    27   ar
    34    18     7    1
    35    18    13   ar
    36     1     5    1
    37     4     6    1
@<TRIPOS>MOLECULE
*****
 34 37 0 0 0
SMALL
GASTEIGER

@<TRIPOS>ATOM
      1 N           4.2191    0.7768   27.4214 N.am    1  UNL1       -0.2683
      2 C           4.4913   -0.5376   26.7516 C.2     1  UNL1        0.3047
      3 O           3.5346   -1.6799   26.9248 O.2     1  UNL1       -0.2525
      4 N           5.7200   -0.7096   25.9087 N.am    1  UNL1       -0.2863
      5 H           4.8470    1.5265   27.3077 H       1  UNL1        0.1564
      6 H           6.3479    0.0401   25.7951 H       1  UNL1        0.1512
      7 C           5.9921   -2.0239   25.2390 C.3     1  UNL1        0.1019
      8 C           6.8463   -3.0508   25.9216 C.3     1  UNL1        0.0642
      9 C           7.1184   -4.3652   25.2518 C.3     1  UNL1        0.1352
     10 C           7.6577   -5.7462   25.0243 C.3     1  UNL1        0.0437
     11 C           7.8877   -4.5575   26.5251 C.3     1  UNL1        0.0437
     12 O           6.5363   -4.6525   23.8995 O.3     1  UNL1       -0.4827
     13 C           5.6822   -3.6256   23.2170 C.ar    1  UNL1        0.1387
     14 C           5.1001   -3.9130   21.8648 C.ar    1  UNL1        0.0738
     15 C           4.2460   -2.8860   21.1822 C.ar    1  UNL1        0.1498
     16 C           3.9739   -1.5717   21.8519 C.ar    1  UNL1        0.0371
     17 C           4.5560   -1.2844   23.2042 C.ar    1  UNL1        0.0034
     18 C           5.4101   -2.3113   23.8867 C.ar    1  UNL1        0.0298
     19 O           3.6640   -3.1734   19.8299 O.3     1  UNL1       -0.4044
     20 C           4.1625   -4.3414   19.0316 C.3     1  UNL1        0.5753
     21 F           4.6610   -5.5094   18.2333 F       1  UNL1       -0.1328
     22 F           3.1077   -5.2123   19.6471 F       1  UNL1       -0.1328
     23 F           5.2173   -3.4705   18.4162 F       1  UNL1       -0.1328
     24 C           0.1759    1.8185   23.9838 C.3     1  UNL1        0.0521
     25 C           0.2651    1.6871   25.4754 C.ar    1  UNL1        0.0594
     26 C           1.5831    1.3836   26.1241 C.ar    1  UNL1        0.0160
     27 C           1.6723    1.2522   27.6156 C.ar    1  UNL1        0.0162
     28 C           2.9904    0.9488   28.2643 C.ar    1  UNL1        0.0516
     29 C           3.0796    0.8173   29.7559 C.ar    1  UNL1        0.0147
     30 C           1.8507    0.9894   30.5988 C.ar    1  UNL1        0.0013
     31 C           0.5327    1.2928   29.9501 C.ar    1  UNL1        0.0016
     32 C           0.4435    1.4242   28.4585 C.ar    1  UNL1        0.0204
     33 C          -0.8744    1.7277   27.8098 C.ar    1  UNL1        0.0984
     34 N          -0.9636    1.8591   26.3183 N.ar    1  UNL1       -0.2481
@<TRIPOS>BOND
     1    24    25    1
     2    25    26   ar
     3    26    27   ar
     4    27    28   ar
     5    28     1    1
     6     1     2   am
     7     2     3    2
     8     2     4   am
     9     7     4    1
    10     7     8    1
    11     8     9    1
    12     9    10    1
    13     9    11    1
    14     9    12    1
    15    12    13    1
    16    13    14   ar
    17    14    15   ar
    18    15    19    1
    19    19    20    1
    20    20    21    1
    21    20    22    1
    22    20    23    1
    23    15    16   ar
    24    16    17   ar
    25    17    18   ar
    26    28    29   ar
    27    29    30   ar
    28    30    31   ar
    29    31    32   ar
    30    32    33   ar
    31    33    34   ar
    32    34    25   ar
    33    32    27   ar
    34    18     7    1
    35    18    13   ar
    36     1     5    1
    37     4     6    1
@<TRIPOS>MOLECULE
*****
 34 37 0 0 0
SMALL
GASTEIGER

@<TRIPOS>ATOM
      1 N           3.4211    1.5926   20.5197 N.am    1  UNL1       -0.2683
      2 C           2.0910    1.7590   21.1930 C.2     1  UNL1        0.3047
      3 O           1.0037    0.7511   20.9651 O.2     1  UNL1       -0.2525
      4 N           1.8482    2.9333   22.0940 N.am    1  UNL1       -0.2863
      5 H           4.1347    2.2541   20.6693 H       1  UNL1        0.1564
      6 H           2.5618    3.5949   22.2436 H       1  UNL1        0.1512
      7 C           0.5181    3.0998   22.7672 C.3     1  UNL1        0.1019
      8 C          -0.6333    3.6989   22.0153 C.3     1  UNL1        0.0642
      9 C          -1.9634    3.8653   22.6886 C.3     1  UNL1        0.1352
     10 C          -3.4053    4.2254   22.8912 C.3     1  UNL1        0.0437
     11 C          -2.2855    4.4231   21.3339 C.3     1  UNL1        0.0437
     12 O          -2.1420    3.4326   24.1136 O.3     1  UNL1       -0.4827
     13 C          -0.9906    2.8334   24.8655 C.ar    1  UNL1        0.1387
     14 C          -1.1693    2.4007   26.2905 C.ar    1  UNL1        0.0738
     15 C          -0.0179    1.8016   27.0424 C.ar    1  UNL1        0.1498
     16 C           1.3122    1.6352   26.3693 C.ar    1  UNL1        0.0371
     17 C           1.4908    2.0679   24.9442 C.ar    1  UNL1        0.0034
     18 C           0.3394    2.6670   24.1923 C.ar    1  UNL1        0.0298
     19 O          -0.1966    1.3689   28.4675 O.3     1  UNL1       -0.4044
     20 C          -0.8127    0.0364   28.7751 C.3     1  UNL1        0.5753
     21 F          -1.4289   -1.2963   29.0827 F       1  UNL1       -0.1328
     22 F          -2.1636    0.6820   28.8661 F       1  UNL1       -0.1328
     23 F           0.5382   -0.6092   28.6841 F       1  UNL1       -0.1328
     24 C           4.6874   -2.5481   23.7603 C.3     1  UNL1        0.0521
     25 C           4.5529   -2.3937   22.2744 C.ar    1  UNL1        0.0594
     26 C           4.1756   -1.0650   21.6895 C.ar    1  UNL1        0.0160
     27 C           4.0411   -0.9106   20.2035 C.ar    1  UNL1        0.0162
     28 C           3.6639    0.4182   19.6187 C.ar    1  UNL1        0.0516
     29 C           3.5294    0.5726   18.1327 C.ar    1  UNL1        0.0147
     30 C           3.7722   -0.6018   17.2316 C.ar    1  UNL1        0.0013
     31 C           4.1494   -1.9305   17.8165 C.ar    1  UNL1        0.0016
     32 C           4.2839   -2.0849   19.3024 C.ar    1  UNL1        0.0204
     33 C           4.6612   -3.4136   19.8873 C.ar    1  UNL1        0.0984
     34 N           4.7956   -3.5680   21.3733 N.ar    1  UNL1       -0.2481
@<TRIPOS>BOND
     1    24    25    1
     2    25    26   ar
     3    26    27   ar
     4    27    28   ar
     5    28     1    1
     6     1     2   am
     7     2     3    2
     8     2     4   am
     9     7     4    1
    10     7     8    1
    11     8     9    1
    12     9    10    1
    13     9    11    1
    14     9    12    1
    15    12    13    1
    16    13    14   ar
    17    14    15   ar
    18    15    19    1
    19    19    20    1
    20    20    21    1
    21    20    22    1
    22    20    23    1
    23    15    16   ar
    24    16    17   ar
    25    17    18   ar
    26    28    29   ar
    27    29    30   ar
    28    30    31   ar
    29    31    32   ar
    30    32    33   ar
    31    33    34   ar
    32    34    25   ar
    33    32    27   ar
    34    18     7    1
    35    18    13   ar
    36     1     5    1
    37     4     6    1
@<TRIPOS>MOLECULE
*****
 34 37 0 0 0
SMALL
GASTEIGER

@<TRIPOS>ATOM
      1 N           5.5626   -2.1519   23.1873 N.am    1  UNL1       -0.2683
      2 C           6.4926   -3.0818   23.9088 C.2     1  UNL1        0.3047
      3 O           7.9320   -3.1720   23.4965 O.2     1  UNL1       -0.2525
      4 N           5.9832   -3.9215   25.0426 N.am    1  UNL1       -0.2863
      5 H           4.6179   -2.0927   23.4580 H       1  UNL1        0.1564
      6 H           5.0385   -3.8623   25.3132 H       1  UNL1        0.1512
      7 C           6.9132   -4.8513   25.7640 C.3     1  UNL1        0.1019
      8 C           7.5745   -5.9751   25.0225 C.3     1  UNL1        0.0642
      9 C           8.5045   -6.9049   25.7440 C.3     1  UNL1        0.1352
     10 C           9.4559   -8.0389   25.9865 C.3     1  UNL1        0.0437
     11 C           8.5662   -7.4927   24.3653 C.3     1  UNL1        0.0437
     12 O           8.7732   -6.7110   27.2069 O.3     1  UNL1       -0.4827
     13 C           8.1119   -5.5872   27.9484 C.ar    1  UNL1        0.1387
     14 C           8.3806   -5.3932   29.4113 C.ar    1  UNL1        0.0738
     15 C           7.7193   -4.2694   30.1528 C.ar    1  UNL1        0.1498
     16 C           6.7894   -3.3396   29.4313 C.ar    1  UNL1        0.0371
     17 C           6.5206   -3.5336   27.9684 C.ar    1  UNL1        0.0034
     18 C           7.1819   -4.6574   27.2270 C.ar    1  UNL1        0.0298
     19 O           7.9881   -4.0755   31.6157 O.3     1  UNL1       -0.4044
     20 C           7.1171   -3.1596   32.4233 C.3     1  UNL1        0.5753
     21 F           6.2460   -2.2435   33.2310 F       1  UNL1       -0.1328
     22 F           8.0733   -2.0310   32.1746 F       1  UNL1       -0.1328
     23 F           6.1608   -4.2881   32.6720 F       1  UNL1       -0.1328
     24 C           4.5495   -4.9530   18.6732 C.3     1  UNL1        0.0521
     25 C           5.1849   -3.6229   18.9514 C.ar    1  UNL1        0.0594
     26 C           5.3108   -3.1326   20.3633 C.ar    1  UNL1        0.0160
     27 C           5.9461   -1.8026   20.6416 C.ar    1  UNL1        0.0162
     28 C           6.0720   -1.3122   22.0536 C.ar    1  UNL1        0.0516
     29 C           6.7073    0.0178   22.3318 C.ar    1  UNL1        0.0147
     30 C           7.2167    0.8575   21.1980 C.ar    1  UNL1        0.0013
     31 C           7.0908    0.3671   19.7860 C.ar    1  UNL1        0.0016
     32 C           6.4555   -0.9629   19.5078 C.ar    1  UNL1        0.0204
     33 C           6.3296   -1.4532   18.0959 C.ar    1  UNL1        0.0984
     34 N           5.6943   -2.7833   17.8177 N.ar    1  UNL1       -0.2481
@<TRIPOS>BOND
     1    24    25    1
     2    25    26   ar
     3    26    27   ar
     4    27    28   ar
     5    28     1    1
     6     1     2   am
     7     2     3    2
     8     2     4   am
     9     7     4    1
    10     7     8    1
    11     8     9    1
    12     9    10    1
    13     9    11    1
    14     9    12    1
    15    12    13    1
    16    13    14   ar
    17    14    15   ar
    18    15    19    1
    19    19    20    1
    20    20    21    1
    21    20    22    1
    22    20    23    1
    23    15    16   ar
    24    16    17   ar
    25    17    18   ar
    26    28    29   ar
    27    29    30   ar
    28    30    31   ar
    29    31    32   ar
    30    32    33   ar
    31    33    34   ar
    32    34    25   ar
    33    32    27   ar
    34    18     7    1
    35    18    13   ar
    36     1     5    1
    37     4     6    1
