@<TRIPOS>MOLECULE
*****
 30 33 0 0 0
SMALL
GASTEIGER

@<TRIPOS>ATOM
      1 C          -6.6282  -19.8522   20.6403 C.3     1  UNL1        0.0071
      2 C          -7.5843  -19.5235   19.5322 C.3     1  UNL1        0.0177
      3 C          -9.0596  -19.4867   19.8009 C.3     1  UNL1        0.0721
      4 N          -9.5788  -19.7785   21.1775 N.3     1  UNL1       -0.2724
      5 C          -8.6226  -20.1071   22.2856 C.3     1  UNL1        0.0721
      6 C          -7.1474  -20.1440   22.0170 C.3     1  UNL1        0.0177
      7 C          -5.1529  -19.8891   20.3716 C.3     1  UNL1        0.0270
      8 C          -3.6145  -17.6810   23.2884 C.ar    1  UNL1        0.1383
      9 C          -2.3877  -17.1390   22.6168 C.ar    1  UNL1        0.0374
     10 C          -2.0825  -17.5138   21.1968 C.ar    1  UNL1        0.0095
     11 C          -3.0043  -18.4305   20.4484 C.ar    1  UNL1        0.0308
     12 BR         -2.6991  -18.8052   19.0284 Br      1  UNL1       -0.0493
     13 C          -4.2311  -18.9724   21.1200 C.ar    1  UNL1       -0.0130
     14 C          -4.5363  -18.5976   22.5400 C.ar    1  UNL1        0.0331
     15 O          -3.9197  -17.3062   24.7085 O.3     1  UNL1       -0.4755
     16 C          -5.2597  -15.2388   23.8839 C.3     1  UNL1        0.0512
     17 C          -4.8065  -16.1322   25.0003 C.3     1  UNL1        0.2055
     18 C         -11.0540  -19.7416   21.4462 C.3     1  UNL1        0.0768
     19 C         -11.6371  -18.6402   22.2810 C.3     1  UNL1        0.0446
     20 C         -10.7370  -17.7630   23.0999 C.ar    1  UNL1       -0.0070
     21 C         -10.4257  -18.1269   24.5214 C.ar    1  UNL1        0.0367
     22 C          -9.5256  -17.2497   25.3402 C.ar    1  UNL1        0.1721
     23 C          -8.9369  -16.0086   24.7375 C.ar    1  UNL1        0.1732
     24 C          -9.2482  -15.6448   23.3160 C.ar    1  UNL1        0.0511
     25 C         -10.1483  -16.5220   22.4972 C.ar    1  UNL1        0.0570
     26 CL        -10.4596  -16.1581   21.0756 Cl      1  UNL1       -0.0825
     27 O          -8.0369  -15.1315   25.5563 O.3     1  UNL1       -0.4683
     28 C          -7.7256  -15.4953   26.9778 C.3     1  UNL1        0.2526
     29 C          -8.3143  -16.7364   27.5805 C.3     1  UNL1        0.2526
     30 O          -9.2143  -17.6135   26.7617 O.3     1  UNL1       -0.4684
@<TRIPOS>BOND
     1    16    17    1
     2    17    15    1
     3    15     8    1
     4     8     9   ar
     5     9    10   ar
     6    10    11   ar
     7    11    12    1
     8    11    13   ar
     9    13     7    1
    10     7     1    1
    11     1     2    1
    12     2     3    1
    13     3     4    1
    14     4    18    1
    15    18    19    1
    16    19    20    1
    17    20    21   ar
    18    21    22   ar
    19    22    23   ar
    20    23    24   ar
    21    24    25   ar
    22    25    26    1
    23    23    27    1
    24    27    28    1
    25    28    29    1
    26    29    30    1
    27     4     5    1
    28     5     6    1
    29    13    14   ar
    30    14     8   ar
    31     6     1    1
    32    25    20   ar
    33    30    22    1
@<TRIPOS>MOLECULE
*****
 30 33 0 0 0
SMALL
GASTEIGER

@<TRIPOS>ATOM
      1 C          -3.6605  -16.9714   23.8091 C.3     1  UNL1        0.0071
      2 C          -4.5375  -15.9511   23.1457 C.3     1  UNL1        0.0177
      3 C          -5.6946  -15.3572   23.8931 C.3     1  UNL1        0.0721
      4 N          -5.9747  -15.7835   25.3036 N.3     1  UNL1       -0.2724
      5 C          -5.0977  -16.8038   25.9669 C.3     1  UNL1        0.0721
      6 C          -3.9406  -17.3977   25.2197 C.3     1  UNL1        0.0177
      7 C          -2.5034  -17.5653   23.0618 C.3     1  UNL1        0.0270
      8 C          -3.9521  -19.9664   20.2536 C.ar    1  UNL1        0.1383
      9 C          -3.1697  -19.5091   19.0584 C.ar    1  UNL1        0.0374
     10 C          -2.1652  -18.4038   19.1976 C.ar    1  UNL1        0.0095
     11 C          -1.9431  -17.7559   20.5321 C.ar    1  UNL1        0.0308
     12 BR         -0.9386  -16.6506   20.6713 Br      1  UNL1       -0.0493
     13 C          -2.7255  -18.2132   21.7273 C.ar    1  UNL1       -0.0130
     14 C          -3.7300  -19.3184   21.5881 C.ar    1  UNL1        0.0331
     15 O          -4.9567  -21.0716   20.1145 O.3     1  UNL1       -0.4755
     16 C          -7.0285  -19.5061   20.0337 C.3     1  UNL1        0.0512
     17 C          -6.4026  -20.8137   20.4190 C.3     1  UNL1        0.2055
     18 C          -7.1318  -15.1896   26.0509 C.3     1  UNL1        0.0768
     19 C          -8.4822  -15.1110   25.4027 C.3     1  UNL1        0.0446
     20 C          -9.0228  -16.2906   24.6501 C.ar    1  UNL1       -0.0070
     21 C          -9.2161  -16.2081   23.1649 C.ar    1  UNL1        0.0367
     22 C          -9.7567  -17.3877   22.4123 C.ar    1  UNL1        0.1721
     23 C         -10.1039  -18.6497   23.1449 C.ar    1  UNL1        0.1732
     24 C          -9.9105  -18.7322   24.6301 C.ar    1  UNL1        0.0511
     25 C          -9.3699  -17.5526   25.3827 C.ar    1  UNL1        0.0570
     26 CL         -9.1766  -17.6350   26.8679 Cl      1  UNL1       -0.0825
     27 O         -10.6444  -19.8293   22.3923 O.3     1  UNL1       -0.4683
     28 C         -10.8378  -19.7468   20.9072 C.3     1  UNL1        0.2526
     29 C         -10.4906  -18.4848   20.1745 C.3     1  UNL1        0.2526
     30 O          -9.9501  -17.3052   20.9271 O.3     1  UNL1       -0.4684
@<TRIPOS>BOND
     1    16    17    1
     2    17    15    1
     3    15     8    1
     4     8     9   ar
     5     9    10   ar
     6    10    11   ar
     7    11    12    1
     8    11    13   ar
     9    13     7    1
    10     7     1    1
    11     1     2    1
    12     2     3    1
    13     3     4    1
    14     4    18    1
    15    18    19    1
    16    19    20    1
    17    20    21   ar
    18    21    22   ar
    19    22    23   ar
    20    23    24   ar
    21    24    25   ar
    22    25    26    1
    23    23    27    1
    24    27    28    1
    25    28    29    1
    26    29    30    1
    27     4     5    1
    28     5     6    1
    29    13    14   ar
    30    14     8   ar
    31     6     1    1
    32    25    20   ar
    33    30    22    1
@<TRIPOS>MOLECULE
*****
 30 33 0 0 0
SMALL
GASTEIGER

@<TRIPOS>ATOM
      1 C          -9.7191  -16.7743   23.5952 C.3     1  UNL1        0.0071
      2 C         -10.0863  -16.2138   22.2532 C.3     1  UNL1        0.0177
      3 C         -10.5182  -17.1329   21.1492 C.3     1  UNL1        0.0721
      4 N         -10.5829  -18.6124   21.3872 N.3     1  UNL1       -0.2724
      5 C         -10.2157  -19.1730   22.7292 C.3     1  UNL1        0.0721
      6 C          -9.7838  -18.2540   23.8332 C.3     1  UNL1        0.0177
      7 C          -9.2872  -15.8553   24.6992 C.3     1  UNL1        0.0270
      8 C          -5.3913  -15.3534   24.1337 C.ar    1  UNL1        0.1383
      9 C          -4.9083  -15.2638   25.5509 C.ar    1  UNL1        0.0374
     10 C          -5.8850  -15.3714   26.6843 C.ar    1  UNL1        0.0095
     11 C          -7.3446  -15.5686   26.4004 C.ar    1  UNL1        0.0308
     12 BR         -8.3213  -15.6762   27.5338 Br      1  UNL1       -0.0493
     13 C          -7.8276  -15.6582   24.9831 C.ar    1  UNL1       -0.0130
     14 C          -6.8510  -15.5506   23.8498 C.ar    1  UNL1        0.0331
     15 O          -4.4147  -15.2458   23.0002 O.3     1  UNL1       -0.4755
     16 C          -2.1773  -16.0077   21.9215 C.3     1  UNL1        0.0512
     17 C          -3.3294  -16.2696   22.8456 C.3     1  UNL1        0.2055
     18 C         -11.0147  -19.5314   20.2832 C.3     1  UNL1        0.0768
     19 C         -10.1210  -19.7530   19.0990 C.3     1  UNL1        0.0446
     20 C          -8.6743  -20.0922   19.3043 C.ar    1  UNL1       -0.0070
     21 C          -7.8102  -19.2087   20.1544 C.ar    1  UNL1        0.0367
     22 C          -6.3635  -19.5479   20.3597 C.ar    1  UNL1        0.1721
     23 C          -5.7810  -20.7705   19.7148 C.ar    1  UNL1        0.1732
     24 C          -6.6452  -21.6540   18.8646 C.ar    1  UNL1        0.0511
     25 C          -8.0918  -21.3148   18.6594 C.ar    1  UNL1        0.0570
     26 CL         -8.9561  -22.1983   17.8092 Cl      1  UNL1       -0.0825
     27 O          -4.3344  -21.1097   19.9200 O.3     1  UNL1       -0.4683
     28 C          -3.4702  -20.2263   20.7701 C.3     1  UNL1        0.2526
     29 C          -4.0527  -19.0036   21.4150 C.3     1  UNL1        0.2526
     30 O          -5.4993  -18.6645   21.2098 O.3     1  UNL1       -0.4684
@<TRIPOS>BOND
     1    16    17    1
     2    17    15    1
     3    15     8    1
     4     8     9   ar
     5     9    10   ar
     6    10    11   ar
     7    11    12    1
     8    11    13   ar
     9    13     7    1
    10     7     1    1
    11     1     2    1
    12     2     3    1
    13     3     4    1
    14     4    18    1
    15    18    19    1
    16    19    20    1
    17    20    21   ar
    18    21    22   ar
    19    22    23   ar
    20    23    24   ar
    21    24    25   ar
    22    25    26    1
    23    23    27    1
    24    27    28    1
    25    28    29    1
    26    29    30    1
    27     4     5    1
    28     5     6    1
    29    13    14   ar
    30    14     8   ar
    31     6     1    1
    32    25    20   ar
    33    30    22    1
@<TRIPOS>MOLECULE
*****
 30 33 0 0 0
SMALL
GASTEIGER

@<TRIPOS>ATOM
      1 C          -5.7676  -19.8610   21.3293 C.3     1  UNL1        0.0071
      2 C          -6.6769  -20.3047   22.4367 C.3     1  UNL1        0.0177
      3 C          -8.1453  -20.0066   22.3662 C.3     1  UNL1        0.0721
      4 N          -8.7044  -19.2648   21.1885 N.3     1  UNL1       -0.2724
      5 C          -7.7950  -18.8210   20.0811 C.3     1  UNL1        0.0721
      6 C          -6.3267  -19.1191   20.1516 C.3     1  UNL1        0.0177
      7 C          -4.2992  -20.1590   21.3998 C.3     1  UNL1        0.0270
      8 C          -1.5284  -17.9792   19.5774 C.ar    1  UNL1        0.1383
      9 C          -1.3008  -16.9013   20.5953 C.ar    1  UNL1        0.0374
     10 C          -2.0727  -16.9093   21.8814 C.ar    1  UNL1        0.0095
     11 C          -3.0722  -17.9952   22.1495 C.ar    1  UNL1        0.0308
     12 BR         -3.8441  -18.0031   23.4357 Br      1  UNL1       -0.0493
     13 C          -3.2997  -19.0731   21.1316 C.ar    1  UNL1       -0.0130
     14 C          -2.5279  -19.0651   19.8455 C.ar    1  UNL1        0.0331
     15 O          -0.7565  -17.9713   18.2912 O.3     1  UNL1       -0.4755
     16 C          -2.7163  -16.8542   17.0023 C.3     1  UNL1        0.0512
     17 C          -1.4548  -17.6657   16.9993 C.3     1  UNL1        0.2055
     18 C         -10.1727  -18.9667   21.1181 C.3     1  UNL1        0.0768
     19 C         -10.7797  -17.9620   22.0519 C.3     1  UNL1        0.0446
     20 C         -10.0767  -17.6032   23.3276 C.ar    1  UNL1       -0.0070
     21 C          -8.9637  -16.5978   23.3134 C.ar    1  UNL1        0.0367
     22 C          -8.2607  -16.2391   24.5890 C.ar    1  UNL1        0.1721
     23 C          -8.6708  -16.8858   25.8788 C.ar    1  UNL1        0.1732
     24 C          -9.7839  -17.8913   25.8929 C.ar    1  UNL1        0.0511
     25 C         -10.4868  -18.2500   24.6174 C.ar    1  UNL1        0.0570
     26 CL        -11.5999  -19.2554   24.6315 Cl      1  UNL1       -0.0825
     27 O          -7.9679  -16.5271   27.1544 O.3     1  UNL1       -0.4683
     28 C          -6.8549  -15.5217   27.1402 C.3     1  UNL1        0.2526
     29 C          -6.4448  -14.8749   25.8504 C.3     1  UNL1        0.2526
     30 O          -7.1477  -15.2336   24.5748 O.3     1  UNL1       -0.4684
@<TRIPOS>BOND
     1    16    17    1
     2    17    15    1
     3    15     8    1
     4     8     9   ar
     5     9    10   ar
     6    10    11   ar
     7    11    12    1
     8    11    13   ar
     9    13     7    1
    10     7     1    1
    11     1     2    1
    12     2     3    1
    13     3     4    1
    14     4    18    1
    15    18    19    1
    16    19    20    1
    17    20    21   ar
    18    21    22   ar
    19    22    23   ar
    20    23    24   ar
    21    24    25   ar
    22    25    26    1
    23    23    27    1
    24    27    28    1
    25    28    29    1
    26    29    30    1
    27     4     5    1
    28     5     6    1
    29    13    14   ar
    30    14     8   ar
    31     6     1    1
    32    25    20   ar
    33    30    22    1
@<TRIPOS>MOLECULE
*****
 30 33 0 0 0
SMALL
GASTEIGER

@<TRIPOS>ATOM
      1 C         -11.4984   -5.3603   18.7530 C.3     1  UNL1        0.0071
      2 C         -12.7979   -5.3374   19.5019 C.3     1  UNL1        0.0177
      3 C         -13.7769   -6.4623   19.3397 C.3     1  UNL1        0.0721
      4 N         -13.4564   -7.6100   18.4286 N.3     1  UNL1       -0.2724
      5 C         -12.1569   -7.6329   17.6798 C.3     1  UNL1        0.0721
      6 C         -11.1779   -6.5081   17.8419 C.3     1  UNL1        0.0177
      7 C         -10.5194   -4.2355   18.9151 C.3     1  UNL1        0.0270
      8 C         -11.8063   -0.5854   18.0374 C.ar    1  UNL1        0.1383
      9 C         -11.1514   -0.3664   16.7059 C.ar    1  UNL1        0.0374
     10 C         -10.2858   -1.4372   16.1107 C.ar    1  UNL1        0.0095
     11 C         -10.0752   -2.7269   16.8471 C.ar    1  UNL1        0.0308
     12 BR         -9.2095   -3.7976   16.2519 Br      1  UNL1       -0.0493
     13 C         -10.7301   -2.9458   18.1787 C.ar    1  UNL1       -0.0130
     14 C         -11.5957   -1.8751   18.7739 C.ar    1  UNL1        0.0331
     15 O         -12.6720    0.4854   18.6327 O.3     1  UNL1       -0.4755
     16 C         -15.0562   -0.4828   18.9908 C.3     1  UNL1        0.0512
     17 C         -14.1424    0.5113   18.3375 C.3     1  UNL1        0.2055
     18 C         -14.4354   -8.7349   18.2665 C.3     1  UNL1        0.0768
     19 C         -15.7179   -8.5114   17.5213 C.3     1  UNL1        0.0446
     20 C         -16.8154   -7.7001   18.1439 C.ar    1  UNL1       -0.0070
     21 C         -17.0630   -6.2944   17.6827 C.ar    1  UNL1        0.0367
     22 C         -18.1605   -5.4832   18.3052 C.ar    1  UNL1        0.1721
     23 C         -19.0103   -6.0777   19.3889 C.ar    1  UNL1        0.1732
     24 C         -18.7627   -7.4834   19.8500 C.ar    1  UNL1        0.0511
     25 C         -17.6652   -8.2946   19.2275 C.ar    1  UNL1        0.0570
     26 CL        -17.4175   -9.7004   19.6887 Cl      1  UNL1       -0.0825
     27 O         -20.1078   -5.2665   20.0114 O.3     1  UNL1       -0.4683
     28 C         -20.3554   -3.8609   19.5502 C.3     1  UNL1        0.2526
     29 C         -19.5056   -3.2664   18.4665 C.3     1  UNL1        0.2526
     30 O         -18.4081   -4.0775   17.8440 O.3     1  UNL1       -0.4684
@<TRIPOS>BOND
     1    16    17    1
     2    17    15    1
     3    15     8    1
     4     8     9   ar
     5     9    10   ar
     6    10    11   ar
     7    11    12    1
     8    11    13   ar
     9    13     7    1
    10     7     1    1
    11     1     2    1
    12     2     3    1
    13     3     4    1
    14     4    18    1
    15    18    19    1
    16    19    20    1
    17    20    21   ar
    18    21    22   ar
    19    22    23   ar
    20    23    24   ar
    21    24    25   ar
    22    25    26    1
    23    23    27    1
    24    27    28    1
    25    28    29    1
    26    29    30    1
    27     4     5    1
    28     5     6    1
    29    13    14   ar
    30    14     8   ar
    31     6     1    1
    32    25    20   ar
    33    30    22    1
@<TRIPOS>MOLECULE
*****
 30 33 0 0 0
SMALL
GASTEIGER

@<TRIPOS>ATOM
      1 C          -5.7919  -19.9261   21.5695 C.3     1  UNL1        0.0071
      2 C          -6.2678  -19.2695   20.3076 C.3     1  UNL1        0.0177
      3 C          -7.7375  -19.1126   20.0520 C.3     1  UNL1        0.0721
      4 N          -8.7313  -19.6123   21.0583 N.3     1  UNL1       -0.2724
      5 C          -8.2554  -20.2689   22.3202 C.3     1  UNL1        0.0721
      6 C          -6.7857  -20.4259   22.5758 C.3     1  UNL1        0.0177
      7 C          -4.3222  -20.0830   21.8251 C.3     1  UNL1        0.0270
      8 C          -1.6329  -17.9736   19.8082 C.ar    1  UNL1        0.1383
      9 C          -1.4782  -16.7806   20.7043 C.ar    1  UNL1        0.0374
     10 C          -2.2716  -16.6885   21.9739 C.ar    1  UNL1        0.0095
     11 C          -3.2196  -17.7893   22.3475 C.ar    1  UNL1        0.0308
     12 BR         -4.0129  -17.6972   23.6173 Br      1  UNL1       -0.0493
     13 C          -3.3742  -18.9822   21.4515 C.ar    1  UNL1       -0.0130
     14 C          -2.5809  -19.0744   20.1818 C.ar    1  UNL1        0.0331
     15 O          -0.8395  -18.0657   18.5385 O.3     1  UNL1       -0.4755
     16 C          -2.7812  -16.9298   17.2388 C.3     1  UNL1        0.0512
     17 C          -1.3937  -17.4990   17.2650 C.3     1  UNL1        0.2055
     18 C         -10.2010  -19.4554   20.8027 C.3     1  UNL1        0.0768
     19 C         -11.0393  -18.6268   21.7304 C.3     1  UNL1        0.0446
     20 C         -10.3812  -17.7226   22.7302 C.ar    1  UNL1       -0.0070
     21 C         -10.0948  -18.2194   24.1162 C.ar    1  UNL1        0.0367
     22 C          -9.4367  -17.3152   25.1160 C.ar    1  UNL1        0.1721
     23 C          -9.0651  -15.9142   24.7297 C.ar    1  UNL1        0.1732
     24 C          -9.3516  -15.4175   23.3435 C.ar    1  UNL1        0.0511
     25 C         -10.0096  -16.3216   22.3439 C.ar    1  UNL1        0.0570
     26 CL        -10.2961  -15.8249   20.9577 Cl      1  UNL1       -0.0825
     27 O          -8.4071  -15.0101   25.7293 O.3     1  UNL1       -0.4683
     28 C          -8.1206  -15.5068   27.1154 C.3     1  UNL1        0.2526
     29 C          -8.4922  -16.9078   27.5017 C.3     1  UNL1        0.2526
     30 O          -9.1503  -17.8120   26.5020 O.3     1  UNL1       -0.4684
@<TRIPOS>BOND
     1    16    17    1
     2    17    15    1
     3    15     8    1
     4     8     9   ar
     5     9    10   ar
     6    10    11   ar
     7    11    12    1
     8    11    13   ar
     9    13     7    1
    10     7     1    1
    11     1     2    1
    12     2     3    1
    13     3     4    1
    14     4    18    1
    15    18    19    1
    16    19    20    1
    17    20    21   ar
    18    21    22   ar
    19    22    23   ar
    20    23    24   ar
    21    24    25   ar
    22    25    26    1
    23    23    27    1
    24    27    28    1
    25    28    29    1
    26    29    30    1
    27     4     5    1
    28     5     6    1
    29    13    14   ar
    30    14     8   ar
    31     6     1    1
    32    25    20   ar
    33    30    22    1
@<TRIPOS>MOLECULE
*****
 30 33 0 0 0
SMALL
GASTEIGER

@<TRIPOS>ATOM
      1 C           4.3422   -3.0629   20.4965 C.3     1  UNL1        0.0071
      2 C           5.6798   -3.5724   20.0481 C.3     1  UNL1        0.0177
      3 C           6.7481   -3.8659   21.0595 C.3     1  UNL1        0.0721
      4 N           6.4787   -3.6498   22.5192 N.3     1  UNL1       -0.2724
      5 C           5.1410   -3.1403   22.9676 C.3     1  UNL1        0.0721
      6 C           4.0728   -2.8469   21.9563 C.3     1  UNL1        0.0177
      7 C           3.2739   -2.7695   19.4853 C.3     1  UNL1        0.0270
      8 C           1.0059    0.4463   19.9994 C.ar    1  UNL1        0.1383
      9 C           1.6656    1.4117   19.0599 C.ar    1  UNL1        0.0374
     10 C           2.8615    0.9833   18.2621 C.ar    1  UNL1        0.0095
     11 C           3.3975   -0.4105   18.4039 C.ar    1  UNL1        0.0308
     12 BR          4.5934   -0.8388   17.6061 Br      1  UNL1       -0.0493
     13 C           2.7378   -1.3758   19.3435 C.ar    1  UNL1       -0.0130
     14 C           1.5420   -0.9474   20.1412 C.ar    1  UNL1        0.0331
     15 O          -0.1900    0.8747   20.7973 O.3     1  UNL1       -0.4755
     16 C          -1.6742    3.0016   20.6452 C.3     1  UNL1        0.0512
     17 C          -0.4116    2.3281   21.0948 C.3     1  UNL1        0.2055
     18 C           7.5469   -3.9432   23.5304 C.3     1  UNL1        0.0768
     19 C           7.6848   -5.3255   24.0962 C.3     1  UNL1        0.0446
     20 C           7.6264   -5.5378   25.5800 C.ar    1  UNL1       -0.0070
     21 C           7.1636   -4.4295   26.4786 C.ar    1  UNL1        0.0367
     22 C           7.1053   -4.6419   27.9624 C.ar    1  UNL1        0.1721
     23 C           7.5096   -5.9625   28.5476 C.ar    1  UNL1        0.1732
     24 C           7.9724   -7.0708   27.6489 C.ar    1  UNL1        0.0511
     25 C           8.0307   -6.8585   26.1652 C.ar    1  UNL1        0.0570
     26 CL          8.4935   -7.9668   25.2665 Cl      1  UNL1       -0.0825
     27 O           7.4512   -6.1749   30.0313 O.3     1  UNL1       -0.4683
     28 C           6.9885   -5.0666   30.9299 C.3     1  UNL1        0.2526
     29 C           6.5841   -3.7459   30.3447 C.3     1  UNL1        0.2526
     30 O           6.6425   -3.5336   28.8610 O.3     1  UNL1       -0.4684
@<TRIPOS>BOND
     1    16    17    1
     2    17    15    1
     3    15     8    1
     4     8     9   ar
     5     9    10   ar
     6    10    11   ar
     7    11    12    1
     8    11    13   ar
     9    13     7    1
    10     7     1    1
    11     1     2    1
    12     2     3    1
    13     3     4    1
    14     4    18    1
    15    18    19    1
    16    19    20    1
    17    20    21   ar
    18    21    22   ar
    19    22    23   ar
    20    23    24   ar
    21    24    25   ar
    22    25    26    1
    23    23    27    1
    24    27    28    1
    25    28    29    1
    26    29    30    1
    27     4     5    1
    28     5     6    1
    29    13    14   ar
    30    14     8   ar
    31     6     1    1
    32    25    20   ar
    33    30    22    1
@<TRIPOS>MOLECULE
*****
 30 33 0 0 0
SMALL
GASTEIGER

@<TRIPOS>ATOM
      1 C           6.7829   -3.8861   22.5687 C.3     1  UNL1        0.0071
      2 C           5.4193   -3.4926   23.0542 C.3     1  UNL1        0.0177
      3 C           4.3296   -3.1927   22.0679 C.3     1  UNL1        0.0721
      4 N           4.6036   -3.2862   20.5961 N.3     1  UNL1       -0.2724
      5 C           5.9672   -3.6797   20.1106 C.3     1  UNL1        0.0721
      6 C           7.0568   -3.9797   21.0968 C.3     1  UNL1        0.0177
      7 C           7.8725   -4.1861   23.5549 C.3     1  UNL1        0.0270
      8 C           6.7371   -5.9463   26.9257 C.ar    1  UNL1        0.1383
      9 C           7.2505   -7.3384   26.7055 C.ar    1  UNL1        0.0374
     10 C           7.9713   -7.6797   25.4350 C.ar    1  UNL1        0.0095
     11 C           8.1786   -6.6289   24.3849 C.ar    1  UNL1        0.0308
     12 BR          8.8994   -6.9702   23.1144 Br      1  UNL1       -0.0493
     13 C           7.6652   -5.2368   24.6051 C.ar    1  UNL1       -0.0130
     14 C           6.9444   -4.8956   25.8755 C.ar    1  UNL1        0.0331
     15 O           6.0163   -5.6050   28.1961 O.3     1  UNL1       -0.4755
     16 C           8.1763   -4.8763   29.4425 C.3     1  UNL1        0.0512
     17 C           6.7855   -5.4371   29.4729 C.3     1  UNL1        0.2055
     18 C           3.5140   -2.9863   19.6099 C.3     1  UNL1        0.0768
     19 C           3.6946   -1.8889   18.6034 C.3     1  UNL1        0.0446
     20 C           3.0590   -0.5495   18.8319 C.ar    1  UNL1       -0.0070
     21 C           1.7908   -0.4469   19.6263 C.ar    1  UNL1        0.0367
     22 C           1.1552    0.8925   19.8548 C.ar    1  UNL1        0.1721
     23 C           1.7879    2.1292   19.2889 C.ar    1  UNL1        0.1732
     24 C           3.0561    2.0266   18.4945 C.ar    1  UNL1        0.0511
     25 C           3.6917    0.6872   18.2660 C.ar    1  UNL1        0.0570
     26 CL          4.9599    0.5846   17.4715 Cl      1  UNL1       -0.0825
     27 O           1.1524    3.4686   19.5174 O.3     1  UNL1       -0.4683
     28 C          -0.1158    3.5712   20.3118 C.3     1  UNL1        0.2526
     29 C          -0.7485    2.3345   20.8777 C.3     1  UNL1        0.2526
     30 O          -0.1129    0.9951   20.6492 O.3     1  UNL1       -0.4684
@<TRIPOS>BOND
     1    16    17    1
     2    17    15    1
     3    15     8    1
     4     8     9   ar
     5     9    10   ar
     6    10    11   ar
     7    11    12    1
     8    11    13   ar
     9    13     7    1
    10     7     1    1
    11     1     2    1
    12     2     3    1
    13     3     4    1
    14     4    18    1
    15    18    19    1
    16    19    20    1
    17    20    21   ar
    18    21    22   ar
    19    22    23   ar
    20    23    24   ar
    21    24    25   ar
    22    25    26    1
    23    23    27    1
    24    27    28    1
    25    28    29    1
    26    29    30    1
    27     4     5    1
    28     5     6    1
    29    13    14   ar
    30    14     8   ar
    31     6     1    1
    32    25    20   ar
    33    30    22    1
@<TRIPOS>MOLECULE
*****
 30 33 0 0 0
SMALL
GASTEIGER

@<TRIPOS>ATOM
      1 C           6.8891   -3.9490   22.4922 C.3     1  UNL1        0.0071
      2 C           5.4924   -3.6352   22.9405 C.3     1  UNL1        0.0177
      3 C           4.4385   -3.2951   21.9287 C.3     1  UNL1        0.0721
      4 N           4.7812   -3.2689   20.4686 N.3     1  UNL1       -0.2724
      5 C           6.1778   -3.5827   20.0203 C.3     1  UNL1        0.0721
      6 C           7.2317   -3.9227   21.0320 C.3     1  UNL1        0.0177
      7 C           7.9430   -4.2890   23.5039 C.3     1  UNL1        0.0270
      8 C           6.6610   -6.0225   26.8358 C.ar    1  UNL1        0.1383
      9 C           7.1365   -7.4293   26.6245 C.ar    1  UNL1        0.0374
     10 C           7.8808   -7.7894   25.3730 C.ar    1  UNL1        0.0095
     11 C           8.1496   -6.7426   24.3328 C.ar    1  UNL1        0.0308
     12 BR          8.8940   -7.1027   23.0812 Br      1  UNL1       -0.0493
     13 C           7.6741   -5.3358   24.5441 C.ar    1  UNL1       -0.0130
     14 C           6.9298   -4.9757   25.7956 C.ar    1  UNL1        0.0331
     15 O           5.9166   -5.6624   28.0873 O.3     1  UNL1       -0.4755
     16 C           7.6917   -5.9503   29.9624 C.3     1  UNL1        0.0512
     17 C           6.6586   -5.1124   29.2692 C.3     1  UNL1        0.2055
     18 C           3.7273   -2.9289   19.4569 C.3     1  UNL1        0.0768
     19 C           2.6779   -1.9074   19.7814 C.3     1  UNL1        0.0446
     20 C           2.8557   -0.4840   19.3426 C.ar    1  UNL1       -0.0070
     21 C           4.1434   -0.0503   18.7073 C.ar    1  UNL1        0.0367
     22 C           4.3211    1.3731   18.2685 C.ar    1  UNL1        0.1721
     23 C           3.2112    2.3627   18.4651 C.ar    1  UNL1        0.1732
     24 C           1.9234    1.9289   19.1005 C.ar    1  UNL1        0.0511
     25 C           1.7457    0.5056   19.5393 C.ar    1  UNL1        0.0570
     26 CL          0.4580    0.0718   20.1746 Cl      1  UNL1       -0.0825
     27 O           3.3889    3.7860   18.0264 O.3     1  UNL1       -0.4683
     28 C           4.6766    4.2197   17.3910 C.3     1  UNL1        0.2526
     29 C           5.7865    3.2301   17.1944 C.3     1  UNL1        0.2526
     30 O           5.6088    1.8068   17.6332 O.3     1  UNL1       -0.4684
@<TRIPOS>BOND
     1    16    17    1
     2    17    15    1
     3    15     8    1
     4     8     9   ar
     5     9    10   ar
     6    10    11   ar
     7    11    12    1
     8    11    13   ar
     9    13     7    1
    10     7     1    1
    11     1     2    1
    12     2     3    1
    13     3     4    1
    14     4    18    1
    15    18    19    1
    16    19    20    1
    17    20    21   ar
    18    21    22   ar
    19    22    23   ar
    20    23    24   ar
    21    24    25   ar
    22    25    26    1
    23    23    27    1
    24    27    28    1
    25    28    29    1
    26    29    30    1
    27     4     5    1
    28     5     6    1
    29    13    14   ar
    30    14     8   ar
    31     6     1    1
    32    25    20   ar
    33    30    22    1
