@<TRIPOS>MOLECULE
*****
 42 46 0 0 0
SMALL
GASTEIGER

@<TRIPOS>ATOM
      1 C           3.3574    0.1148   23.7373 C.ar    1  UNL1        0.2218
      2 N           1.9789    0.3122   24.2948 N.ar    1  UNL1       -0.2119
      3 C           0.9596    1.0906   23.5168 C.ar    1  UNL1        0.1061
      4 C           1.3189    1.6715   22.1814 C.ar    1  UNL1        0.0683
      5 C           2.6974    1.4741   21.6239 C.ar    1  UNL1        0.1343
      6 N           3.7166    0.6958   22.4019 N.ar    1  UNL1       -0.1988
      7 C           0.2996    2.4499   21.4034 C.ar    1  UNL1        0.0854
      8 C          -0.8225    3.1414   22.1194 C.ar    1  UNL1        0.0193
      9 C          -1.8418    3.9198   21.3414 C.ar    1  UNL1        0.0030
     10 C          -1.7389    4.0067   19.8474 C.ar    1  UNL1        0.0177
     11 C          -2.7582    4.7851   19.0695 C.ar    1  UNL1        0.0015
     12 C          -2.6553    4.8719   17.5756 C.ar    1  UNL1        0.0001
     13 C          -1.5331    4.1804   16.8596 C.ar    1  UNL1        0.0015
     14 C          -0.5139    3.4020   17.6375 C.ar    1  UNL1        0.0191
     15 C          -0.6168    3.3152   19.1314 C.ar    1  UNL1        0.0813
     16 N           0.4025    2.5368   19.9095 N.ar    1  UNL1       -0.2452
     17 N           4.3767   -0.6636   24.5153 N.pl3   1  UNL1       -0.2823
     18 H           4.6113   -0.3894   25.4313 H       1  UNL1        0.1551
     19 C           4.9530   -3.8975   22.2883 C.ar    1  UNL1        0.2260
     20 C           4.2913   -2.7014   22.9060 C.ar    1  UNL1        0.0724
     21 C           5.0384   -1.8597   23.8977 C.ar    1  UNL1        0.0567
     22 C           6.4471   -2.2141   24.2717 C.ar    1  UNL1        0.0356
     23 C           7.1088   -3.4102   23.6541 C.ar    1  UNL1        0.1033
     24 N           6.3618   -4.2519   22.6624 N.ar    1  UNL1       -0.2101
     25 O           4.2061   -4.7393   21.2967 O.3     1  UNL1       -0.4640
     26 C           4.6686   -5.1314   18.7703 C.3     1  UNL1        0.0473
     27 C           4.0895   -4.2914   19.8698 C.3     1  UNL1        0.1678
     28 C           3.3938   -3.0034   19.5425 C.3     1  UNL1        0.0473
     29 N           3.0566    2.0551   20.2884 N.pl3   1  UNL1       -0.3172
     30 H           2.8936    3.0088   20.1066 H       1  UNL1        0.1482
     31 C           3.6642    1.1829   19.2300 C.3     1  UNL1        0.0998
     32 C           5.1278    0.9134   19.0428 C.3     1  UNL1        0.0271
     33 C           5.2830   -0.0090   17.8701 C.3     1  UNL1        0.0604
     34 C           3.9153   -0.3094   17.3325 C.3     1  UNL1        0.1412
     35 O           3.6028   -1.1917   16.1603 O.3     1  UNL1       -0.3818
     36 C           2.9148    0.4272   18.1730 C.3     1  UNL1        0.1549
     37 O           1.4262    0.4109   17.9888 O.3     1  UNL1       -0.3803
     38 H           2.6431   -1.2175   16.0218 H       1  UNL1        0.2104
     39 H           1.2000   -0.1549   17.2341 H       1  UNL1        0.2105
     40 C           6.5785   -0.5379   17.3298 C.3     1  UNL1        0.1396
     41 O           6.9037   -1.9968   17.4557 O.3     1  UNL1       -0.3819
     42 H           7.0136   -2.2239   18.3923 H       1  UNL1        0.2104
@<TRIPOS>BOND
     1    26    27    1
     2    27    28    1
     3    27    25    1
     4    25    19    1
     5    19    20   ar
     6    20    21   ar
     7    21    17    1
     8    17     1    1
     9     1     2   ar
    10     2     3   ar
    11     3     4   ar
    12     4     7    1
    13     7     8   ar
    14     8     9   ar
    15     9    10   ar
    16    10    11   ar
    17    11    12   ar
    18    12    13   ar
    19    13    14   ar
    20    14    15   ar
    21    15    16   ar
    22     4     5   ar
    23     5    29    1
    24    31    29    1
    25    31    32    1
    26    32    33    1
    27    33    40    1
    28    40    41    1
    29    33    34    1
    30    34    35    1
    31    34    36    1
    32    36    37    1
    33     5     6   ar
    34    21    22   ar
    35    22    23   ar
    36    23    24   ar
    37    24    19   ar
    38     6     1   ar
    39    16     7   ar
    40    36    31    1
    41    15    10   ar
    42    17    18    1
    43    29    30    1
    44    41    42    1
    45    35    38    1
    46    37    39    1
@<TRIPOS>MOLECULE
*****
 42 46 0 0 0
SMALL
GASTEIGER

@<TRIPOS>ATOM
      1 C           2.1462   -0.0398   29.8342 C.ar    1  UNL1        0.2218
      2 N           1.3007    1.1725   30.0902 N.ar    1  UNL1       -0.2119
      3 C           1.3857    1.8813   31.4094 C.ar    1  UNL1        0.1061
      4 C           2.3161    1.3778   32.4727 C.ar    1  UNL1        0.0683
      5 C           3.1616    0.1655   32.2167 C.ar    1  UNL1        0.1343
      6 N           3.0767   -0.5433   30.8975 N.ar    1  UNL1       -0.1988
      7 C           2.4012    2.0865   33.7920 C.ar    1  UNL1        0.0854
      8 C           1.7971    3.4503   33.9510 C.ar    1  UNL1        0.0193
      9 C           1.8821    4.1590   35.2702 C.ar    1  UNL1        0.0030
     10 C           2.5712    3.5040   36.4305 C.ar    1  UNL1        0.0177
     11 C           2.6562    4.2128   37.7497 C.ar    1  UNL1        0.0015
     12 C           3.3452    3.5578   38.9100 C.ar    1  UNL1        0.0001
     13 C           3.9493    2.1940   38.7510 C.ar    1  UNL1        0.0015
     14 C           3.8643    1.4853   37.4317 C.ar    1  UNL1        0.0191
     15 C           3.1752    2.1403   36.2715 C.ar    1  UNL1        0.0813
     16 N           3.0902    1.4315   34.9522 N.ar    1  UNL1       -0.2452
     17 N           2.0612   -0.7485   28.5149 N.pl3   1  UNL1       -0.2823
     18 H           1.2240   -1.1922   28.2475 H       1  UNL1        0.1551
     19 C           5.6472   -1.6280   27.0599 C.ar    1  UNL1        0.2260
     20 C           4.4566   -1.5953   27.9717 C.ar    1  UNL1        0.0724
     21 C           3.2518   -0.7813   27.6031 C.ar    1  UNL1        0.0567
     22 C           3.2375   -0.0001   26.3227 C.ar    1  UNL1        0.0356
     23 C           4.4281   -0.0329   25.4108 C.ar    1  UNL1        0.1033
     24 N           5.6329   -0.8468   25.7794 N.ar    1  UNL1       -0.2101
     25 O           6.8520   -2.4420   27.4285 O.3     1  UNL1       -0.4640
     26 C           6.8282   -4.8022   26.3428 C.3     1  UNL1        0.0473
     27 C           6.7387   -3.9318   27.5611 C.3     1  UNL1        0.1678
     28 C           6.5359   -4.5512   28.9121 C.3     1  UNL1        0.0473
     29 N           4.0922   -0.3381   33.2801 N.pl3   1  UNL1       -0.3172
     30 H           4.0659    0.0536   34.1830 H       1  UNL1        0.1482
     31 C           5.0627   -1.4383   32.9678 C.3     1  UNL1        0.0998
     32 C           6.4594   -1.2614   32.4503 C.3     1  UNL1        0.0271
     33 C           7.0669   -2.6224   32.2808 C.3     1  UNL1        0.0604
     34 C           6.0456   -3.6404   32.6937 C.3     1  UNL1        0.1412
     35 O           6.2304   -5.1290   32.6837 O.3     1  UNL1       -0.3818
     36 C           4.8070   -2.9086   33.1183 C.3     1  UNL1        0.1549
     37 O           3.5357   -3.5369   33.6074 O.3     1  UNL1       -0.3803
     38 H           5.4187   -5.5577   32.9971 H       1  UNL1        0.2104
     39 H           3.6321   -4.5021   33.6095 H       1  UNL1        0.2105
     40 C           8.4524   -2.9140   31.7855 C.3     1  UNL1        0.1396
     41 O           9.1024   -4.2273   32.1059 O.3     1  UNL1       -0.3819
     42 H           9.2557   -4.2874   33.0618 H       1  UNL1        0.2104
@<TRIPOS>BOND
     1    26    27    1
     2    27    28    1
     3    27    25    1
     4    25    19    1
     5    19    20   ar
     6    20    21   ar
     7    21    17    1
     8    17     1    1
     9     1     2   ar
    10     2     3   ar
    11     3     4   ar
    12     4     7    1
    13     7     8   ar
    14     8     9   ar
    15     9    10   ar
    16    10    11   ar
    17    11    12   ar
    18    12    13   ar
    19    13    14   ar
    20    14    15   ar
    21    15    16   ar
    22     4     5   ar
    23     5    29    1
    24    31    29    1
    25    31    32    1
    26    32    33    1
    27    33    40    1
    28    40    41    1
    29    33    34    1
    30    34    35    1
    31    34    36    1
    32    36    37    1
    33     5     6   ar
    34    21    22   ar
    35    22    23   ar
    36    23    24   ar
    37    24    19   ar
    38     6     1   ar
    39    16     7   ar
    40    36    31    1
    41    15    10   ar
    42    17    18    1
    43    29    30    1
    44    41    42    1
    45    35    38    1
    46    37    39    1
@<TRIPOS>MOLECULE
*****
 42 46 0 0 0
SMALL
GASTEIGER

@<TRIPOS>ATOM
      1 C           3.8189    0.2840   26.3323 C.ar    1  UNL1        0.2218
      2 N           3.4440   -0.4084   25.0556 N.ar    1  UNL1       -0.2119
      3 C           4.2671   -1.5588   24.5567 C.ar    1  UNL1        0.1061
      4 C           5.4651   -2.0169   25.3345 C.ar    1  UNL1        0.0683
      5 C           5.8399   -1.3245   26.6112 C.ar    1  UNL1        0.1343
      6 N           5.0169   -0.1740   27.1102 N.ar    1  UNL1       -0.1988
      7 C           6.2882   -3.1674   24.8356 C.ar    1  UNL1        0.0854
      8 C           6.8546   -3.1378   23.4470 C.ar    1  UNL1        0.0193
      9 C           7.6777   -4.2882   22.9480 C.ar    1  UNL1        0.0030
     10 C           7.9345   -5.4683   23.8378 C.ar    1  UNL1        0.0177
     11 C           8.7577   -6.6187   23.3389 C.ar    1  UNL1        0.0015
     12 C           9.0144   -7.7987   24.2286 C.ar    1  UNL1        0.0001
     13 C           8.4481   -7.8282   25.6173 C.ar    1  UNL1        0.0015
     14 C           7.6249   -6.6778   26.1162 C.ar    1  UNL1        0.0191
     15 C           7.3682   -5.4979   25.2265 C.ar    1  UNL1        0.0813
     16 N           6.5450   -4.3474   25.7254 N.ar    1  UNL1       -0.2452
     17 N           2.9957    1.4345   26.8312 N.pl3   1  UNL1       -0.2823
     18 H           3.1351    2.3363   26.4617 H       1  UNL1        0.1551
     19 C           1.3105    1.0476   30.4034 C.ar    1  UNL1        0.2260
     20 C           2.3461    1.2712   29.3415 C.ar    1  UNL1        0.0724
     21 C           1.9602    1.2110   27.8931 C.ar    1  UNL1        0.0567
     22 C           0.5389    0.9272   27.5068 C.ar    1  UNL1        0.0356
     23 C          -0.4966    0.7036   28.5688 C.ar    1  UNL1        0.1033
     24 N          -0.1108    0.7638   30.0170 N.ar    1  UNL1       -0.2101
     25 O           1.6963    1.1079   31.8517 O.3     1  UNL1       -0.4640
     26 C           0.5922    3.4490   32.0749 C.3     1  UNL1        0.0473
     27 C           1.4560    2.3610   32.6403 C.3     1  UNL1        0.1678
     28 C           2.0796    2.5260   33.9945 C.3     1  UNL1        0.0473
     29 N           7.0380   -1.7826   27.3891 N.pl3   1  UNL1       -0.3172
     30 H           7.9441   -1.5698   27.0682 H       1  UNL1        0.1482
     31 C           6.8554   -2.5649   28.6558 C.3     1  UNL1        0.0998
     32 C           7.4198   -3.9250   28.9412 C.3     1  UNL1        0.0271
     33 C           6.9896   -4.3252   30.3214 C.3     1  UNL1        0.0604
     34 C           6.1593   -3.2123   30.8890 C.3     1  UNL1        0.1412
     35 O           5.5236   -3.1911   32.2474 O.3     1  UNL1       -0.3818
     36 C           6.0764   -2.1244   29.8596 C.3     1  UNL1        0.1549
     37 O           5.3431   -0.8243   30.0080 O.3     1  UNL1       -0.3803
     38 H           5.0425   -2.3573   32.3663 H       1  UNL1        0.2104
     39 H           4.9228   -0.7880   30.8815 H       1  UNL1        0.2105
     40 C           7.3300   -5.6122   31.0126 C.3     1  UNL1        0.1396
     41 O           6.4860   -6.0964   32.1541 O.3     1  UNL1       -0.3819
     42 H           6.5705   -5.4836   32.9013 H       1  UNL1        0.2104
@<TRIPOS>BOND
     1    26    27    1
     2    27    28    1
     3    27    25    1
     4    25    19    1
     5    19    20   ar
     6    20    21   ar
     7    21    17    1
     8    17     1    1
     9     1     2   ar
    10     2     3   ar
    11     3     4   ar
    12     4     7    1
    13     7     8   ar
    14     8     9   ar
    15     9    10   ar
    16    10    11   ar
    17    11    12   ar
    18    12    13   ar
    19    13    14   ar
    20    14    15   ar
    21    15    16   ar
    22     4     5   ar
    23     5    29    1
    24    31    29    1
    25    31    32    1
    26    32    33    1
    27    33    40    1
    28    40    41    1
    29    33    34    1
    30    34    35    1
    31    34    36    1
    32    36    37    1
    33     5     6   ar
    34    21    22   ar
    35    22    23   ar
    36    23    24   ar
    37    24    19   ar
    38     6     1   ar
    39    16     7   ar
    40    36    31    1
    41    15    10   ar
    42    17    18    1
    43    29    30    1
    44    41    42    1
    45    35    38    1
    46    37    39    1
@<TRIPOS>MOLECULE
*****
 42 46 0 0 0
SMALL
GASTEIGER

@<TRIPOS>ATOM
      1 C           7.8311   -5.8157   27.2529 C.ar    1  UNL1        0.2218
      2 N           7.9308   -6.7759   26.1048 N.ar    1  UNL1       -0.2119
      3 C           7.7254   -6.2900   24.7007 C.ar    1  UNL1        0.1061
      4 C           7.4202   -4.8439   24.4446 C.ar    1  UNL1        0.0683
      5 C           7.3205   -3.8837   25.5927 C.ar    1  UNL1        0.1343
      6 N           7.5259   -4.3696   26.9968 N.ar    1  UNL1       -0.1988
      7 C           7.2148   -4.3579   23.0404 C.ar    1  UNL1        0.0854
      8 C           8.3980   -4.1015   22.1548 C.ar    1  UNL1        0.0193
      9 C           8.1926   -3.6156   20.7507 C.ar    1  UNL1        0.0030
     10 C           6.8039   -3.3859   20.2321 C.ar    1  UNL1        0.0177
     11 C           6.5985   -2.9000   18.8280 C.ar    1  UNL1        0.0015
     12 C           5.2099   -2.6703   18.3094 C.ar    1  UNL1        0.0001
     13 C           4.0267   -2.9266   19.1950 C.ar    1  UNL1        0.0015
     14 C           4.2320   -3.4126   20.5991 C.ar    1  UNL1        0.0191
     15 C           5.6207   -3.6422   21.1177 C.ar    1  UNL1        0.0813
     16 N           5.8261   -4.1282   22.5219 N.ar    1  UNL1       -0.2452
     17 N           8.0365   -6.3017   28.6571 N.pl3   1  UNL1       -0.2823
     18 H           8.1063   -7.2668   28.8387 H       1  UNL1        0.1551
     19 C           7.0373   -4.0534   31.7710 C.ar    1  UNL1        0.2260
     20 C           6.9382   -5.0378   30.6437 C.ar    1  UNL1        0.0724
     21 C           8.1356   -5.3172   29.7845 C.ar    1  UNL1        0.0567
     22 C           9.4321   -4.6121   30.0527 C.ar    1  UNL1        0.0356
     23 C           9.5312   -3.6277   31.1801 C.ar    1  UNL1        0.1033
     24 N           8.3339   -3.3483   32.0392 N.ar    1  UNL1       -0.2101
     25 O           5.8400   -3.7740   32.6302 O.3     1  UNL1       -0.4640
     26 C           4.4748   -1.8855   33.7790 C.3     1  UNL1        0.0473
     27 C           5.1678   -2.4345   32.5673 C.3     1  UNL1        0.1678
     28 C           5.1886   -1.6441   31.2926 C.3     1  UNL1        0.0473
     29 N           7.0153   -2.4375   25.3366 N.pl3   1  UNL1       -0.3172
     30 H           7.6824   -1.8645   24.8940 H       1  UNL1        0.1482
     31 C           5.6937   -1.8644   25.7548 C.3     1  UNL1        0.0998
     32 C           5.1801   -1.7670   27.1608 C.3     1  UNL1        0.0271
     33 C           3.8226   -1.1305   27.1154 C.3     1  UNL1        0.0604
     34 C           3.4972   -0.8345   25.6813 C.3     1  UNL1        0.1412
     35 O           2.2367   -0.1969   25.1768 O.3     1  UNL1       -0.3818
     36 C           4.6535   -1.2881   24.8405 C.3     1  UNL1        0.1549
     37 O           4.7524   -1.1837   23.3474 O.3     1  UNL1       -0.3803
     38 H           2.2781   -0.1189   24.2108 H       1  UNL1        0.2104
     39 H           3.9460   -0.7732   22.9979 H       1  UNL1        0.2105
     40 C           2.9448   -0.8408   28.2967 C.3     1  UNL1        0.1396
     41 O           1.4795   -0.5886   28.0982 O.3     1  UNL1       -0.3819
     42 H           1.3577    0.2345   27.5997 H       1  UNL1        0.2104
@<TRIPOS>BOND
     1    26    27    1
     2    27    28    1
     3    27    25    1
     4    25    19    1
     5    19    20   ar
     6    20    21   ar
     7    21    17    1
     8    17     1    1
     9     1     2   ar
    10     2     3   ar
    11     3     4   ar
    12     4     7    1
    13     7     8   ar
    14     8     9   ar
    15     9    10   ar
    16    10    11   ar
    17    11    12   ar
    18    12    13   ar
    19    13    14   ar
    20    14    15   ar
    21    15    16   ar
    22     4     5   ar
    23     5    29    1
    24    31    29    1
    25    31    32    1
    26    32    33    1
    27    33    40    1
    28    40    41    1
    29    33    34    1
    30    34    35    1
    31    34    36    1
    32    36    37    1
    33     5     6   ar
    34    21    22   ar
    35    22    23   ar
    36    23    24   ar
    37    24    19   ar
    38     6     1   ar
    39    16     7   ar
    40    36    31    1
    41    15    10   ar
    42    17    18    1
    43    29    30    1
    44    41    42    1
    45    35    38    1
    46    37    39    1
@<TRIPOS>MOLECULE
*****
 42 46 0 0 0
SMALL
GASTEIGER

@<TRIPOS>ATOM
      1 C          -8.9865  -20.0094   23.0713 C.ar    1  UNL1        0.2218
      2 N          -7.9829  -21.0603   22.6990 N.ar    1  UNL1       -0.2119
      3 C          -6.5875  -20.6633   22.3182 C.ar    1  UNL1        0.1061
      4 C          -6.1956  -19.2154   22.3097 C.ar    1  UNL1        0.0683
      5 C          -7.1991  -18.1646   22.6819 C.ar    1  UNL1        0.1343
      6 N          -8.5946  -18.5616   23.0627 N.ar    1  UNL1       -0.1988
      7 C          -4.8001  -18.8184   21.9289 C.ar    1  UNL1        0.0854
      8 C          -3.7983  -18.4843   22.9941 C.ar    1  UNL1        0.0193
      9 C          -2.4028  -18.0872   22.6134 C.ar    1  UNL1        0.0030
     10 C          -2.0091  -18.0242   21.1673 C.ar    1  UNL1        0.0177
     11 C          -0.6136  -17.6272   20.7866 C.ar    1  UNL1        0.0015
     12 C          -0.2200  -17.5642   19.3405 C.ar    1  UNL1        0.0001
     13 C          -1.2218  -17.8983   18.2753 C.ar    1  UNL1        0.0015
     14 C          -2.6172  -18.2953   18.6560 C.ar    1  UNL1        0.0191
     15 C          -3.0109  -18.3583   20.1020 C.ar    1  UNL1        0.0813
     16 N          -4.4064  -18.7554   20.4828 N.ar    1  UNL1       -0.2452
     17 N         -10.3820  -20.4065   23.4521 N.pl3   1  UNL1       -0.2823
     18 H         -10.5703  -21.3292   23.7391 H       1  UNL1        0.1551
     19 C         -12.7750  -17.5351   22.1182 C.ar    1  UNL1        0.2260
     20 C         -11.6663  -18.5440   22.1747 C.ar    1  UNL1        0.0724
     21 C         -11.4906  -19.3977   23.3956 C.ar    1  UNL1        0.0567
     22 C         -12.4235  -19.2425   24.5599 C.ar    1  UNL1        0.0356
     23 C         -13.5321  -18.2336   24.5034 C.ar    1  UNL1        0.1033
     24 N         -13.7079  -17.3800   23.2826 N.ar    1  UNL1       -0.2101
     25 O         -12.9507  -16.6815   20.8975 O.3     1  UNL1       -0.4640
     26 C         -11.8123  -15.5486   18.8553 C.3     1  UNL1        0.0473
     27 C         -11.7664  -15.9921   20.2875 C.3     1  UNL1        0.1678
     28 C         -10.5361  -15.7463   21.1096 C.3     1  UNL1        0.0473
     29 N          -6.8072  -16.7167   22.6734 N.pl3   1  UNL1       -0.3172
     30 H          -6.7277  -16.2333   21.8194 H       1  UNL1        0.1482
     31 C          -6.5365  -16.0054   23.9659 C.3     1  UNL1        0.0998
     32 C          -7.3306  -16.1426   25.2310 C.3     1  UNL1        0.0271
     33 C          -6.7090  -15.2540   26.2673 C.3     1  UNL1        0.0604
     34 C          -5.5306  -14.5675   25.6427 C.3     1  UNL1        0.1412
     35 O          -4.6190  -13.5885   26.3212 O.3     1  UNL1       -0.3818
     36 C          -5.4240  -15.0318   24.2204 C.3     1  UNL1        0.1549
     37 O          -4.3870  -14.5987   23.2269 O.3     1  UNL1       -0.3803
     38 H          -3.9383  -13.2937   25.6962 H       1  UNL1        0.2104
     39 H          -3.7845  -13.9636   23.6446 H       1  UNL1        0.2105
     40 C          -7.1826  -15.0821   27.6802 C.3     1  UNL1        0.1396
     41 O          -8.5387  -14.5010   27.9511 O.3     1  UNL1       -0.3819
     42 H          -8.5582  -13.5761   27.6597 H       1  UNL1        0.2104
@<TRIPOS>BOND
     1    26    27    1
     2    27    28    1
     3    27    25    1
     4    25    19    1
     5    19    20   ar
     6    20    21   ar
     7    21    17    1
     8    17     1    1
     9     1     2   ar
    10     2     3   ar
    11     3     4   ar
    12     4     7    1
    13     7     8   ar
    14     8     9   ar
    15     9    10   ar
    16    10    11   ar
    17    11    12   ar
    18    12    13   ar
    19    13    14   ar
    20    14    15   ar
    21    15    16   ar
    22     4     5   ar
    23     5    29    1
    24    31    29    1
    25    31    32    1
    26    32    33    1
    27    33    40    1
    28    40    41    1
    29    33    34    1
    30    34    35    1
    31    34    36    1
    32    36    37    1
    33     5     6   ar
    34    21    22   ar
    35    22    23   ar
    36    23    24   ar
    37    24    19   ar
    38     6     1   ar
    39    16     7   ar
    40    36    31    1
    41    15    10   ar
    42    17    18    1
    43    29    30    1
    44    41    42    1
    45    35    38    1
    46    37    39    1
@<TRIPOS>MOLECULE
*****
 42 46 0 0 0
SMALL
GASTEIGER

@<TRIPOS>ATOM
      1 C           6.3018   -5.2578   28.5814 C.ar    1  UNL1        0.2218
      2 N           6.8876   -5.7944   29.8538 N.ar    1  UNL1       -0.2119
      3 C           7.2193   -4.8600   30.9793 C.ar    1  UNL1        0.1061
      4 C           6.9652   -3.3890   30.8324 C.ar    1  UNL1        0.0683
      5 C           6.3795   -2.8524   29.5600 C.ar    1  UNL1        0.1343
      6 N           6.0478   -3.7868   28.4345 N.ar    1  UNL1       -0.1988
      7 C           7.2970   -2.4545   31.9580 C.ar    1  UNL1        0.0854
      8 C           8.7283   -2.2176   32.3389 C.ar    1  UNL1        0.0193
      9 C           9.0600   -1.2831   33.4644 C.ar    1  UNL1        0.0030
     10 C           7.9604   -0.5855   34.2090 C.ar    1  UNL1        0.0177
     11 C           8.2921    0.3489   35.3344 C.ar    1  UNL1        0.0015
     12 C           7.1925    1.0464   36.0789 C.ar    1  UNL1        0.0001
     13 C           5.7612    0.8095   35.6979 C.ar    1  UNL1        0.0015
     14 C           5.4295   -0.1249   34.5725 C.ar    1  UNL1        0.0191
     15 C           6.5291   -0.8225   33.8280 C.ar    1  UNL1        0.0813
     16 N           6.1974   -1.7570   32.7024 N.ar    1  UNL1       -0.2452
     17 N           5.9701   -6.1923   27.4559 N.pl3   1  UNL1       -0.2823
     18 H           5.1729   -6.7672   27.5121 H       1  UNL1        0.1551
     19 C           7.8388   -5.1222   24.1223 C.ar    1  UNL1        0.2260
     20 C           6.9558   -5.0637   25.3334 C.ar    1  UNL1        0.0724
     21 C           6.8531   -6.2508   26.2447 C.ar    1  UNL1        0.0567
     22 C           7.6333   -7.4963   25.9447 C.ar    1  UNL1        0.0356
     23 C           8.5162   -7.5548   24.7336 C.ar    1  UNL1        0.1033
     24 N           8.6190   -6.3678   23.8223 N.ar    1  UNL1       -0.2101
     25 O           7.9415   -3.9352   23.2110 O.3     1  UNL1       -0.4640
     26 C           7.5584   -3.7849   20.6458 C.3     1  UNL1        0.0473
     27 C           7.0108   -3.8042   22.0421 C.3     1  UNL1        0.1678
     28 C           5.5323   -3.6925   22.2694 C.3     1  UNL1        0.0473
     29 N           6.1254   -1.3813   29.4132 N.pl3   1  UNL1       -0.3172
     30 H           6.8794   -0.7625   29.2795 H       1  UNL1        0.1482
     31 C           4.7226   -0.8532   29.4700 C.3     1  UNL1        0.0998
     32 C           4.1679    0.0647   30.5186 C.3     1  UNL1        0.0271
     33 C           2.7307    0.3350   30.1849 C.3     1  UNL1        0.0604
     34 C           2.3971   -0.4159   28.9299 C.3     1  UNL1        0.1412
     35 O           1.0662   -0.4300   28.2382 O.3     1  UNL1       -0.3818
     36 C           3.6282   -1.1502   28.4881 C.3     1  UNL1        0.1549
     37 O           3.7445   -2.0276   27.2771 O.3     1  UNL1       -0.3803
     38 H           1.1175   -0.9927   27.4498 H       1  UNL1        0.2104
     39 H           2.8933   -2.0520   26.8125 H       1  UNL1        0.2105
     40 C           1.7919    1.2037   30.9685 C.3     1  UNL1        0.1396
     41 O           0.3420    1.2729   30.5903 O.3     1  UNL1       -0.3819
     42 H           0.2550    1.6862   29.7171 H       1  UNL1        0.2104
@<TRIPOS>BOND
     1    26    27    1
     2    27    28    1
     3    27    25    1
     4    25    19    1
     5    19    20   ar
     6    20    21   ar
     7    21    17    1
     8    17     1    1
     9     1     2   ar
    10     2     3   ar
    11     3     4   ar
    12     4     7    1
    13     7     8   ar
    14     8     9   ar
    15     9    10   ar
    16    10    11   ar
    17    11    12   ar
    18    12    13   ar
    19    13    14   ar
    20    14    15   ar
    21    15    16   ar
    22     4     5   ar
    23     5    29    1
    24    31    29    1
    25    31    32    1
    26    32    33    1
    27    33    40    1
    28    40    41    1
    29    33    34    1
    30    34    35    1
    31    34    36    1
    32    36    37    1
    33     5     6   ar
    34    21    22   ar
    35    22    23   ar
    36    23    24   ar
    37    24    19   ar
    38     6     1   ar
    39    16     7   ar
    40    36    31    1
    41    15    10   ar
    42    17    18    1
    43    29    30    1
    44    41    42    1
    45    35    38    1
    46    37    39    1
@<TRIPOS>MOLECULE
*****
 42 46 0 0 0
SMALL
GASTEIGER

@<TRIPOS>ATOM
      1 C           3.9212    0.7536   24.2707 C.ar    1  UNL1        0.2218
      2 N           5.4189    0.7311   24.3512 N.ar    1  UNL1       -0.2119
      3 C           6.0986    0.0154   25.4807 C.ar    1  UNL1        0.1061
      4 C           5.2806   -0.6778   26.5296 C.ar    1  UNL1        0.0683
      5 C           3.7830   -0.6553   26.4491 C.ar    1  UNL1        0.1343
      6 N           3.1033    0.0604   25.3197 N.ar    1  UNL1       -0.1988
      7 C           5.9603   -1.3936   27.6592 C.ar    1  UNL1        0.0854
      8 C           6.7111   -0.6138   28.6975 C.ar    1  UNL1        0.0193
      9 C           7.3908   -1.3295   29.8270 C.ar    1  UNL1        0.0030
     10 C           7.3197   -2.8250   29.9182 C.ar    1  UNL1        0.0177
     11 C           7.9994   -3.5407   31.0477 C.ar    1  UNL1        0.0015
     12 C           7.9282   -5.0362   31.1388 C.ar    1  UNL1        0.0001
     13 C           7.1774   -5.8161   30.1005 C.ar    1  UNL1        0.0015
     14 C           6.4978   -5.1004   28.9710 C.ar    1  UNL1        0.0191
     15 C           6.5689   -3.6049   28.8798 C.ar    1  UNL1        0.0813
     16 N           5.8892   -2.8891   27.7503 N.ar    1  UNL1       -0.2452
     17 N           3.2415    1.4694   23.1412 N.pl3   1  UNL1       -0.2823
     18 H           3.2590    2.4529   23.1002 H       1  UNL1        0.1551
     19 C           2.5450   -1.2025   20.2905 C.ar    1  UNL1        0.2260
     20 C           3.2513   -0.4197   21.3575 C.ar    1  UNL1        0.0724
     21 C           2.5353    0.6866   22.0742 C.ar    1  UNL1        0.0567
     22 C           1.1132    1.0101   21.7238 C.ar    1  UNL1        0.0356
     23 C           0.4069    0.2274   20.6568 C.ar    1  UNL1        0.1033
     24 N           1.1228   -0.8789   19.9401 N.ar    1  UNL1       -0.2101
     25 O           3.2609   -2.3087   19.5739 O.3     1  UNL1       -0.4640
     26 C           5.5135   -2.6987   18.3395 C.3     1  UNL1        0.0473
     27 C           4.1960   -1.9895   18.4453 C.3     1  UNL1        0.1678
     28 C           3.8137   -0.9609   17.4227 C.3     1  UNL1        0.0473
     29 N           2.9650   -1.3486   27.4981 N.pl3   1  UNL1       -0.3172
     30 H           2.7980   -2.3166   27.4321 H       1  UNL1        0.1482
     31 C           2.4016   -0.5670   28.6478 C.3     1  UNL1        0.0998
     32 C           3.1292   -0.2046   29.9084 C.3     1  UNL1        0.0271
     33 C           2.1889    0.5758   30.7784 C.3     1  UNL1        0.0604
     34 C           0.8801    0.6958   30.0554 C.3     1  UNL1        0.1412
     35 O          -0.3450    1.3986   30.5605 O.3     1  UNL1       -0.3818
     36 C           1.0116   -0.0105   28.7386 C.3     1  UNL1        0.1549
     37 O          -0.0590   -0.1379   27.6958 O.3     1  UNL1       -0.3803
     38 H          -1.0527    1.3292   29.9007 H       1  UNL1        0.2104
     39 H          -0.8631    0.3105   28.0014 H       1  UNL1        0.2105
     40 C           2.5024    1.1376   32.1334 C.3     1  UNL1        0.1396
     41 O           1.3895    1.5622   33.0450 O.3     1  UNL1       -0.3819
     42 H           0.9261    2.3213   32.6578 H       1  UNL1        0.2104
@<TRIPOS>BOND
     1    26    27    1
     2    27    28    1
     3    27    25    1
     4    25    19    1
     5    19    20   ar
     6    20    21   ar
     7    21    17    1
     8    17     1    1
     9     1     2   ar
    10     2     3   ar
    11     3     4   ar
    12     4     7    1
    13     7     8   ar
    14     8     9   ar
    15     9    10   ar
    16    10    11   ar
    17    11    12   ar
    18    12    13   ar
    19    13    14   ar
    20    14    15   ar
    21    15    16   ar
    22     4     5   ar
    23     5    29    1
    24    31    29    1
    25    31    32    1
    26    32    33    1
    27    33    40    1
    28    40    41    1
    29    33    34    1
    30    34    35    1
    31    34    36    1
    32    36    37    1
    33     5     6   ar
    34    21    22   ar
    35    22    23   ar
    36    23    24   ar
    37    24    19   ar
    38     6     1   ar
    39    16     7   ar
    40    36    31    1
    41    15    10   ar
    42    17    18    1
    43    29    30    1
    44    41    42    1
    45    35    38    1
    46    37    39    1
@<TRIPOS>MOLECULE
*****
 42 46 0 0 0
SMALL
GASTEIGER

@<TRIPOS>ATOM
      1 C           3.5709    1.5970   33.6234 C.ar    1  UNL1        0.2218
      2 N           4.9491    1.1854   34.0493 N.ar    1  UNL1       -0.2119
      3 C           5.6060   -0.0045   33.4149 C.ar    1  UNL1        0.1061
      4 C           4.8848   -0.7828   32.3547 C.ar    1  UNL1        0.0683
      5 C           3.5067   -0.3712   31.9288 C.ar    1  UNL1        0.1343
      6 N           2.8497    0.8187   32.5632 N.ar    1  UNL1       -0.1988
      7 C           5.5418   -1.9727   31.7202 C.ar    1  UNL1        0.0854
      8 C           5.9471   -3.1445   32.5644 C.ar    1  UNL1        0.0193
      9 C           6.6040   -4.3344   31.9300 C.ar    1  UNL1        0.0030
     10 C           6.8556   -4.3526   30.4513 C.ar    1  UNL1        0.0177
     11 C           7.5125   -5.5426   29.8170 C.ar    1  UNL1        0.0015
     12 C           7.7641   -5.5607   28.3384 C.ar    1  UNL1        0.0001
     13 C           7.3588   -4.3890   27.4941 C.ar    1  UNL1        0.0015
     14 C           6.7019   -3.1990   28.1285 C.ar    1  UNL1        0.0191
     15 C           6.4503   -3.1809   29.6071 C.ar    1  UNL1        0.0813
     16 N           5.7934   -1.9909   30.2416 N.ar    1  UNL1       -0.2452
     17 N           2.9140    2.7870   34.2579 N.pl3   1  UNL1       -0.2823
     18 H           2.2683    3.3247   33.7448 H       1  UNL1        0.1551
     19 C           3.1780    2.6143   38.2140 C.ar    1  UNL1        0.2260
     20 C           2.8512    2.2436   36.7978 C.ar    1  UNL1        0.0724
     21 C           3.2409    3.1578   35.6741 C.ar    1  UNL1        0.0567
     22 C           3.9574    4.4426   35.9668 C.ar    1  UNL1        0.0356
     23 C           4.2843    4.8134   37.3830 C.ar    1  UNL1        0.1033
     24 N           3.8946    3.8993   38.5066 N.ar    1  UNL1       -0.2101
     25 O           2.7883    1.7002   39.3376 O.3     1  UNL1       -0.4640
     26 C           1.0552   -0.2127   39.6323 C.3     1  UNL1        0.0473
     27 C           1.3653    1.2465   39.4763 C.3     1  UNL1        0.1678
     28 C           0.2525    2.2521   39.4588 C.3     1  UNL1        0.0473
     29 N           2.7855   -1.1495   30.8686 N.pl3   1  UNL1       -0.3172
     30 H           2.5587   -2.0954   31.0208 H       1  UNL1        0.1482
     31 C           2.4099   -0.4867   29.5764 C.3     1  UNL1        0.0998
     32 C           3.0791   -0.6969   28.2506 C.3     1  UNL1        0.0271
     33 C           2.3819    0.1626   27.2380 C.3     1  UNL1        0.0604
     34 C           1.2817    0.9039   27.9381 C.3     1  UNL1        0.1412
     35 O           0.3312    1.8758   27.3042 O.3     1  UNL1       -0.3818
     36 C           1.2990    0.5026   29.3833 C.3     1  UNL1        0.1549
     37 O           0.3688    1.0028   30.4484 O.3     1  UNL1       -0.3803
     38 H          -0.2817    2.2135   27.9760 H       1  UNL1        0.2104
     39 H          -0.2568    1.6346   30.0606 H       1  UNL1        0.2105
     40 C           2.7247    0.2630   25.7812 C.3     1  UNL1        0.1396
     41 O           1.6321    0.3762   24.7597 O.3     1  UNL1       -0.3819
     42 H           1.1139   -0.4437   24.7484 H       1  UNL1        0.2104
@<TRIPOS>BOND
     1    26    27    1
     2    27    28    1
     3    27    25    1
     4    25    19    1
     5    19    20   ar
     6    20    21   ar
     7    21    17    1
     8    17     1    1
     9     1     2   ar
    10     2     3   ar
    11     3     4   ar
    12     4     7    1
    13     7     8   ar
    14     8     9   ar
    15     9    10   ar
    16    10    11   ar
    17    11    12   ar
    18    12    13   ar
    19    13    14   ar
    20    14    15   ar
    21    15    16   ar
    22     4     5   ar
    23     5    29    1
    24    31    29    1
    25    31    32    1
    26    32    33    1
    27    33    40    1
    28    40    41    1
    29    33    34    1
    30    34    35    1
    31    34    36    1
    32    36    37    1
    33     5     6   ar
    34    21    22   ar
    35    22    23   ar
    36    23    24   ar
    37    24    19   ar
    38     6     1   ar
    39    16     7   ar
    40    36    31    1
    41    15    10   ar
    42    17    18    1
    43    29    30    1
    44    41    42    1
    45    35    38    1
    46    37    39    1
@<TRIPOS>MOLECULE
*****
 42 46 0 0 0
SMALL
GASTEIGER

@<TRIPOS>ATOM
      1 C           8.2029   -4.4403   22.7115 C.ar    1  UNL1        0.2218
      2 N           7.6474   -4.9186   21.4028 N.ar    1  UNL1       -0.2119
      3 C           6.6866   -4.0584   20.6367 C.ar    1  UNL1        0.1061
      4 C           6.2814   -2.7200   21.1792 C.ar    1  UNL1        0.0683
      5 C           6.8369   -2.2418   22.4879 C.ar    1  UNL1        0.1343
      6 N           7.7976   -3.1019   23.2541 N.ar    1  UNL1       -0.1988
      7 C           5.3205   -1.8598   20.4131 C.ar    1  UNL1        0.0854
      8 C           5.7585   -1.1953   19.1416 C.ar    1  UNL1        0.0193
      9 C           4.7977   -0.3351   18.3755 C.ar    1  UNL1        0.0030
     10 C           3.3990   -0.1394   18.8808 C.ar    1  UNL1        0.0177
     11 C           2.4382    0.7208   18.1147 C.ar    1  UNL1        0.0015
     12 C           1.0396    0.9165   18.6200 C.ar    1  UNL1        0.0001
     13 C           0.6016    0.2519   19.8915 C.ar    1  UNL1        0.0015
     14 C           1.5624   -0.6082   20.6576 C.ar    1  UNL1        0.0191
     15 C           2.9610   -0.8039   20.1523 C.ar    1  UNL1        0.0813
     16 N           3.9219   -1.6641   20.9184 N.ar    1  UNL1       -0.2452
     17 N           9.1637   -5.3006   23.4776 N.pl3   1  UNL1       -0.2823
     18 H          10.0795   -5.4349   23.1422 H       1  UNL1        0.1551
     19 C           8.4506   -5.8886   27.3372 C.ar    1  UNL1        0.2260
     20 C           8.8851   -5.2330   26.0599 C.ar    1  UNL1        0.0724
     21 C           8.7292   -5.9561   24.7549 C.ar    1  UNL1        0.0567
     22 C           8.1387   -7.3347   24.7273 C.ar    1  UNL1        0.0356
     23 C           7.7042   -7.9903   26.0045 C.ar    1  UNL1        0.1033
     24 N           7.8601   -7.2673   27.3095 N.ar    1  UNL1       -0.2101
     25 O           8.6065   -5.1656   28.6421 O.3     1  UNL1       -0.4640
     26 C           6.5852   -3.5899   29.0681 C.3     1  UNL1        0.0473
     27 C           7.3941   -4.7958   29.4442 C.3     1  UNL1        0.1678
     28 C           6.9906   -5.6319   30.6224 C.3     1  UNL1        0.0473
     29 N           6.4315   -0.9033   23.0305 N.pl3   1  UNL1       -0.3172
     30 H           6.8882   -0.0879   22.7211 H       1  UNL1        0.1482
     31 C           5.3303   -0.8073   24.0445 C.3     1  UNL1        0.0998
     32 C           4.2882    0.2692   24.1151 C.3     1  UNL1        0.0271
     33 C           3.3917   -0.0291   25.2802 C.3     1  UNL1        0.0604
     34 C           3.8798   -1.2900   25.9296 C.3     1  UNL1        0.1412
     35 O           3.2759   -1.9536   27.1317 O.3     1  UNL1       -0.3818
     36 C           5.0779   -1.7710   25.1659 C.3     1  UNL1        0.1549
     37 O           5.8824   -2.9999   25.4703 O.3     1  UNL1       -0.3803
     38 H           3.7811   -2.7529   27.3478 H       1  UNL1        0.2104
     39 H           5.5093   -3.4467   26.2462 H       1  UNL1        0.2105
     40 C           2.2140    0.7897   25.7188 C.3     1  UNL1        0.1396
     41 O           1.8490    2.0384   24.9721 O.3     1  UNL1       -0.3819
     42 H           2.5533    2.6967   25.0792 H       1  UNL1        0.2104
@<TRIPOS>BOND
     1    26    27    1
     2    27    28    1
     3    27    25    1
     4    25    19    1
     5    19    20   ar
     6    20    21   ar
     7    21    17    1
     8    17     1    1
     9     1     2   ar
    10     2     3   ar
    11     3     4   ar
    12     4     7    1
    13     7     8   ar
    14     8     9   ar
    15     9    10   ar
    16    10    11   ar
    17    11    12   ar
    18    12    13   ar
    19    13    14   ar
    20    14    15   ar
    21    15    16   ar
    22     4     5   ar
    23     5    29    1
    24    31    29    1
    25    31    32    1
    26    32    33    1
    27    33    40    1
    28    40    41    1
    29    33    34    1
    30    34    35    1
    31    34    36    1
    32    36    37    1
    33     5     6   ar
    34    21    22   ar
    35    22    23   ar
    36    23    24   ar
    37    24    19   ar
    38     6     1   ar
    39    16     7   ar
    40    36    31    1
    41    15    10   ar
    42    17    18    1
    43    29    30    1
    44    41    42    1
    45    35    38    1
    46    37    39    1
