@<TRIPOS>MOLECULE
*****
 31 33 0 0 0
SMALL
GASTEIGER

@<TRIPOS>ATOM
      1 C          -4.8850  -18.8692   21.8235 C.ar    1  UNL1        0.2472
      2 N          -6.0802  -18.1775   22.4091 N.ar    1  UNL1       -0.1934
      3 C          -5.9006  -16.9325   23.2263 C.ar    1  UNL1        0.1580
      4 C          -4.5257  -16.3792   23.4577 C.ar    1  UNL1        0.1337
      5 N          -3.3305  -17.0709   22.8721 N.ar    1  UNL1       -0.2333
      6 C          -3.5102  -18.3159   22.0549 C.ar    1  UNL1        0.1689
      7 C          -6.4122  -20.4521   20.4407 C.3     1  UNL1        0.2543
      8 O          -5.0647  -20.1142   21.0063 O.3     1  UNL1       -0.4550
      9 C          -2.3149  -19.0076   21.4692 C.2     1  UNL1        0.1950
     10 O          -1.9693  -20.4020   21.9005 O.2     1  UNL1       -0.2896
     11 C          -1.4653  -18.3047   20.4522 C.3     1  UNL1        0.0692
     12 C          -0.1657  -17.6636   20.0650 C.3     1  UNL1        0.0141
     13 C          -1.2934  -17.7285   19.0781 C.3     1  UNL1        0.0443
     14 C          -1.8453  -17.4333   17.7149 C.2     1  UNL1        0.0504
     15 O          -1.1499  -17.9592   16.4942 O.co2   1  UNL1       -0.5492
     16 O          -3.0924  -16.6122   17.5723 O.co2   1  UNL1       -0.5492
     17 N          -7.0959  -16.2409   23.8120 N.pl3   1  UNL1       -0.2665
     18 C          -8.4762  -16.6205   23.3642 C.ar    1  UNL1        0.0815
     19 C          -9.2494  -17.6617   24.1180 C.ar    1  UNL1        0.0308
     20 C         -10.6297  -18.0413   23.6702 C.ar    1  UNL1        0.0864
     21 CL        -11.4028  -19.0825   24.4240 Cl      1  UNL1       -0.0799
     22 C         -11.2369  -17.3798   22.4687 C.ar    1  UNL1        0.1529
     23 F         -12.6172  -17.7595   22.0209 F       1  UNL1       -0.2032
     24 C         -10.4638  -16.3387   21.7149 C.ar    1  UNL1        0.0614
     25 C          -9.0834  -15.9590   22.1627 C.ar    1  UNL1        0.1559
     26 F          -8.3102  -14.9178   21.4089 F       1  UNL1       -0.2028
     27 C          -6.9107  -15.1696   24.8454 C.3     1  UNL1        0.1294
     28 C          -6.8775  -15.5295   26.3012 C.3     1  UNL1        0.1524
     29 C          -5.3802  -15.6014   26.2493 C.3     1  UNL1        0.0371
     30 C          -8.3748  -15.4576   26.3531 C.3     1  UNL1        0.0371
     31 F          -6.8442  -15.8895   27.7570 F       1  UNL1       -0.2382
@<TRIPOS>UNITY_ATOM_ATTR
15 1
charge -1
@<TRIPOS>BOND
     1     7     8    1
     2     8     1    1
     3     1     2   ar
     4     2     3   ar
     5     3    17    1
     6    17    27    1
     7    27    28    1
     8    28    29    1
     9    28    30    1
    10    28    31    1
    11    17    18    1
    12    18    19   ar
    13    19    20   ar
    14    20    21    1
    15    20    22   ar
    16    22    23    1
    17    22    24   ar
    18    24    25   ar
    19    25    26    1
    20     3     4   ar
    21     4     5   ar
    22     5     6   ar
    23     6     9    1
    24     9    10    2
    25    11     9    1
    26    11    12    1
    27    12    13    1
    28    13    14    1
    29    14    15   ar
    30    14    16   ar
    31     6     1   ar
    32    13    11    1
    33    25    18   ar
@<TRIPOS>MOLECULE
*****
 31 33 0 0 0
SMALL
GASTEIGER

@<TRIPOS>ATOM
      1 C          -4.9526  -18.2758   22.4284 C.ar    1  UNL1        0.2472
      2 N          -5.9554  -17.5742   23.2957 N.ar    1  UNL1       -0.1934
      3 C          -7.3522  -17.3506   22.7969 C.ar    1  UNL1        0.1580
      4 C          -7.7463  -17.8286   21.4309 C.ar    1  UNL1        0.1337
      5 N          -6.7436  -18.5302   20.5636 N.ar    1  UNL1       -0.2333
      6 C          -5.3468  -18.7538   21.0624 C.ar    1  UNL1        0.1689
      7 C          -2.5552  -17.3829   22.8811 C.3     1  UNL1        0.2543
      8 O          -3.5558  -18.4994   22.9272 O.3     1  UNL1       -0.4550
      9 C          -4.3440  -19.4555   20.1951 C.2     1  UNL1        0.1950
     10 O          -4.3349  -20.9536   20.1205 O.2     1  UNL1       -0.2896
     11 C          -3.3504  -18.6590   19.4023 C.3     1  UNL1        0.0692
     12 C          -3.0060  -17.8553   18.1836 C.3     1  UNL1        0.0141
     13 C          -1.9740  -18.0832   19.2481 C.3     1  UNL1        0.0443
     14 C          -0.5835  -17.8823   19.7736 C.2     1  UNL1        0.0504
     15 O          -0.1856  -16.5581   20.3551 O.co2   1  UNL1       -0.5492
     16 O           0.4090  -19.0055   19.7175 O.co2   1  UNL1       -0.5492
     17 N          -8.3550  -16.6489   23.6643 N.pl3   1  UNL1       -0.2665
     18 C          -9.7903  -17.0843   23.6541 C.ar    1  UNL1        0.0815
     19 C         -10.8126  -16.2807   22.9061 C.ar    1  UNL1        0.0308
     20 C         -12.2479  -16.7161   22.8960 C.ar    1  UNL1        0.0864
     21 CL        -13.2701  -15.9126   22.1481 Cl      1  UNL1       -0.0799
     22 C         -12.6611  -17.9550   23.6338 C.ar    1  UNL1        0.1529
     23 F         -14.0965  -18.3904   23.6237 F       1  UNL1       -0.2032
     24 C         -11.6390  -18.7585   24.3818 C.ar    1  UNL1        0.0614
     25 C         -10.2035  -18.3232   24.3920 C.ar    1  UNL1        0.1559
     26 F          -9.1814  -19.1267   25.1399 F       1  UNL1       -0.2028
     27 C          -7.9223  -15.5118   24.5417 C.3     1  UNL1        0.1294
     28 C          -7.1897  -15.7884   25.8210 C.3     1  UNL1        0.1524
     29 C          -8.4607  -16.2890   26.4406 C.3     1  UNL1        0.0371
     30 C          -5.9187  -15.2878   25.2014 C.3     1  UNL1        0.0371
     31 F          -6.4571  -16.0651   27.1004 F       1  UNL1       -0.2382
@<TRIPOS>UNITY_ATOM_ATTR
15 1
charge -1
@<TRIPOS>BOND
     1     7     8    1
     2     8     1    1
     3     1     2   ar
     4     2     3   ar
     5     3    17    1
     6    17    27    1
     7    27    28    1
     8    28    29    1
     9    28    30    1
    10    28    31    1
    11    17    18    1
    12    18    19   ar
    13    19    20   ar
    14    20    21    1
    15    20    22   ar
    16    22    23    1
    17    22    24   ar
    18    24    25   ar
    19    25    26    1
    20     3     4   ar
    21     4     5   ar
    22     5     6   ar
    23     6     9    1
    24     9    10    2
    25    11     9    1
    26    11    12    1
    27    12    13    1
    28    13    14    1
    29    14    15   ar
    30    14    16   ar
    31     6     1   ar
    32    13    11    1
    33    25    18   ar
@<TRIPOS>MOLECULE
*****
 31 33 0 0 0
SMALL
GASTEIGER

@<TRIPOS>ATOM
      1 C          -5.3384  -18.8465   21.8279 C.ar    1  UNL1        0.2472
      2 N          -6.5860  -18.4655   22.5685 N.ar    1  UNL1       -0.1934
      3 C          -7.9047  -18.4418   21.8539 C.ar    1  UNL1        0.1580
      4 C          -7.9758  -18.7991   20.3988 C.ar    1  UNL1        0.1337
      5 N          -6.7282  -19.1800   19.6583 N.ar    1  UNL1       -0.2333
      6 C          -5.4096  -19.2037   20.3729 C.ar    1  UNL1        0.1689
      7 C          -3.2963  -17.5868   22.8244 C.3     1  UNL1        0.2543
      8 O          -4.0198  -18.8702   22.5425 O.3     1  UNL1       -0.4550
      9 C          -4.1619  -19.5847   19.6323 C.2     1  UNL1        0.1950
     10 O          -3.8583  -21.0296   19.3680 O.2     1  UNL1       -0.2896
     11 C          -3.2180  -18.5207   19.1560 C.3     1  UNL1        0.0692
     12 C          -2.9391  -17.3186   18.3032 C.3     1  UNL1        0.0141
     13 C          -1.8622  -17.8798   19.1838 C.3     1  UNL1        0.0443
     14 C          -0.4576  -17.8337   19.7082 C.2     1  UNL1        0.0504
     15 O           0.3947  -19.0678   19.6793 O.co2   1  UNL1       -0.5492
     16 O           0.0947  -16.5536   20.2616 O.co2   1  UNL1       -0.5492
     17 N          -9.1523  -18.0608   22.5945 N.pl3   1  UNL1       -0.2665
     18 C          -9.0740  -17.6539   24.0361 C.ar    1  UNL1        0.0815
     19 C          -8.3063  -16.4263   24.4283 C.ar    1  UNL1        0.0308
     20 C          -8.2280  -16.0193   25.8698 C.ar    1  UNL1        0.0864
     21 CL         -7.4603  -14.7918   26.2619 Cl      1  UNL1       -0.0799
     22 C          -8.9174  -16.8399   26.9193 C.ar    1  UNL1        0.1529
     23 F          -8.8391  -16.4329   28.3609 F       1  UNL1       -0.2032
     24 C          -9.6851  -18.0674   26.5272 C.ar    1  UNL1        0.0614
     25 C          -9.7634  -18.4744   25.0856 C.ar    1  UNL1        0.1559
     26 F         -10.5311  -19.7020   24.6935 F       1  UNL1       -0.2028
     27 C         -10.4781  -18.0869   21.8935 C.3     1  UNL1        0.1294
     28 C         -11.4262  -16.9337   22.0390 C.3     1  UNL1        0.1524
     29 C         -12.4086  -17.8292   22.7340 C.3     1  UNL1        0.0371
     30 C         -10.4438  -16.0383   21.3441 C.3     1  UNL1        0.0371
     31 F         -12.3744  -15.7805   22.1846 F       1  UNL1       -0.2382
@<TRIPOS>UNITY_ATOM_ATTR
15 1
charge -1
@<TRIPOS>BOND
     1     7     8    1
     2     8     1    1
     3     1     2   ar
     4     2     3   ar
     5     3    17    1
     6    17    27    1
     7    27    28    1
     8    28    29    1
     9    28    30    1
    10    28    31    1
    11    17    18    1
    12    18    19   ar
    13    19    20   ar
    14    20    21    1
    15    20    22   ar
    16    22    23    1
    17    22    24   ar
    18    24    25   ar
    19    25    26    1
    20     3     4   ar
    21     4     5   ar
    22     5     6   ar
    23     6     9    1
    24     9    10    2
    25    11     9    1
    26    11    12    1
    27    12    13    1
    28    13    14    1
    29    14    15   ar
    30    14    16   ar
    31     6     1   ar
    32    13    11    1
    33    25    18   ar
@<TRIPOS>MOLECULE
*****
 31 33 0 0 0
SMALL
GASTEIGER

@<TRIPOS>ATOM
      1 C          -6.2252  -19.2359   22.2008 C.ar    1  UNL1        0.2472
      2 N          -7.4679  -18.6012   22.7509 N.ar    1  UNL1       -0.1934
      3 C          -7.4001  -17.2412   23.3800 C.ar    1  UNL1        0.1580
      4 C          -6.0896  -16.5159   23.4590 C.ar    1  UNL1        0.1337
      5 N          -4.8468  -17.1506   22.9089 N.ar    1  UNL1       -0.2333
      6 C          -4.9146  -18.5106   22.2798 C.ar    1  UNL1        0.1689
      7 C          -6.3263  -20.7305   20.0781 C.3     1  UNL1        0.2543
      8 O          -6.2930  -20.5959   21.5716 O.3     1  UNL1       -0.4550
      9 C          -3.6718  -19.1453   21.7297 C.2     1  UNL1        0.1950
     10 O          -3.1008  -20.3677   22.3850 O.2     1  UNL1       -0.2896
     11 C          -3.0000  -18.5574   20.5242 C.3     1  UNL1        0.0692
     12 C          -3.0836  -17.9861   19.1398 C.3     1  UNL1        0.0141
     13 C          -1.7528  -18.1105   19.8207 C.3     1  UNL1        0.0443
     14 C          -0.2645  -17.9243   19.8077 C.2     1  UNL1        0.0504
     15 O           0.6370  -19.1032   19.5898 O.co2   1  UNL1       -0.5492
     16 O           0.3223  -16.5591   20.0126 O.co2   1  UNL1       -0.5492
     17 N          -8.6430  -16.6066   23.9301 N.pl3   1  UNL1       -0.2665
     18 C          -9.9838  -16.9680   23.3631 C.ar    1  UNL1        0.0815
     19 C         -10.4804  -16.2895   22.1208 C.ar    1  UNL1        0.0308
     20 C         -11.8212  -16.6509   21.5538 C.ar    1  UNL1        0.0864
     21 CL        -12.3177  -15.9724   20.3116 Cl      1  UNL1       -0.0799
     22 C         -12.6654  -17.6909   22.2288 C.ar    1  UNL1        0.1529
     23 F         -14.0062  -18.0523   21.6618 F       1  UNL1       -0.2032
     24 C         -12.1689  -18.3694   23.4710 C.ar    1  UNL1        0.0614
     25 C         -10.8280  -18.0079   24.0382 C.ar    1  UNL1        0.1559
     26 F         -10.3315  -18.6865   25.2803 F       1  UNL1       -0.2028
     27 C          -8.5450  -15.6104   25.0474 C.3     1  UNL1        0.1294
     28 C          -7.7332  -15.9296   26.2677 C.3     1  UNL1        0.1524
     29 C          -6.6870  -14.9487   25.8282 C.3     1  UNL1        0.0371
     30 C          -8.7795  -16.9105   26.7071 C.3     1  UNL1        0.0371
     31 F          -6.9214  -16.2487   27.4880 F       1  UNL1       -0.2382
@<TRIPOS>UNITY_ATOM_ATTR
15 1
charge -1
@<TRIPOS>BOND
     1     7     8    1
     2     8     1    1
     3     1     2   ar
     4     2     3   ar
     5     3    17    1
     6    17    27    1
     7    27    28    1
     8    28    29    1
     9    28    30    1
    10    28    31    1
    11    17    18    1
    12    18    19   ar
    13    19    20   ar
    14    20    21    1
    15    20    22   ar
    16    22    23    1
    17    22    24   ar
    18    24    25   ar
    19    25    26    1
    20     3     4   ar
    21     4     5   ar
    22     5     6   ar
    23     6     9    1
    24     9    10    2
    25    11     9    1
    26    11    12    1
    27    12    13    1
    28    13    14    1
    29    14    15   ar
    30    14    16   ar
    31     6     1   ar
    32    13    11    1
    33    25    18   ar
@<TRIPOS>MOLECULE
*****
 31 33 0 0 0
SMALL
GASTEIGER

@<TRIPOS>ATOM
      1 C          -4.9957  -18.7016   21.7920 C.ar    1  UNL1        0.2472
      2 N          -6.2215  -18.1959   22.4931 N.ar    1  UNL1       -0.1934
      3 C          -7.5487  -18.2195   21.7945 C.ar    1  UNL1        0.1580
      4 C          -7.6501  -18.7489   20.3947 C.ar    1  UNL1        0.1337
      5 N          -6.4243  -19.2546   19.6936 N.ar    1  UNL1       -0.2333
      6 C          -5.0971  -19.2310   20.3922 C.ar    1  UNL1        0.1689
      7 C          -2.8768  -17.4056   22.5537 C.3     1  UNL1        0.2543
      8 O          -3.6685  -18.6780   22.4906 O.3     1  UNL1       -0.4550
      9 C          -3.8713  -19.7367   19.6909 C.2     1  UNL1        0.1950
     10 O          -3.6176  -21.2119   19.5940 O.2     1  UNL1       -0.2896
     11 C          -2.8992  -18.7672   19.0867 C.3     1  UNL1        0.0692
     12 C          -2.5570  -17.7591   18.0300 C.3     1  UNL1        0.0141
     13 C          -1.5578  -18.0962   19.0967 C.3     1  UNL1        0.0443
     14 C          -0.2064  -17.9033   19.7184 C.2     1  UNL1        0.0504
     15 O           0.1712  -16.5705   20.2939 O.co2   1  UNL1       -0.5492
     16 O           0.7675  -19.0432   19.7646 O.co2   1  UNL1       -0.5492
     17 N          -8.7745  -17.7138   22.4958 N.pl3   1  UNL1       -0.2665
     18 C          -8.6414  -16.9332   23.7697 C.ar    1  UNL1        0.0815
     19 C          -9.0028  -17.5683   25.0797 C.ar    1  UNL1        0.0308
     20 C          -8.8697  -16.7877   26.3537 C.ar    1  UNL1        0.0864
     21 CL         -9.2310  -17.4229   27.6636 Cl      1  UNL1       -0.0799
     22 C          -8.3753  -15.3720   26.3176 C.ar    1  UNL1        0.1529
     23 F          -8.2422  -14.5914   27.5916 F       1  UNL1       -0.2032
     24 C          -8.0140  -14.7369   25.0077 C.ar    1  UNL1        0.0614
     25 C          -8.1470  -15.5175   23.7337 C.ar    1  UNL1        0.1559
     26 F          -7.7857  -14.8823   22.4238 F       1  UNL1       -0.2028
     27 C         -10.1333  -17.9887   21.9230 C.3     1  UNL1        0.1294
     28 C         -11.2489  -18.4362   22.8203 C.3     1  UNL1        0.1524
     29 C         -10.6696  -19.8195   22.8505 C.3     1  UNL1        0.0371
     30 C         -11.8281  -17.0529   22.7901 C.3     1  UNL1        0.0371
     31 F         -12.3645  -18.8838   23.7176 F       1  UNL1       -0.2382
@<TRIPOS>UNITY_ATOM_ATTR
15 1
charge -1
@<TRIPOS>BOND
     1     7     8    1
     2     8     1    1
     3     1     2   ar
     4     2     3   ar
     5     3    17    1
     6    17    27    1
     7    27    28    1
     8    28    29    1
     9    28    30    1
    10    28    31    1
    11    17    18    1
    12    18    19   ar
    13    19    20   ar
    14    20    21    1
    15    20    22   ar
    16    22    23    1
    17    22    24   ar
    18    24    25   ar
    19    25    26    1
    20     3     4   ar
    21     4     5   ar
    22     5     6   ar
    23     6     9    1
    24     9    10    2
    25    11     9    1
    26    11    12    1
    27    12    13    1
    28    13    14    1
    29    14    15   ar
    30    14    16   ar
    31     6     1   ar
    32    13    11    1
    33    25    18   ar
@<TRIPOS>MOLECULE
*****
 31 33 0 0 0
SMALL
GASTEIGER

@<TRIPOS>ATOM
      1 C          -5.0483  -18.3469   22.5440 C.ar    1  UNL1        0.2472
      2 N          -6.5391  -18.2010   22.6215 N.ar    1  UNL1       -0.1934
      3 C          -7.1420  -16.9380   23.1611 C.ar    1  UNL1        0.1580
      4 C          -6.2541  -15.8208   23.6232 C.ar    1  UNL1        0.1337
      5 N          -4.7633  -15.9668   23.5457 N.ar    1  UNL1       -0.2333
      6 C          -4.1604  -17.2298   23.0061 C.ar    1  UNL1        0.1689
      7 C          -4.9071  -20.1582   20.6868 C.3     1  UNL1        0.2543
      8 O          -4.4453  -19.6100   22.0044 O.3     1  UNL1       -0.4550
      9 C          -2.6694  -17.3757   22.9286 C.2     1  UNL1        0.1950
     10 O          -1.8995  -17.8532   24.1240 O.2     1  UNL1       -0.2896
     11 C          -1.9486  -17.0440   21.6557 C.3     1  UNL1        0.0692
     12 C          -0.8127  -16.3713   20.9435 C.3     1  UNL1        0.0141
     13 C          -1.8359  -17.1423   20.1632 C.3     1  UNL1        0.0443
     14 C          -2.3615  -17.6441   18.8510 C.2     1  UNL1        0.0504
     15 O          -1.4076  -18.0480   17.7660 O.co2   1  UNL1       -0.5492
     16 O          -3.8409  -17.7420   18.6237 O.co2   1  UNL1       -0.5492
     17 N          -8.6330  -16.7921   23.2386 N.pl3   1  UNL1       -0.2665
     18 C          -9.4899  -17.2256   22.0863 C.ar    1  UNL1        0.0815
     19 C         -10.1931  -16.2002   21.2471 C.ar    1  UNL1        0.0308
     20 C         -11.0500  -16.6338   20.0949 C.ar    1  UNL1        0.0864
     21 CL        -11.7532  -15.6084   19.2558 Cl      1  UNL1       -0.0799
     22 C         -11.2037  -18.0926   19.7817 C.ar    1  UNL1        0.1529
     23 F         -12.0606  -18.5262   18.6294 F       1  UNL1       -0.2032
     24 C         -10.5005  -19.1180   20.6208 C.ar    1  UNL1        0.0614
     25 C          -9.6435  -18.6845   21.7731 C.ar    1  UNL1        0.1559
     26 F          -8.9403  -19.7098   22.6122 F       1  UNL1       -0.2028
     27 C          -9.2669  -16.2127   24.4684 C.3     1  UNL1        0.1294
     28 C          -9.0122  -16.8366   25.8084 C.3     1  UNL1        0.1524
     29 C          -8.3576  -15.5698   26.2738 C.3     1  UNL1        0.0371
     30 C          -9.6668  -18.1034   25.3431 C.3     1  UNL1        0.0371
     31 F          -8.7574  -17.4605   27.1486 F       1  UNL1       -0.2382
@<TRIPOS>UNITY_ATOM_ATTR
15 1
charge -1
@<TRIPOS>BOND
     1     7     8    1
     2     8     1    1
     3     1     2   ar
     4     2     3   ar
     5     3    17    1
     6    17    27    1
     7    27    28    1
     8    28    29    1
     9    28    30    1
    10    28    31    1
    11    17    18    1
    12    18    19   ar
    13    19    20   ar
    14    20    21    1
    15    20    22   ar
    16    22    23    1
    17    22    24   ar
    18    24    25   ar
    19    25    26    1
    20     3     4   ar
    21     4     5   ar
    22     5     6   ar
    23     6     9    1
    24     9    10    2
    25    11     9    1
    26    11    12    1
    27    12    13    1
    28    13    14    1
    29    14    15   ar
    30    14    16   ar
    31     6     1   ar
    32    13    11    1
    33    25    18   ar
@<TRIPOS>MOLECULE
*****
 31 33 0 0 0
SMALL
GASTEIGER

@<TRIPOS>ATOM
      1 C          -9.2793  -18.2469   22.4880 C.ar    1  UNL1        0.2472
      2 N          -7.9799  -17.8693   23.1352 N.ar    1  UNL1       -0.1934
      3 C          -7.4248  -16.4878   22.9529 C.ar    1  UNL1        0.1580
      4 C          -8.1690  -15.4839   22.1234 C.ar    1  UNL1        0.1337
      5 N          -9.4684  -15.8615   21.4761 N.ar    1  UNL1       -0.2333
      6 C         -10.0235  -17.2430   21.6584 C.ar    1  UNL1        0.1689
      7 C          -9.2333  -20.5497   23.6901 C.3     1  UNL1        0.2543
      8 O          -9.8344  -19.6285   22.6703 O.3     1  UNL1       -0.4550
      9 C         -11.3230  -17.6207   21.0112 C.2     1  UNL1        0.1950
     10 O         -11.4040  -17.7658   19.5204 O.2     1  UNL1       -0.2896
     11 C         -12.5414  -17.8531   21.8547 C.3     1  UNL1        0.0692
     12 C         -14.0337  -17.9187   21.9910 C.3     1  UNL1        0.0141
     13 C         -13.1593  -18.1900   23.1792 C.3     1  UNL1        0.0443
     14 C         -13.0113  -18.5412   24.6300 C.2     1  UNL1        0.0504
     15 O         -11.6530  -18.8312   25.1967 O.co2   1  UNL1       -0.5492
     16 O         -14.2215  -18.6023   25.5141 O.co2   1  UNL1       -0.5492
     17 N          -6.1253  -16.1102   23.6002 N.pl3   1  UNL1       -0.2665
     18 C          -4.8314  -16.6197   23.0380 C.ar    1  UNL1        0.0815
     19 C          -4.6117  -18.0951   22.8796 C.ar    1  UNL1        0.0308
     20 C          -3.3178  -18.6046   22.3173 C.ar    1  UNL1        0.0864
     21 CL         -3.0982  -20.0799   22.1590 Cl      1  UNL1       -0.0799
     22 C          -2.2436  -17.6388   21.9134 C.ar    1  UNL1        0.1529
     23 F          -0.9496  -18.1483   21.3512 F       1  UNL1       -0.2032
     24 C          -2.4632  -16.1634   22.0718 C.ar    1  UNL1        0.0614
     25 C          -3.7571  -15.6539   22.6341 C.ar    1  UNL1        0.1559
     26 F          -3.9768  -14.1785   22.7924 F       1  UNL1       -0.2028
     27 C          -6.1199  -15.2231   24.8098 C.3     1  UNL1        0.1294
     28 C          -6.4451  -15.7924   26.1589 C.3     1  UNL1        0.1524
     29 C          -7.8929  -15.4606   25.9498 C.3     1  UNL1        0.0371
     30 C          -4.9973  -16.1241   26.3679 C.3     1  UNL1        0.0371
     31 F          -6.7704  -16.3617   27.5080 F       1  UNL1       -0.2382
@<TRIPOS>UNITY_ATOM_ATTR
15 1
charge -1
@<TRIPOS>BOND
     1     7     8    1
     2     8     1    1
     3     1     2   ar
     4     2     3   ar
     5     3    17    1
     6    17    27    1
     7    27    28    1
     8    28    29    1
     9    28    30    1
    10    28    31    1
    11    17    18    1
    12    18    19   ar
    13    19    20   ar
    14    20    21    1
    15    20    22   ar
    16    22    23    1
    17    22    24   ar
    18    24    25   ar
    19    25    26    1
    20     3     4   ar
    21     4     5   ar
    22     5     6   ar
    23     6     9    1
    24     9    10    2
    25    11     9    1
    26    11    12    1
    27    12    13    1
    28    13    14    1
    29    14    15   ar
    30    14    16   ar
    31     6     1   ar
    32    13    11    1
    33    25    18   ar
@<TRIPOS>MOLECULE
*****
 31 33 0 0 0
SMALL
GASTEIGER

@<TRIPOS>ATOM
      1 C          -8.3681  -18.3134   21.2834 C.ar    1  UNL1        0.2472
      2 N          -6.9798  -17.7954   21.5166 N.ar    1  UNL1       -0.1934
      3 C          -6.5315  -17.4505   22.9059 C.ar    1  UNL1        0.1580
      4 C          -7.4714  -17.6237   24.0620 C.ar    1  UNL1        0.1337
      5 N          -8.8596  -18.1418   23.8288 N.ar    1  UNL1       -0.2333
      6 C          -9.3080  -18.4866   22.4395 C.ar    1  UNL1        0.1689
      7 C          -8.3883  -19.9520   19.2674 C.3     1  UNL1        0.2543
      8 O          -8.8164  -18.6583   19.8942 O.3     1  UNL1       -0.4550
      9 C         -10.6963  -19.0047   22.2063 C.2     1  UNL1        0.1950
     10 O         -11.0296  -20.4302   22.5332 O.2     1  UNL1       -0.2896
     11 C         -11.7512  -18.0972   21.6463 C.3     1  UNL1        0.0692
     12 C         -13.1880  -17.6760   21.5560 C.3     1  UNL1        0.0141
     13 C         -12.1416  -16.9467   20.7667 C.3     1  UNL1        0.0443
     14 C         -11.7628  -15.8613   19.8031 C.2     1  UNL1        0.0504
     15 O         -10.3657  -15.3152   19.7998 O.co2   1  UNL1       -0.5492
     16 O         -12.7811  -15.3221   18.8427 O.co2   1  UNL1       -0.5492
     17 N          -5.1432  -16.9324   23.1391 N.pl3   1  UNL1       -0.2665
     18 C          -3.9864  -17.5232   22.3889 C.ar    1  UNL1        0.0815
     19 C          -2.9172  -16.6293   21.8341 C.ar    1  UNL1        0.0308
     20 C          -1.7604  -17.2200   21.0839 C.ar    1  UNL1        0.0864
     21 CL         -0.6913  -16.3261   20.5291 Cl      1  UNL1       -0.0799
     22 C          -1.6727  -18.7047   20.8886 C.ar    1  UNL1        0.1529
     23 F          -0.5159  -19.2954   20.1384 F       1  UNL1       -0.2032
     24 C          -2.7419  -19.5985   21.4434 C.ar    1  UNL1        0.0614
     25 C          -3.8987  -19.0078   22.1936 C.ar    1  UNL1        0.1559
     26 F          -4.9679  -19.9017   22.7484 F       1  UNL1       -0.2028
     27 C          -4.9118  -15.8236   24.1224 C.3     1  UNL1        0.1294
     28 C          -5.2737  -16.0134   25.5656 C.3     1  UNL1        0.1524
     29 C          -6.3073  -14.9327   25.4486 C.3     1  UNL1        0.0371
     30 C          -4.2400  -17.0941   25.6827 C.3     1  UNL1        0.0371
     31 F          -5.6355  -16.2032   27.0090 F       1  UNL1       -0.2382
@<TRIPOS>UNITY_ATOM_ATTR
15 1
charge -1
@<TRIPOS>BOND
     1     7     8    1
     2     8     1    1
     3     1     2   ar
     4     2     3   ar
     5     3    17    1
     6    17    27    1
     7    27    28    1
     8    28    29    1
     9    28    30    1
    10    28    31    1
    11    17    18    1
    12    18    19   ar
    13    19    20   ar
    14    20    21    1
    15    20    22   ar
    16    22    23    1
    17    22    24   ar
    18    24    25   ar
    19    25    26    1
    20     3     4   ar
    21     4     5   ar
    22     5     6   ar
    23     6     9    1
    24     9    10    2
    25    11     9    1
    26    11    12    1
    27    12    13    1
    28    13    14    1
    29    14    15   ar
    30    14    16   ar
    31     6     1   ar
    32    13    11    1
    33    25    18   ar
@<TRIPOS>MOLECULE
*****
 31 33 0 0 0
SMALL
GASTEIGER

@<TRIPOS>ATOM
      1 C          -8.6332  -18.0777   21.6921 C.ar    1  UNL1        0.2472
      2 N          -7.2647  -18.2378   22.2848 N.ar    1  UNL1       -0.1934
      3 C          -6.5960  -17.0734   22.9534 C.ar    1  UNL1        0.1580
      4 C          -7.2958  -15.7489   23.0293 C.ar    1  UNL1        0.1337
      5 N          -8.6644  -15.5888   22.4366 N.ar    1  UNL1       -0.2333
      6 C          -9.3331  -16.7532   21.7680 C.ar    1  UNL1        0.1689
      7 C          -9.0699  -19.5040   19.5649 C.3     1  UNL1        0.2543
      8 O          -9.3019  -19.2421   21.0235 O.3     1  UNL1       -0.4550
      9 C         -10.7017  -16.5930   21.1753 C.2     1  UNL1        0.1950
     10 O         -10.8947  -15.7478   19.9513 O.2     1  UNL1       -0.2896
     11 C         -11.8773  -17.2781   21.8066 C.3     1  UNL1        0.0692
     12 C         -13.3038  -17.7368   21.7390 C.3     1  UNL1        0.0141
     13 C         -12.4869  -18.0061   22.9678 C.3     1  UNL1        0.0443
     14 C         -12.3673  -18.5819   24.3477 C.2     1  UNL1        0.0504
     15 O         -13.5502  -18.5713   25.2700 O.co2   1  UNL1       -0.5492
     16 O         -11.0647  -19.1683   24.8054 O.co2   1  UNL1       -0.5492
     17 N          -5.2273  -17.2336   23.5462 N.pl3   1  UNL1       -0.2665
     18 C          -4.0865  -17.6911   22.6864 C.ar    1  UNL1        0.0815
     19 C          -3.0558  -16.7056   22.2212 C.ar    1  UNL1        0.0308
     20 C          -1.9150  -17.1631   21.3614 C.ar    1  UNL1        0.0864
     21 CL         -0.8843  -16.1776   20.8962 Cl      1  UNL1       -0.0799
     22 C          -1.8048  -18.6061   20.9669 C.ar    1  UNL1        0.1529
     23 F          -0.6640  -19.0636   20.1071 F       1  UNL1       -0.2032
     24 C          -2.8355  -19.5916   21.4321 C.ar    1  UNL1        0.0614
     25 C          -3.9764  -19.1341   22.2919 C.ar    1  UNL1        0.1559
     26 F          -5.0071  -20.1196   22.7571 F       1  UNL1       -0.2028
     27 C          -4.9996  -16.9363   24.9987 C.3     1  UNL1        0.1294
     28 C          -5.4859  -15.6441   25.5849 C.3     1  UNL1        0.1524
     29 C          -6.2335  -16.4041   26.6400 C.3     1  UNL1        0.0371
     30 C          -4.7382  -14.8840   24.5298 C.3     1  UNL1        0.0371
     31 F          -5.9722  -14.3519   26.1712 F       1  UNL1       -0.2382
@<TRIPOS>UNITY_ATOM_ATTR
15 1
charge -1
@<TRIPOS>BOND
     1     7     8    1
     2     8     1    1
     3     1     2   ar
     4     2     3   ar
     5     3    17    1
     6    17    27    1
     7    27    28    1
     8    28    29    1
     9    28    30    1
    10    28    31    1
    11    17    18    1
    12    18    19   ar
    13    19    20   ar
    14    20    21    1
    15    20    22   ar
    16    22    23    1
    17    22    24   ar
    18    24    25   ar
    19    25    26    1
    20     3     4   ar
    21     4     5   ar
    22     5     6   ar
    23     6     9    1
    24     9    10    2
    25    11     9    1
    26    11    12    1
    27    12    13    1
    28    13    14    1
    29    14    15   ar
    30    14    16   ar
    31     6     1   ar
    32    13    11    1
    33    25    18   ar
