@<TRIPOS>MOLECULE
*****
 26 28 0 0 0
SMALL
GASTEIGER

@<TRIPOS>ATOM
      1 C          -8.9708  -17.8165   22.6964 C.3     1  UNL1        0.0509
      2 C          -8.3479  -16.8283   23.6374 C.3     1  UNL1        0.0091
      3 C          -7.0544  -16.1606   23.2756 C.3     1  UNL1        0.0175
      4 C          -6.4316  -15.1723   24.2166 C.3     1  UNL1        0.0686
      5 N          -7.1023  -14.8517   25.5194 N.3     1  UNL1       -0.2975
      6 C          -8.3959  -15.5195   25.8812 C.3     1  UNL1        0.0686
      7 C          -9.0187  -16.5077   24.9402 C.3     1  UNL1        0.0175
      8 H          -7.2792  -13.8472   25.5202 H       1  UNL1        0.1232
      9 C         -10.1142  -17.3995   21.8197 C.ar    1  UNL1        0.0546
     10 C         -11.4560  -18.0658   21.7443 C.ar    1  UNL1        0.1131
     11 N         -12.2876  -17.3211   20.7424 N.ar    1  UNL1       -0.2229
     12 C         -11.4598  -16.1945   20.1986 C.ar    1  UNL1        0.1748
     13 N         -10.1166  -16.2431   20.8643 N.ar    1  UNL1       -0.3382
     14 H          -9.3679  -15.6245   20.7027 H       1  UNL1        0.1672
     15 C          -8.4501  -19.2218   22.6321 C.3     1  UNL1        0.0680
     16 S          -7.7561  -19.7087   21.3947 S.3     1  UNL1       -0.1133
     17 C          -3.4278  -18.6948   20.6961 C.ar    1  UNL1       -0.0228
     18 C          -3.9464  -18.8453   22.0955 C.ar    1  UNL1       -0.0038
     19 C          -5.3892  -19.1833   22.3284 C.ar    1  UNL1        0.0058
     20 C          -6.3133  -19.3707   21.1619 C.ar    1  UNL1        0.0252
     21 C          -5.7947  -19.2201   19.7625 C.ar    1  UNL1        0.0058
     22 C          -4.3519  -18.8822   19.5296 C.ar    1  UNL1       -0.0038
     23 C          -2.2554  -18.2147   18.9947 C.3     1  UNL1        0.0044
     24 C          -1.9850  -18.3568   20.4632 C.3     1  UNL1        0.0189
     25 C          -1.7147  -18.4989   21.9318 C.3     1  UNL1        0.0044
     26 C          -0.5423  -18.0188   20.2304 C.3     1  UNL1        0.0044
@<TRIPOS>BOND
     1    23    24    1
     2    24    25    1
     3    24    26    1
     4    24    17    1
     5    17    18   ar
     6    18    19   ar
     7    19    20   ar
     8    20    16    1
     9    16    15    1
    10    15     1    1
    11     1     9    1
    12     9    10   ar
    13    10    11   ar
    14    11    12   ar
    15    12    13   ar
    16     1     2    1
    17     2     3    1
    18     3     4    1
    19     4     5    1
    20     5     6    1
    21     6     7    1
    22    20    21   ar
    23    21    22   ar
    24    22    17   ar
    25    13     9   ar
    26     7     2    1
    27    13    14    1
    28     5     8    1
@<TRIPOS>MOLECULE
*****
 26 28 0 0 0
SMALL
GASTEIGER

@<TRIPOS>ATOM
      1 C          -4.8109  -18.7480   21.9167 C.3     1  UNL1        0.0509
      2 C          -3.5828  -18.6469   21.0615 C.3     1  UNL1        0.0091
      3 C          -3.7108  -18.6003   19.5677 C.3     1  UNL1        0.0175
      4 C          -2.4826  -18.4993   18.7124 C.3     1  UNL1        0.0686
      5 N          -1.1264  -18.4448   19.3510 N.3     1  UNL1       -0.2975
      6 C          -0.9984  -18.4914   20.8449 C.3     1  UNL1        0.0686
      7 C          -2.2266  -18.5925   21.7000 C.3     1  UNL1        0.0175
      8 H          -0.6918  -17.5742   19.0452 H       1  UNL1        0.1232
      9 C          -5.1686  -17.6301   22.8507 C.ar    1  UNL1        0.0546
     10 C          -4.3261  -17.1244   23.9840 C.ar    1  UNL1        0.1131
     11 N          -5.0683  -16.0034   24.6491 N.ar    1  UNL1       -0.2229
     12 C          -6.3696  -15.8162   23.9268 C.ar    1  UNL1        0.1748
     13 N          -6.4315  -16.8216   22.8153 N.ar    1  UNL1       -0.3382
     14 H          -7.1713  -16.9315   22.1750 H       1  UNL1        0.1672
     15 C          -5.6814  -19.9671   21.8380 C.3     1  UNL1        0.0680
     16 S          -6.8842  -19.9732   20.9417 S.3     1  UNL1       -0.1133
     17 C         -10.8930  -18.7075   22.5471 C.ar    1  UNL1       -0.0228
     18 C         -10.5828  -18.5420   21.0889 C.ar    1  UNL1       -0.0038
     19 C          -9.2465  -18.9638   20.5538 C.ar    1  UNL1        0.0058
     20 C          -8.2204  -19.5513   21.4768 C.ar    1  UNL1        0.0252
     21 C          -8.5307  -19.7169   22.9350 C.ar    1  UNL1        0.0058
     22 C          -9.8670  -19.2950   23.4701 C.ar    1  UNL1       -0.0038
     23 C         -11.8338  -18.7646   24.4475 C.3     1  UNL1        0.0044
     24 C         -12.2293  -18.2857   23.0822 C.3     1  UNL1        0.0189
     25 C         -12.6249  -17.8067   21.7169 C.3     1  UNL1        0.0044
     26 C         -13.5656  -17.8638   23.6173 C.3     1  UNL1        0.0044
@<TRIPOS>BOND
     1    23    24    1
     2    24    25    1
     3    24    26    1
     4    24    17    1
     5    17    18   ar
     6    18    19   ar
     7    19    20   ar
     8    20    16    1
     9    16    15    1
    10    15     1    1
    11     1     9    1
    12     9    10   ar
    13    10    11   ar
    14    11    12   ar
    15    12    13   ar
    16     1     2    1
    17     2     3    1
    18     3     4    1
    19     4     5    1
    20     5     6    1
    21     6     7    1
    22    20    21   ar
    23    21    22   ar
    24    22    17   ar
    25    13     9   ar
    26     7     2    1
    27    13    14    1
    28     5     8    1
@<TRIPOS>MOLECULE
*****
 26 28 0 0 0
SMALL
GASTEIGER

@<TRIPOS>ATOM
      1 C          -9.0701  -17.7308   22.7537 C.3     1  UNL1        0.0509
      2 C         -10.5343  -17.7841   23.0753 C.3     1  UNL1        0.0091
      3 C         -11.5013  -16.9275   22.3129 C.3     1  UNL1        0.0175
      4 C         -12.9655  -16.9808   22.6345 C.3     1  UNL1        0.0686
      5 N         -13.4626  -17.8907   23.7185 N.3     1  UNL1       -0.2975
      6 C         -12.4955  -18.7472   24.4809 C.3     1  UNL1        0.0686
      7 C         -11.0314  -18.6939   24.1593 C.3     1  UNL1        0.0175
      8 H         -14.1378  -18.5216   23.2868 H       1  UNL1        0.1232
      9 C          -8.1776  -16.7674   23.4785 C.ar    1  UNL1        0.0546
     10 C          -8.3347  -16.3197   24.9014 C.ar    1  UNL1        0.1131
     11 N          -7.2255  -15.3583   25.2100 N.ar    1  UNL1       -0.2229
     12 C          -6.3827  -15.2118   23.9777 C.ar    1  UNL1        0.1748
     13 N          -6.9712  -16.0827   22.9076 N.ar    1  UNL1       -0.3382
     14 H          -6.6262  -16.1867   21.9914 H       1  UNL1        0.1672
     15 C          -8.4985  -18.6408   21.7072 C.3     1  UNL1        0.0680
     16 S          -7.3668  -19.5628   22.0522 S.3     1  UNL1       -0.1133
     17 C          -3.1931  -18.6224   20.6572 C.ar    1  UNL1       -0.0228
     18 C          -3.5260  -18.5659   22.1187 C.ar    1  UNL1       -0.0038
     19 C          -4.9172  -18.8794   22.5836 C.ar    1  UNL1        0.0058
     20 C          -5.9755  -19.2494   21.5872 C.ar    1  UNL1        0.0252
     21 C          -5.6426  -19.3059   20.1257 C.ar    1  UNL1        0.0058
     22 C          -4.2514  -18.9924   19.6607 C.ar    1  UNL1       -0.0038
     23 C          -1.2836  -18.5527   21.5785 C.3     1  UNL1        0.0044
     24 C          -1.8019  -18.3089   20.1922 C.3     1  UNL1        0.0189
     25 C          -2.3202  -18.0650   18.8059 C.3     1  UNL1        0.0044
     26 C          -0.4106  -17.9954   19.7272 C.3     1  UNL1        0.0044
@<TRIPOS>BOND
     1    23    24    1
     2    24    25    1
     3    24    26    1
     4    24    17    1
     5    17    18   ar
     6    18    19   ar
     7    19    20   ar
     8    20    16    1
     9    16    15    1
    10    15     1    1
    11     1     9    1
    12     9    10   ar
    13    10    11   ar
    14    11    12   ar
    15    12    13   ar
    16     1     2    1
    17     2     3    1
    18     3     4    1
    19     4     5    1
    20     5     6    1
    21     6     7    1
    22    20    21   ar
    23    21    22   ar
    24    22    17   ar
    25    13     9   ar
    26     7     2    1
    27    13    14    1
    28     5     8    1
@<TRIPOS>MOLECULE
*****
 26 28 0 0 0
SMALL
GASTEIGER

@<TRIPOS>ATOM
      1 C         -12.1676   -4.4738   18.1638 C.3     1  UNL1        0.0509
      2 C         -11.4086   -5.7634   18.0585 C.3     1  UNL1        0.0091
      3 C         -10.3183   -6.0742   19.0405 C.3     1  UNL1        0.0175
      4 C          -9.5592   -7.3638   18.9352 C.3     1  UNL1        0.0686
      5 N          -9.8906   -8.3424   17.8478 N.3     1  UNL1       -0.2975
      6 C         -10.9810   -8.0315   16.8657 C.3     1  UNL1        0.0686
      7 C         -11.7399   -6.7420   16.9710 C.3     1  UNL1        0.0175
      8 H         -10.1479   -9.2163   18.3065 H       1  UNL1        0.1232
      9 C         -11.5403   -3.1940   17.6966 C.ar    1  UNL1        0.0546
     10 C         -11.4781   -1.9094   18.4685 C.ar    1  UNL1        0.1131
     11 N         -10.7644   -0.8955   17.6244 N.ar    1  UNL1       -0.2229
     12 C         -10.3854   -1.5534   16.3307 C.ar    1  UNL1        0.1748
     13 N         -10.8650   -2.9740   16.3754 N.ar    1  UNL1       -0.3382
     14 H         -10.7557   -3.6443   15.6626 H       1  UNL1        0.1672
     15 C         -13.5540   -4.4642   18.7364 C.3     1  UNL1        0.0680
     16 S         -13.9796   -5.5421   19.6888 S.3     1  UNL1       -0.1133
     17 C         -17.1067   -8.5321   18.4513 C.ar    1  UNL1       -0.0228
     18 C         -17.5186   -7.2239   19.0587 C.ar    1  UNL1       -0.0038
     19 C         -16.4762   -6.2272   19.4712 C.ar    1  UNL1        0.0058
     20 C         -15.0220   -6.5387   19.2763 C.ar    1  UNL1        0.0252
     21 C         -14.6101   -7.8469   18.6689 C.ar    1  UNL1        0.0058
     22 C         -15.6524   -8.8436   18.2564 C.ar    1  UNL1       -0.0038
     23 C         -17.2998  -10.6407   18.5795 C.3     1  UNL1        0.0044
     24 C         -18.1491   -9.5287   18.0388 C.3     1  UNL1        0.0189
     25 C         -18.9983   -8.4168   17.4982 C.3     1  UNL1        0.0044
     26 C         -19.1914  -10.5254   17.6264 C.3     1  UNL1        0.0044
@<TRIPOS>BOND
     1    23    24    1
     2    24    25    1
     3    24    26    1
     4    24    17    1
     5    17    18   ar
     6    18    19   ar
     7    19    20   ar
     8    20    16    1
     9    16    15    1
    10    15     1    1
    11     1     9    1
    12     9    10   ar
    13    10    11   ar
    14    11    12   ar
    15    12    13   ar
    16     1     2    1
    17     2     3    1
    18     3     4    1
    19     4     5    1
    20     5     6    1
    21     6     7    1
    22    20    21   ar
    23    21    22   ar
    24    22    17   ar
    25    13     9   ar
    26     7     2    1
    27    13    14    1
    28     5     8    1
@<TRIPOS>MOLECULE
*****
 26 28 0 0 0
SMALL
GASTEIGER

@<TRIPOS>ATOM
      1 C         -13.3247   -6.1180   19.0049 C.3     1  UNL1        0.0509
      2 C         -12.0978   -5.6922   18.2542 C.3     1  UNL1        0.0091
      3 C         -12.2118   -5.2290   16.8321 C.3     1  UNL1        0.0175
      4 C         -10.9849   -4.8031   16.0814 C.3     1  UNL1        0.0686
      5 N          -9.6441   -4.8406   16.7528 N.3     1  UNL1       -0.2975
      6 C          -9.5301   -5.3038   18.1750 C.3     1  UNL1        0.0686
      7 C         -10.7570   -5.7296   18.9256 C.3     1  UNL1        0.0175
      8 H          -9.2726   -3.8911   16.7217 H       1  UNL1        0.1232
      9 C         -14.1686   -7.2441   18.4856 C.ar    1  UNL1        0.0546
     10 C         -15.3680   -7.1089   17.5951 C.ar    1  UNL1        0.1131
     11 N         -15.9020   -8.4844   17.3248 N.ar    1  UNL1       -0.2229
     12 C         -15.0325   -9.4696   18.0482 C.ar    1  UNL1        0.1748
     13 N         -13.9612   -8.7031   18.7656 N.ar    1  UNL1       -0.3382
     14 H         -13.2473   -9.0897   19.3225 H       1  UNL1        0.1672
     15 C         -13.7076   -5.4177   20.2749 C.3     1  UNL1        0.0680
     16 S         -14.6150   -4.2242   20.2290 S.3     1  UNL1       -0.1133
     17 C         -13.2619   -0.4459   18.1934 C.ar    1  UNL1       -0.0228
     18 C         -14.7077   -0.8433   18.1527 C.ar    1  UNL1       -0.0038
     19 C         -15.1587   -2.1027   18.8313 C.ar    1  UNL1        0.0058
     20 C         -14.1639   -2.9648   19.5505 C.ar    1  UNL1        0.0252
     21 C         -12.7181   -2.5673   19.5912 C.ar    1  UNL1        0.0058
     22 C         -12.2671   -1.3079   18.9126 C.ar    1  UNL1       -0.0038
     23 C         -11.5400    0.1341   17.0985 C.3     1  UNL1        0.0044
     24 C         -12.8109    0.8135   17.5149 C.3     1  UNL1        0.0189
     25 C         -14.0817    1.4930   17.9313 C.3     1  UNL1        0.0044
     26 C         -12.3598    2.0730   16.8363 C.3     1  UNL1        0.0044
@<TRIPOS>BOND
     1    23    24    1
     2    24    25    1
     3    24    26    1
     4    24    17    1
     5    17    18   ar
     6    18    19   ar
     7    19    20   ar
     8    20    16    1
     9    16    15    1
    10    15     1    1
    11     1     9    1
    12     9    10   ar
    13    10    11   ar
    14    11    12   ar
    15    12    13   ar
    16     1     2    1
    17     2     3    1
    18     3     4    1
    19     4     5    1
    20     5     6    1
    21     6     7    1
    22    20    21   ar
    23    21    22   ar
    24    22    17   ar
    25    13     9   ar
    26     7     2    1
    27    13    14    1
    28     5     8    1
@<TRIPOS>MOLECULE
*****
 26 28 0 0 0
SMALL
GASTEIGER

@<TRIPOS>ATOM
      1 C           3.3091   -1.3800   21.4141 C.3     1  UNL1        0.0509
      2 C           3.9620   -1.9681   20.1984 C.3     1  UNL1        0.0091
      3 C           3.9727   -3.4546   19.9980 C.3     1  UNL1        0.0175
      4 C           4.6256   -4.0428   18.7822 C.3     1  UNL1        0.0686
      5 N           5.2677   -3.1444   17.7670 N.3     1  UNL1       -0.2975
      6 C           5.2570   -1.6579   17.9676 C.3     1  UNL1        0.0686
      7 C           4.6041   -1.0698   19.1832 C.3     1  UNL1        0.0175
      8 H           4.8020   -3.3249   16.8777 H       1  UNL1        0.1232
      9 C           2.0964   -0.5095   21.2672 C.ar    1  UNL1        0.0546
     10 C           1.0250   -0.6584   20.2280 C.ar    1  UNL1        0.1131
     11 N           0.0086    0.4217   20.4521 N.ar    1  UNL1       -0.2229
     12 C           0.4519    1.2382   21.6299 C.ar    1  UNL1        0.1748
     13 N           1.7422    0.6626   22.1336 N.ar    1  UNL1       -0.3382
     14 H           2.2648    0.9957   22.8985 H       1  UNL1        0.1672
     15 C           3.8690   -1.6623   22.7768 C.3     1  UNL1        0.0680
     16 S           5.3483   -1.5811   23.0114 S.3     1  UNL1       -0.1133
     17 C           7.6928   -5.3162   23.9069 C.ar    1  UNL1       -0.0228
     18 C           7.6981   -4.7415   22.5214 C.ar    1  UNL1       -0.0038
     19 C           6.9166   -3.4965   22.2229 C.ar    1  UNL1        0.0058
     20 C           6.1298   -2.8261   23.3099 C.ar    1  UNL1        0.0252
     21 C           6.1246   -3.4008   24.6954 C.ar    1  UNL1        0.0058
     22 C           6.9061   -4.6459   24.9939 C.ar    1  UNL1       -0.0038
     23 C           9.0408   -6.5387   22.8166 C.3     1  UNL1        0.0044
     24 C           8.4743   -6.5613   24.2054 C.3     1  UNL1        0.0189
     25 C           7.9079   -6.5839   25.5941 C.3     1  UNL1        0.0044
     26 C           9.2558   -7.8063   24.5039 C.3     1  UNL1        0.0044
@<TRIPOS>BOND
     1    23    24    1
     2    24    25    1
     3    24    26    1
     4    24    17    1
     5    17    18   ar
     6    18    19   ar
     7    19    20   ar
     8    20    16    1
     9    16    15    1
    10    15     1    1
    11     1     9    1
    12     9    10   ar
    13    10    11   ar
    14    11    12   ar
    15    12    13   ar
    16     1     2    1
    17     2     3    1
    18     3     4    1
    19     4     5    1
    20     5     6    1
    21     6     7    1
    22    20    21   ar
    23    21    22   ar
    24    22    17   ar
    25    13     9   ar
    26     7     2    1
    27    13    14    1
    28     5     8    1
@<TRIPOS>MOLECULE
*****
 26 28 0 0 0
SMALL
GASTEIGER

@<TRIPOS>ATOM
      1 C           4.4464   -1.6960   20.1077 C.3     1  UNL1        0.0509
      2 C           3.3375   -0.7713   19.7010 C.3     1  UNL1        0.0091
      3 C           1.9601   -0.9585   20.2645 C.3     1  UNL1        0.0175
      4 C           0.8512   -0.0338   19.8578 C.3     1  UNL1        0.0686
      5 N           1.1198    1.0781   18.8875 N.3     1  UNL1       -0.2975
      6 C           2.4973    1.2653   18.3239 C.3     1  UNL1        0.0686
      7 C           3.6061    0.3406   18.7307 C.3     1  UNL1        0.0175
      8 H           0.8747    1.9477   19.3609 H       1  UNL1        0.1232
      9 C           4.3680   -3.1553   19.7695 C.ar    1  UNL1        0.0546
     10 C           3.8646   -4.2434   20.6710 C.ar    1  UNL1        0.1131
     11 N           3.9648   -5.5433   19.9292 N.ar    1  UNL1       -0.2229
     12 C           4.5302   -5.2586   18.5692 C.ar    1  UNL1        0.1748
     13 N           4.7794   -3.7827   18.4706 N.ar    1  UNL1       -0.3382
     14 H           5.1482   -3.3090   17.6904 H       1  UNL1        0.1672
     15 C           5.6335   -1.1614   20.8525 C.3     1  UNL1        0.0680
     16 S           6.9607   -1.8518   20.7432 S.3     1  UNL1       -0.1133
     17 C           7.8963   -5.3624   23.3984 C.ar    1  UNL1       -0.0228
     18 C           6.9267   -4.3134   23.8559 C.ar    1  UNL1       -0.0038
     19 C           6.6148   -3.1432   22.9709 C.ar    1  UNL1        0.0058
     20 C           7.2725   -3.0220   21.6283 C.ar    1  UNL1        0.0252
     21 C           8.2422   -4.0710   21.1707 C.ar    1  UNL1        0.0058
     22 C           8.5540   -5.2412   22.0558 C.ar    1  UNL1       -0.0038
     23 C           8.8816   -7.2223   23.1343 C.3     1  UNL1        0.0044
     24 C           8.2082   -6.5326   24.2835 C.3     1  UNL1        0.0189
     25 C           7.5347   -5.8429   25.4327 C.3     1  UNL1        0.0044
     26 C           8.5200   -7.7028   25.1686 C.3     1  UNL1        0.0044
@<TRIPOS>BOND
     1    23    24    1
     2    24    25    1
     3    24    26    1
     4    24    17    1
     5    17    18   ar
     6    18    19   ar
     7    19    20   ar
     8    20    16    1
     9    16    15    1
    10    15     1    1
    11     1     9    1
    12     9    10   ar
    13    10    11   ar
    14    11    12   ar
    15    12    13   ar
    16     1     2    1
    17     2     3    1
    18     3     4    1
    19     4     5    1
    20     5     6    1
    21     6     7    1
    22    20    21   ar
    23    21    22   ar
    24    22    17   ar
    25    13     9   ar
    26     7     2    1
    27    13    14    1
    28     5     8    1
@<TRIPOS>MOLECULE
*****
 26 28 0 0 0
SMALL
GASTEIGER

@<TRIPOS>ATOM
      1 C           4.2569   -1.2385   19.7661 C.3     1  UNL1        0.0509
      2 C           2.9459   -0.5279   19.6035 C.3     1  UNL1        0.0091
      3 C           1.8105   -0.8256   20.5373 C.3     1  UNL1        0.0175
      4 C           0.4995   -0.1150   20.3747 C.3     1  UNL1        0.0686
      5 N           0.3240    0.8933   19.2782 N.3     1  UNL1       -0.2975
      6 C           1.4595    1.1911   18.3443 C.3     1  UNL1        0.0686
      7 C           2.7704    0.4805   18.5069 C.3     1  UNL1        0.0175
      8 H           0.0722    1.7745   19.7260 H       1  UNL1        0.1232
      9 C           4.3250   -2.7297   19.6193 C.ar    1  UNL1        0.0546
     10 C           4.2147   -3.7310   20.7307 C.ar    1  UNL1        0.1131
     11 N           4.3368   -5.1016   20.1336 N.ar    1  UNL1       -0.2229
     12 C           4.5226   -4.9474   18.6531 C.ar    1  UNL1        0.1748
     13 N           4.5153   -3.4815   18.3353 N.ar    1  UNL1       -0.3382
     14 H           4.6174   -3.0828   17.4410 H       1  UNL1        0.1672
     15 C           5.4998   -0.4578   20.0756 C.3     1  UNL1        0.0680
     16 S           5.8056   -0.0643   21.4903 S.3     1  UNL1       -0.1133
     17 C           2.4496    0.8059   24.3591 C.ar    1  UNL1       -0.0228
     18 C           3.1126   -0.5395   24.3664 C.ar    1  UNL1       -0.0038
     19 C           4.2313   -0.8296   23.4102 C.ar    1  UNL1        0.0058
     20 C           4.6869    0.2258   22.4466 C.ar    1  UNL1        0.0252
     21 C           4.0239    1.5712   22.4393 C.ar    1  UNL1        0.0058
     22 C           2.9052    1.8613   23.3956 C.ar    1  UNL1       -0.0038
     23 C           0.4095    1.3520   24.1598 C.3     1  UNL1        0.0044
     24 C           1.3309    1.0960   25.3154 C.3     1  UNL1        0.0189
     25 C           2.2524    0.8399   26.4710 C.3     1  UNL1        0.0044
     26 C           0.2123    1.3861   26.2717 C.3     1  UNL1        0.0044
@<TRIPOS>BOND
     1    23    24    1
     2    24    25    1
     3    24    26    1
     4    24    17    1
     5    17    18   ar
     6    18    19   ar
     7    19    20   ar
     8    20    16    1
     9    16    15    1
    10    15     1    1
    11     1     9    1
    12     9    10   ar
    13    10    11   ar
    14    11    12   ar
    15    12    13   ar
    16     1     2    1
    17     2     3    1
    18     3     4    1
    19     4     5    1
    20     5     6    1
    21     6     7    1
    22    20    21   ar
    23    21    22   ar
    24    22    17   ar
    25    13     9   ar
    26     7     2    1
    27    13    14    1
    28     5     8    1
@<TRIPOS>MOLECULE
*****
 26 28 0 0 0
SMALL
GASTEIGER

@<TRIPOS>ATOM
      1 C           6.7965   -4.0067   24.7160 C.3     1  UNL1        0.0509
      2 C           7.6384   -5.0300   24.0131 C.3     1  UNL1        0.0091
      3 C           7.7813   -6.4076   24.5892 C.3     1  UNL1        0.0175
      4 C           8.6231   -7.4309   23.8863 C.3     1  UNL1        0.0686
      5 N           9.3221   -7.0767   22.6073 N.3     1  UNL1       -0.2975
      6 C           9.1792   -5.6991   22.0311 C.3     1  UNL1        0.0686
      7 C           8.3373   -4.6758   22.7340 C.3     1  UNL1        0.0175
      8 H           8.9868   -7.7287   21.8981 H       1  UNL1        0.1232
      9 C           6.8504   -3.8894   26.2104 C.ar    1  UNL1        0.0546
     10 C           7.7194   -2.9476   26.9900 C.ar    1  UNL1        0.1131
     11 N           7.4510   -3.1694   28.4490 N.ar    1  UNL1       -0.2229
     12 C           6.4160   -4.2483   28.5711 C.ar    1  UNL1        0.1748
     13 N           6.0449   -4.6933   27.1876 N.ar    1  UNL1       -0.3382
     14 H           5.3879   -5.3905   26.9607 H       1  UNL1        0.1672
     15 C           5.9007   -3.1006   23.9244 C.3     1  UNL1        0.0680
     16 S           5.0010   -3.6710   22.8684 S.3     1  UNL1       -0.1133
     17 C           2.6067   -0.9239   20.2283 C.ar    1  UNL1       -0.0228
     18 C           3.3066   -2.1112   19.6364 C.ar    1  UNL1       -0.0038
     19 C           4.1047   -3.0270   20.5165 C.ar    1  UNL1        0.0058
     20 C           4.2029   -2.7553   21.9884 C.ar    1  UNL1        0.0252
     21 C           3.5030   -1.5680   22.5802 C.ar    1  UNL1        0.0058
     22 C           2.7049   -0.6522   21.7002 C.ar    1  UNL1       -0.0038
     23 C           0.6865   -0.0297   20.3434 C.3     1  UNL1        0.0044
     24 C           1.8086   -0.0082   19.3482 C.3     1  UNL1        0.0189
     25 C           2.9307    0.0133   18.3530 C.3     1  UNL1        0.0044
     26 C           1.0105    0.9076   18.4682 C.3     1  UNL1        0.0044
@<TRIPOS>BOND
     1    23    24    1
     2    24    25    1
     3    24    26    1
     4    24    17    1
     5    17    18   ar
     6    18    19   ar
     7    19    20   ar
     8    20    16    1
     9    16    15    1
    10    15     1    1
    11     1     9    1
    12     9    10   ar
    13    10    11   ar
    14    11    12   ar
    15    12    13   ar
    16     1     2    1
    17     2     3    1
    18     3     4    1
    19     4     5    1
    20     5     6    1
    21     6     7    1
    22    20    21   ar
    23    21    22   ar
    24    22    17   ar
    25    13     9   ar
    26     7     2    1
    27    13    14    1
    28     5     8    1
