@<TRIPOS>MOLECULE
*****
 33 36 0 0 0
SMALL
GASTEIGER

@<TRIPOS>ATOM
      1 C          -9.3777  -18.5523   20.3766 C.ar    1  UNL1        0.0207
      2 C          -8.4750  -19.6181   19.8296 C.ar    1  UNL1        0.0995
      3 N          -7.1307  -19.8542   20.4516 N.ar    1  UNL1       -0.2101
      4 C          -6.6890  -19.0247   21.6207 C.ar    1  UNL1        0.2310
      5 C          -7.5917  -17.9589   22.1678 C.ar    1  UNL1        0.0694
      6 C          -8.9361  -17.7228   21.5457 C.ar    1  UNL1        0.0051
      7 C          -7.1500  -17.1294   23.3369 C.ar    1  UNL1        0.0684
      8 C          -5.9657  -16.2094   23.3679 C.ar    1  UNL1        0.0150
      9 C          -5.8990  -15.5856   24.7304 C.ar    1  UNL1        0.0004
     10 C          -4.8699  -14.6003   25.1996 C.3     1  UNL1        0.0328
     11 C          -7.0421  -16.1201   25.5414 C.ar    1  UNL1        0.1165
     12 C          -7.4787  -15.8612   26.9529 C.ar    1  UNL1        0.2735
     13 O          -6.7055  -14.9071   27.8142 O.2     1  UNL1       -0.2656
     14 N          -8.6886  -16.5565   27.5031 N.ar    1  UNL1       -0.3175
     15 C          -9.4618  -17.5106   26.6418 C.ar    1  UNL1        0.0940
     16 C          -9.0251  -17.7694   25.2304 C.ar    1  UNL1        0.0990
     17 N          -7.8153  -17.0742   24.6802 N.ar    1  UNL1       -0.2999
     18 H          -8.9752  -16.3866   28.4295 H       1  UNL1        0.1691
     19 C         -10.7221  -18.3161   19.7546 C.3     1  UNL1        0.1787
     20 S         -11.6611  -17.3133   20.3567 S.O2    1  UNL1       -0.0058
     21 O         -11.0859  -16.2451   19.4749 O.2     1  UNL1       -0.1727
     22 O         -12.2365  -18.3816   21.2387 O.2     1  UNL1       -0.1727
     23 C         -12.5781  -16.0554   22.4368 C.3     1  UNL1        0.0271
     24 C         -12.6003  -16.3105   20.9589 C.3     1  UNL1        0.1513
     25 O          -5.3446  -19.2609   22.2427 O.3     1  UNL1       -0.4338
     26 C          -4.0971  -18.8963   21.4938 C.ar    1  UNL1        0.1746
     27 C          -3.9728  -19.2295   20.0366 C.ar    1  UNL1        0.0422
     28 C          -2.7254  -18.8649   19.2876 C.ar    1  UNL1        0.0329
     29 C          -1.6022  -18.1672   19.9959 C.ar    1  UNL1        0.1426
     30 F          -0.3548  -17.8026   19.2470 F       1  UNL1       -0.2041
     31 C          -1.7266  -17.8340   21.4532 C.ar    1  UNL1        0.0624
     32 C          -2.9740  -18.1986   22.2022 C.ar    1  UNL1        0.1767
     33 F          -3.0984  -17.8654   23.6594 F       1  UNL1       -0.2009
@<TRIPOS>BOND
     1    23    24    1
     2    24    20    1
     3    20    21    2
     4    20    22    2
     5    20    19    1
     6    19     1    1
     7     1     2   ar
     8     2     3   ar
     9     3     4   ar
    10     4    25    1
    11    25    26    1
    12    26    27   ar
    13    27    28   ar
    14    28    29   ar
    15    29    30    1
    16    29    31   ar
    17    31    32   ar
    18    32    33    1
    19     4     5   ar
    20     5     7    1
    21     7     8   ar
    22     8     9   ar
    23     9    10    1
    24     9    11   ar
    25    11    12   ar
    26    12    13    2
    27    12    14   ar
    28    14    15   ar
    29    15    16   ar
    30    16    17   ar
    31     5     6   ar
    32     6     1   ar
    33    32    26   ar
    34    17     7   ar
    35    17    11   ar
    36    14    18    1
@<TRIPOS>MOLECULE
*****
 33 36 0 0 0
SMALL
GASTEIGER

@<TRIPOS>ATOM
      1 C          -3.8098  -18.5102   21.9184 C.ar    1  UNL1        0.0207
      2 C          -3.3568  -17.2327   22.5608 C.ar    1  UNL1        0.0995
      3 N          -4.3670  -16.2742   23.1182 N.ar    1  UNL1       -0.2101
      4 C          -5.8303  -16.5932   23.0332 C.ar    1  UNL1        0.2310
      5 C          -6.2833  -17.8706   22.3908 C.ar    1  UNL1        0.0694
      6 C          -5.2731  -18.8292   21.8333 C.ar    1  UNL1        0.0051
      7 C          -7.7465  -18.1896   22.3057 C.ar    1  UNL1        0.0684
      8 C          -8.3939  -19.4772   22.7220 C.ar    1  UNL1        0.0150
      9 C          -9.8667  -19.3603   22.4630 C.ar    1  UNL1        0.0004
     10 C         -10.8960  -20.4176   22.7329 C.3     1  UNL1        0.0328
     11 C         -10.1297  -18.0006   21.8867 C.ar    1  UNL1        0.1165
     12 C         -11.3930  -17.3279   21.4380 C.ar    1  UNL1        0.2735
     13 O         -12.7033  -18.0514   21.5352 O.2     1  UNL1       -0.2656
     14 N         -11.3459  -15.9316   20.8920 N.ar    1  UNL1       -0.3175
     15 C         -10.0355  -15.2081   20.7948 C.ar    1  UNL1        0.0940
     16 C          -8.7722  -15.8808   21.2436 C.ar    1  UNL1        0.0990
     17 N          -8.8193  -17.2771   21.7896 N.ar    1  UNL1       -0.2999
     18 H         -12.1751  -15.4900   20.5975 H       1  UNL1        0.1691
     19 C          -2.7997  -19.4687   21.3609 C.3     1  UNL1        0.1787
     20 S          -1.7152  -18.9709   20.4520 S.O2    1  UNL1       -0.0058
     21 O          -2.6489  -19.0719   19.2826 O.2     1  UNL1       -0.1727
     22 O          -0.7814  -18.8698   21.6216 O.2     1  UNL1       -0.1727
     23 C           0.2935  -17.3852   20.0043 C.3     1  UNL1        0.0271
     24 C          -0.6307  -18.4730   19.5432 C.3     1  UNL1        0.1513
     25 O          -6.8404  -15.6346   23.5906 O.3     1  UNL1       -0.4338
     26 C          -7.4180  -15.8634   24.9559 C.ar    1  UNL1        0.1746
     27 C          -8.7219  -16.5896   25.1065 C.ar    1  UNL1        0.0422
     28 C          -9.2995  -16.8184   26.4718 C.ar    1  UNL1        0.0329
     29 C          -8.5732  -16.3212   27.6864 C.ar    1  UNL1        0.1426
     30 F          -9.1508  -16.5500   29.0517 F       1  UNL1       -0.2041
     31 C          -7.2693  -15.5950   27.5358 C.ar    1  UNL1        0.0624
     32 C          -6.6917  -15.3661   26.1705 C.ar    1  UNL1        0.1767
     33 F          -5.3879  -14.6400   26.0197 F       1  UNL1       -0.2009
@<TRIPOS>BOND
     1    23    24    1
     2    24    20    1
     3    20    21    2
     4    20    22    2
     5    20    19    1
     6    19     1    1
     7     1     2   ar
     8     2     3   ar
     9     3     4   ar
    10     4    25    1
    11    25    26    1
    12    26    27   ar
    13    27    28   ar
    14    28    29   ar
    15    29    30    1
    16    29    31   ar
    17    31    32   ar
    18    32    33    1
    19     4     5   ar
    20     5     7    1
    21     7     8   ar
    22     8     9   ar
    23     9    10    1
    24     9    11   ar
    25    11    12   ar
    26    12    13    2
    27    12    14   ar
    28    14    15   ar
    29    15    16   ar
    30    16    17   ar
    31     5     6   ar
    32     6     1   ar
    33    32    26   ar
    34    17     7   ar
    35    17    11   ar
    36    14    18    1
@<TRIPOS>MOLECULE
*****
 33 36 0 0 0
SMALL
GASTEIGER

@<TRIPOS>ATOM
      1 C          -4.4602  -18.6506   21.8758 C.ar    1  UNL1        0.0207
      2 C          -3.6623  -17.5593   22.5258 C.ar    1  UNL1        0.0995
      3 N          -4.3625  -16.3943   23.1601 N.ar    1  UNL1       -0.2101
      4 C          -5.8606  -16.3205   23.1445 C.ar    1  UNL1        0.2310
      5 C          -6.6586  -17.4117   22.4945 C.ar    1  UNL1        0.0694
      6 C          -5.9583  -18.5768   21.8601 C.ar    1  UNL1        0.0051
      7 C          -8.1567  -17.3379   22.4789 C.ar    1  UNL1        0.0684
      8 C          -8.9847  -16.4021   21.6490 C.ar    1  UNL1        0.0150
      9 C         -10.4295  -16.6729   21.9476 C.ar    1  UNL1        0.0004
     10 C         -11.6034  -15.9648   21.3388 C.3     1  UNL1        0.0328
     11 C         -10.4944  -17.7760   22.9620 C.ar    1  UNL1        0.1165
     12 C         -11.6512  -18.4593   23.6291 C.ar    1  UNL1        0.2735
     13 O         -13.0559  -18.0482   23.3008 O.2     1  UNL1       -0.2656
     14 N         -11.4032  -19.5536   24.6245 N.ar    1  UNL1       -0.3175
     15 C          -9.9984  -19.9646   24.9529 C.ar    1  UNL1        0.0940
     16 C          -8.8417  -19.2813   24.2858 C.ar    1  UNL1        0.0990
     17 N          -9.0897  -18.1870   23.2903 N.ar    1  UNL1       -0.2999
     18 H         -12.1624  -20.0021   25.0624 H       1  UNL1        0.1691
     19 C          -3.7601  -19.8156   21.2414 C.3     1  UNL1        0.1787
     20 S          -2.4454  -19.6136   20.5480 S.O2    1  UNL1       -0.0058
     21 O          -3.1469  -18.9139   19.4219 O.2     1  UNL1       -0.1727
     22 O          -1.7439  -20.3133   21.6742 O.2     1  UNL1       -0.1727
     23 C          -0.4943  -18.0534   19.8348 C.3     1  UNL1        0.0271
     24 C          -1.1307  -19.4115   19.8547 C.3     1  UNL1        0.1513
     25 O          -6.5608  -15.1554   23.7789 O.3     1  UNL1       -0.4338
     26 C          -7.2231  -15.3153   25.1152 C.ar    1  UNL1        0.1746
     27 C          -8.7183  -15.2627   25.2223 C.ar    1  UNL1        0.0422
     28 C          -9.3806  -15.4226   26.5586 C.ar    1  UNL1        0.0329
     29 C          -8.5477  -15.6352   27.7879 C.ar    1  UNL1        0.1426
     30 F          -9.2100  -15.7951   29.1242 F       1  UNL1       -0.2041
     31 C          -7.0523  -15.6878   27.6808 C.ar    1  UNL1        0.0624
     32 C          -6.3900  -15.5279   26.3445 C.ar    1  UNL1        0.1767
     33 F          -4.8948  -15.5805   26.2373 F       1  UNL1       -0.2009
@<TRIPOS>BOND
     1    23    24    1
     2    24    20    1
     3    20    21    2
     4    20    22    2
     5    20    19    1
     6    19     1    1
     7     1     2   ar
     8     2     3   ar
     9     3     4   ar
    10     4    25    1
    11    25    26    1
    12    26    27   ar
    13    27    28   ar
    14    28    29   ar
    15    29    30    1
    16    29    31   ar
    17    31    32   ar
    18    32    33    1
    19     4     5   ar
    20     5     7    1
    21     7     8   ar
    22     8     9   ar
    23     9    10    1
    24     9    11   ar
    25    11    12   ar
    26    12    13    2
    27    12    14   ar
    28    14    15   ar
    29    15    16   ar
    30    16    17   ar
    31     5     6   ar
    32     6     1   ar
    33    32    26   ar
    34    17     7   ar
    35    17    11   ar
    36    14    18    1
@<TRIPOS>MOLECULE
*****
 33 36 0 0 0
SMALL
GASTEIGER

@<TRIPOS>ATOM
      1 C          -9.1363  -19.3028   19.8088 C.ar    1  UNL1        0.0207
      2 C          -8.4478  -20.4166   19.0772 C.ar    1  UNL1        0.0995
      3 N          -7.0308  -20.7732   19.4161 N.ar    1  UNL1       -0.2101
      4 C          -6.3023  -20.0160   20.4867 C.ar    1  UNL1        0.2310
      5 C          -6.9908  -18.9022   21.2183 C.ar    1  UNL1        0.0694
      6 C          -8.4079  -18.5456   20.8793 C.ar    1  UNL1        0.0051
      7 C          -6.2624  -18.1450   22.2888 C.ar    1  UNL1        0.0684
      8 C          -4.9097  -18.4824   22.8424 C.ar    1  UNL1        0.0150
      9 C          -4.5701  -17.4634   23.8894 C.ar    1  UNL1        0.0004
     10 C          -3.3091  -17.4192   24.7006 C.3     1  UNL1        0.0328
     11 C          -5.7129  -16.4962   23.9829 C.ar    1  UNL1        0.1165
     12 C          -5.9362  -15.2864   24.8410 C.ar    1  UNL1        0.2735
     13 O          -4.8903  -14.8651   25.8303 O.2     1  UNL1       -0.2656
     14 N          -7.2054  -14.4979   24.7098 N.ar    1  UNL1       -0.3175
     15 C          -8.2513  -14.9192   23.7206 C.ar    1  UNL1        0.0940
     16 C          -8.0280  -16.1290   22.8625 C.ar    1  UNL1        0.0990
     17 N          -6.7588  -16.9175   22.9936 N.ar    1  UNL1       -0.2999
     18 H          -7.3520  -13.7038   25.2730 H       1  UNL1        0.1691
     19 C         -10.5533  -18.9461   19.4699 C.3     1  UNL1        0.1787
     20 S         -11.3850  -18.1686   20.4465 S.O2    1  UNL1       -0.0058
     21 O         -11.7025  -19.4352   21.1845 O.2     1  UNL1       -0.1727
     22 O         -11.0675  -16.9019   19.7084 O.2     1  UNL1       -0.1727
     23 C         -11.7308  -16.0673   21.9348 C.3     1  UNL1        0.0271
     24 C         -12.2167  -17.3910   21.4231 C.3     1  UNL1        0.1513
     25 O          -4.8853  -20.3728   20.8256 O.3     1  UNL1       -0.4338
     26 C          -3.7593  -19.4998   20.3564 C.ar    1  UNL1        0.1746
     27 C          -3.9586  -18.5830   19.1861 C.ar    1  UNL1        0.0422
     28 C          -2.8327  -17.7101   18.7169 C.ar    1  UNL1        0.0329
     29 C          -1.5073  -17.7540   19.4180 C.ar    1  UNL1        0.1426
     30 F          -0.3814  -16.8810   18.9488 F       1  UNL1       -0.2041
     31 C          -1.3080  -18.6709   20.5884 C.ar    1  UNL1        0.0624
     32 C          -2.4340  -19.5438   21.0576 C.ar    1  UNL1        0.1767
     33 F          -2.2347  -20.4606   22.2279 F       1  UNL1       -0.2009
@<TRIPOS>BOND
     1    23    24    1
     2    24    20    1
     3    20    21    2
     4    20    22    2
     5    20    19    1
     6    19     1    1
     7     1     2   ar
     8     2     3   ar
     9     3     4   ar
    10     4    25    1
    11    25    26    1
    12    26    27   ar
    13    27    28   ar
    14    28    29   ar
    15    29    30    1
    16    29    31   ar
    17    31    32   ar
    18    32    33    1
    19     4     5   ar
    20     5     7    1
    21     7     8   ar
    22     8     9   ar
    23     9    10    1
    24     9    11   ar
    25    11    12   ar
    26    12    13    2
    27    12    14   ar
    28    14    15   ar
    29    15    16   ar
    30    16    17   ar
    31     5     6   ar
    32     6     1   ar
    33    32    26   ar
    34    17     7   ar
    35    17    11   ar
    36    14    18    1
@<TRIPOS>MOLECULE
*****
 33 36 0 0 0
SMALL
GASTEIGER

@<TRIPOS>ATOM
      1 C          -9.7413  -18.3981   20.4181 C.ar    1  UNL1        0.0207
      2 C          -8.6852  -19.2923   19.8392 C.ar    1  UNL1        0.0995
      3 N          -7.4262  -19.5617   20.6087 N.ar    1  UNL1       -0.2101
      4 C          -7.2231  -18.9368   21.9572 C.ar    1  UNL1        0.2310
      5 C          -8.2791  -18.0427   22.5361 C.ar    1  UNL1        0.0694
      6 C          -9.5382  -17.7733   21.7666 C.ar    1  UNL1        0.0051
      7 C          -8.0761  -17.4178   23.8846 C.ar    1  UNL1        0.0684
      8 C          -8.9178  -17.6570   25.1029 C.ar    1  UNL1        0.0150
      9 C          -8.3575  -16.8311   26.2227 C.ar    1  UNL1        0.0004
     10 C          -8.8915  -16.7662   27.6230 C.3     1  UNL1        0.0328
     11 C          -7.1696  -16.0814   25.6965 C.ar    1  UNL1        0.1165
     12 C          -6.2239  -15.1155   26.3465 C.ar    1  UNL1        0.2735
     13 O          -6.3979  -14.7529   27.7915 O.2     1  UNL1       -0.2656
     14 N          -5.1042  -14.5122   25.5514 N.ar    1  UNL1       -0.3175
     15 C          -4.9302  -14.8748   24.1063 C.ar    1  UNL1        0.0940
     16 C          -5.8760  -15.8407   23.4563 C.ar    1  UNL1        0.0990
     17 N          -6.9957  -16.4441   24.2514 N.ar    1  UNL1       -0.2999
     18 H          -4.4835  -13.8782   25.9780 H       1  UNL1        0.1691
     19 C         -11.0003  -18.1287   19.6487 C.3     1  UNL1        0.1787
     20 S         -11.9681  -17.0904   20.1338 S.O2    1  UNL1       -0.0058
     21 O         -11.2447  -16.0445   19.3385 O.2     1  UNL1       -0.1727
     22 O         -12.6915  -18.1364   20.9292 O.2     1  UNL1       -0.1727
     23 C         -12.9768  -15.6865   22.0732 C.3     1  UNL1        0.0271
     24 C         -12.9359  -16.0522   20.6191 C.3     1  UNL1        0.1513
     25 O          -5.9640  -19.2062   22.7266 O.3     1  UNL1       -0.4338
     26 C          -4.6308  -19.0848   22.0499 C.ar    1  UNL1        0.1746
     27 C          -4.4637  -19.5495   20.6335 C.ar    1  UNL1        0.0422
     28 C          -3.1306  -19.4281   19.9567 C.ar    1  UNL1        0.0329
     29 C          -1.9646  -18.8420   20.6963 C.ar    1  UNL1        0.1426
     30 F          -0.6315  -18.7206   20.0196 F       1  UNL1       -0.2041
     31 C          -2.1318  -18.3774   22.1128 C.ar    1  UNL1        0.0624
     32 C          -3.4649  -18.4988   22.7896 C.ar    1  UNL1        0.1767
     33 F          -3.6321  -18.0342   24.2059 F       1  UNL1       -0.2009
@<TRIPOS>BOND
     1    23    24    1
     2    24    20    1
     3    20    21    2
     4    20    22    2
     5    20    19    1
     6    19     1    1
     7     1     2   ar
     8     2     3   ar
     9     3     4   ar
    10     4    25    1
    11    25    26    1
    12    26    27   ar
    13    27    28   ar
    14    28    29   ar
    15    29    30    1
    16    29    31   ar
    17    31    32   ar
    18    32    33    1
    19     4     5   ar
    20     5     7    1
    21     7     8   ar
    22     8     9   ar
    23     9    10    1
    24     9    11   ar
    25    11    12   ar
    26    12    13    2
    27    12    14   ar
    28    14    15   ar
    29    15    16   ar
    30    16    17   ar
    31     5     6   ar
    32     6     1   ar
    33    32    26   ar
    34    17     7   ar
    35    17    11   ar
    36    14    18    1
@<TRIPOS>MOLECULE
*****
 33 36 0 0 0
SMALL
GASTEIGER

@<TRIPOS>ATOM
      1 C           6.9565   -4.5540   26.1703 C.ar    1  UNL1        0.0207
      2 C           6.9390   -3.2691   26.9440 C.ar    1  UNL1        0.0995
      3 N           6.5692   -1.9865   26.2598 N.ar    1  UNL1       -0.2101
      4 C           6.2171   -1.9888   24.8017 C.ar    1  UNL1        0.2310
      5 C           6.2346   -3.2736   24.0279 C.ar    1  UNL1        0.0694
      6 C           6.6044   -4.5563   24.7122 C.ar    1  UNL1        0.0051
      7 C           5.8825   -3.2759   22.5698 C.ar    1  UNL1        0.0684
      8 C           4.6250   -3.8288   21.9673 C.ar    1  UNL1        0.0150
      9 C           4.6914   -3.6203   20.4834 C.ar    1  UNL1        0.0004
     10 C           3.6432   -4.0229   19.4887 C.3     1  UNL1        0.0328
     11 C           5.9899   -2.9385   20.1687 C.ar    1  UNL1        0.1165
     12 C           6.5970   -2.4840   18.8746 C.ar    1  UNL1        0.2735
     13 O           5.8609   -2.6969   17.5851 O.2     1  UNL1       -0.2656
     14 N           7.9404   -1.8167   18.8700 N.ar    1  UNL1       -0.3175
     15 C           8.6765   -1.6038   20.1595 C.ar    1  UNL1        0.0940
     16 C           8.0694   -2.0583   21.4536 C.ar    1  UNL1        0.0990
     17 N           6.7260   -2.7257   21.4582 N.ar    1  UNL1       -0.2999
     18 H           8.3389   -1.5184   18.0206 H       1  UNL1        0.1691
     19 C           7.3262   -5.8366   26.8545 C.3     1  UNL1        0.1787
     20 S           8.2616   -6.8004   26.1864 S.O2    1  UNL1       -0.0058
     21 O           7.1436   -7.7908   26.0497 O.2     1  UNL1       -0.1727
     22 O           9.3797   -5.8099   26.3231 O.2     1  UNL1       -0.1727
     23 C           9.4038   -7.7018   24.0340 C.3     1  UNL1        0.0271
     24 C           9.1971   -7.7641   25.5184 C.3     1  UNL1        0.1513
     25 O           5.8474   -0.7061   24.1175 O.3     1  UNL1       -0.4338
     26 C           4.4300   -0.2166   24.1565 C.ar    1  UNL1        0.1746
     27 C           3.8049    0.1671   25.4649 C.ar    1  UNL1        0.0422
     28 C           2.3875    0.6565   25.5040 C.ar    1  UNL1        0.0329
     29 C           1.5953    0.7623   24.2346 C.ar    1  UNL1        0.1426
     30 F           0.1780    1.2518   24.2737 F       1  UNL1       -0.2041
     31 C           2.2205    0.3786   22.9261 C.ar    1  UNL1        0.0624
     32 C           3.6379   -0.1109   22.8871 C.ar    1  UNL1        0.1767
     33 F           4.2631   -0.4946   21.5787 F       1  UNL1       -0.2009
@<TRIPOS>BOND
     1    23    24    1
     2    24    20    1
     3    20    21    2
     4    20    22    2
     5    20    19    1
     6    19     1    1
     7     1     2   ar
     8     2     3   ar
     9     3     4   ar
    10     4    25    1
    11    25    26    1
    12    26    27   ar
    13    27    28   ar
    14    28    29   ar
    15    29    30    1
    16    29    31   ar
    17    31    32   ar
    18    32    33    1
    19     4     5   ar
    20     5     7    1
    21     7     8   ar
    22     8     9   ar
    23     9    10    1
    24     9    11   ar
    25    11    12   ar
    26    12    13    2
    27    12    14   ar
    28    14    15   ar
    29    15    16   ar
    30    16    17   ar
    31     5     6   ar
    32     6     1   ar
    33    32    26   ar
    34    17     7   ar
    35    17    11   ar
    36    14    18    1
@<TRIPOS>MOLECULE
*****
 33 36 0 0 0
SMALL
GASTEIGER

@<TRIPOS>ATOM
      1 C           3.0915    2.1059   34.2391 C.ar    1  UNL1        0.0207
      2 C           1.8274    2.3978   33.4863 C.ar    1  UNL1        0.0995
      3 N           1.4966    1.6211   32.2464 N.ar    1  UNL1       -0.2101
      4 C           2.4299    0.5526   31.7594 C.ar    1  UNL1        0.2310
      5 C           3.6939    0.2606   32.5122 C.ar    1  UNL1        0.0694
      6 C           4.0248    1.0373   33.7522 C.ar    1  UNL1        0.0051
      7 C           4.6272   -0.8079   32.0252 C.ar    1  UNL1        0.0684
      8 C           4.9310   -2.0993   32.7253 C.ar    1  UNL1        0.0150
      9 C           5.9121   -2.8622   31.8853 C.ar    1  UNL1        0.0004
     10 C           6.4894   -4.2085   32.2079 C.3     1  UNL1        0.0328
     11 C           6.2146   -2.0423   30.6662 C.ar    1  UNL1        0.1165
     12 C           7.1106   -2.2878   29.4885 C.ar    1  UNL1        0.2735
     13 O           7.9047   -3.5574   29.4021 O.2     1  UNL1       -0.2656
     14 N           7.2124   -1.2637   28.3973 N.ar    1  UNL1       -0.3175
     15 C           6.4183    0.0059   28.4837 C.ar    1  UNL1        0.0940
     16 C           5.5224    0.2514   29.6614 C.ar    1  UNL1        0.0990
     17 N           5.4205   -0.7727   30.7526 N.ar    1  UNL1       -0.2999
     18 H           7.8005   -1.4249   27.6243 H       1  UNL1        0.1691
     19 C           3.4224    2.8825   35.4790 C.3     1  UNL1        0.1787
     20 S           3.4642    2.1900   36.8089 S.O2    1  UNL1       -0.0058
     21 O           4.9627    2.1659   36.7493 O.2     1  UNL1       -0.1727
     22 O           1.9656    2.2140   36.8685 O.2     1  UNL1       -0.1727
     23 C           2.2583    0.8882   38.7065 C.3     1  UNL1        0.0271
     24 C           3.5059    1.4974   38.1388 C.3     1  UNL1        0.1513
     25 O           2.0990   -0.2241   30.5194 O.3     1  UNL1       -0.4338
     26 C           1.2281    0.3867   29.4618 C.ar    1  UNL1        0.1746
     27 C          -0.1019   -0.2271   29.1388 C.ar    1  UNL1        0.0422
     28 C          -0.9727    0.3837   28.0812 C.ar    1  UNL1        0.0329
     29 C          -0.5136    1.6083   27.3467 C.ar    1  UNL1        0.1426
     30 F          -1.3845    2.2191   26.2891 F       1  UNL1       -0.2041
     31 C           0.8164    2.2222   27.6698 C.ar    1  UNL1        0.0624
     32 C           1.6873    1.6114   28.7274 C.ar    1  UNL1        0.1767
     33 F           3.0173    2.2251   29.0505 F       1  UNL1       -0.2009
@<TRIPOS>BOND
     1    23    24    1
     2    24    20    1
     3    20    21    2
     4    20    22    2
     5    20    19    1
     6    19     1    1
     7     1     2   ar
     8     2     3   ar
     9     3     4   ar
    10     4    25    1
    11    25    26    1
    12    26    27   ar
    13    27    28   ar
    14    28    29   ar
    15    29    30    1
    16    29    31   ar
    17    31    32   ar
    18    32    33    1
    19     4     5   ar
    20     5     7    1
    21     7     8   ar
    22     8     9   ar
    23     9    10    1
    24     9    11   ar
    25    11    12   ar
    26    12    13    2
    27    12    14   ar
    28    14    15   ar
    29    15    16   ar
    30    16    17   ar
    31     5     6   ar
    32     6     1   ar
    33    32    26   ar
    34    17     7   ar
    35    17    11   ar
    36    14    18    1
@<TRIPOS>MOLECULE
*****
 33 36 0 0 0
SMALL
GASTEIGER

@<TRIPOS>ATOM
      1 C           6.5695   -3.3849   26.2070 C.ar    1  UNL1        0.0207
      2 C           5.6953   -2.4116   26.9407 C.ar    1  UNL1        0.0995
      3 N           4.6577   -1.6258   26.1953 N.ar    1  UNL1       -0.2101
      4 C           4.4942   -1.8132   24.7160 C.ar    1  UNL1        0.2310
      5 C           5.3684   -2.7865   23.9822 C.ar    1  UNL1        0.0694
      6 C           6.4061   -3.5723   24.7277 C.ar    1  UNL1        0.0051
      7 C           5.2049   -2.9739   22.5030 C.ar    1  UNL1        0.0684
      8 C           4.2537   -3.9214   21.8341 C.ar    1  UNL1        0.0150
      9 C           4.4250   -3.7798   20.3506 C.ar    1  UNL1        0.0004
     10 C           3.6715   -4.5398   19.2996 C.3     1  UNL1        0.0328
     11 C           5.4820   -2.7448   20.1027 C.ar    1  UNL1        0.1165
     12 C           6.0678   -2.1916   18.8375 C.ar    1  UNL1        0.2735
     13 O           5.5858   -2.6897   17.5073 O.2     1  UNL1       -0.2656
     14 N           7.1357   -1.1402   18.9026 N.ar    1  UNL1       -0.3175
     15 C           7.6178   -0.6422   20.2329 C.ar    1  UNL1        0.0940
     16 C           7.0320   -1.1954   21.4980 C.ar    1  UNL1        0.0990
     17 N           5.9641   -2.2467   21.4329 N.ar    1  UNL1       -0.2999
     18 H           7.5202   -0.7771   18.0722 H       1  UNL1        0.1691
     19 C           7.6072   -4.1707   26.9523 C.3     1  UNL1        0.1787
     20 S           7.7337   -5.6484   26.7274 S.O2    1  UNL1       -0.0058
     21 O           6.3996   -5.8618   27.3786 O.2     1  UNL1       -0.1727
     22 O           9.0680   -5.4350   26.0761 O.2     1  UNL1       -0.1727
     23 C           8.1328   -7.6543   25.1252 C.3     1  UNL1        0.0271
     24 C           7.8604   -7.1260   26.5024 C.3     1  UNL1        0.1513
     25 O           3.4565   -1.0273   23.9706 O.3     1  UNL1       -0.4338
     26 C           3.8755    0.0283   22.9908 C.ar    1  UNL1        0.1746
     27 C           4.8192    1.1140   23.4159 C.ar    1  UNL1        0.0422
     28 C           5.2382    2.1696   22.4361 C.ar    1  UNL1        0.0329
     29 C           4.7135    2.1396   21.0312 C.ar    1  UNL1        0.1426
     30 F           5.1326    3.1952   20.0514 F       1  UNL1       -0.2041
     31 C           3.7698    1.0539   20.6061 C.ar    1  UNL1        0.0624
     32 C           3.3507   -0.0018   21.5859 C.ar    1  UNL1        0.1767
     33 F           2.4070   -1.0874   21.1609 F       1  UNL1       -0.2009
@<TRIPOS>BOND
     1    23    24    1
     2    24    20    1
     3    20    21    2
     4    20    22    2
     5    20    19    1
     6    19     1    1
     7     1     2   ar
     8     2     3   ar
     9     3     4   ar
    10     4    25    1
    11    25    26    1
    12    26    27   ar
    13    27    28   ar
    14    28    29   ar
    15    29    30    1
    16    29    31   ar
    17    31    32   ar
    18    32    33    1
    19     4     5   ar
    20     5     7    1
    21     7     8   ar
    22     8     9   ar
    23     9    10    1
    24     9    11   ar
    25    11    12   ar
    26    12    13    2
    27    12    14   ar
    28    14    15   ar
    29    15    16   ar
    30    16    17   ar
    31     5     6   ar
    32     6     1   ar
    33    32    26   ar
    34    17     7   ar
    35    17    11   ar
    36    14    18    1
@<TRIPOS>MOLECULE
*****
 33 36 0 0 0
SMALL
GASTEIGER

@<TRIPOS>ATOM
      1 C           6.9863   -4.2500   26.1470 C.ar    1  UNL1        0.0207
      2 C           7.0771   -2.9272   26.8484 C.ar    1  UNL1        0.0995
      3 N           6.7784   -1.6607   26.1023 N.ar    1  UNL1       -0.2101
      4 C           6.3889   -1.7170   24.6548 C.ar    1  UNL1        0.2310
      5 C           6.2982   -3.0397   23.9534 C.ar    1  UNL1        0.0694
      6 C           6.5969   -4.3063   24.6995 C.ar    1  UNL1        0.0051
      7 C           5.9087   -3.0960   22.5059 C.ar    1  UNL1        0.0684
      8 C           4.6276   -3.6519   21.9585 C.ar    1  UNL1        0.0150
      9 C           4.6592   -3.5057   20.4660 C.ar    1  UNL1        0.0004
     10 C           3.5797   -3.9311   19.5154 C.3     1  UNL1        0.0328
     11 C           5.9599   -2.8594   20.0909 C.ar    1  UNL1        0.1165
     12 C           6.5407   -2.4688   18.7643 C.ar    1  UNL1        0.2735
     13 O           5.7685   -2.7220   17.5036 O.2     1  UNL1       -0.2656
     14 N           7.8939   -1.8249   18.6985 N.ar    1  UNL1       -0.3175
     15 C           8.6662   -1.5717   19.9592 C.ar    1  UNL1        0.0940
     16 C           8.0853   -1.9623   21.2858 C.ar    1  UNL1        0.0990
     17 N           6.7321   -2.6062   21.3517 N.ar    1  UNL1       -0.2999
     18 H           8.2752   -1.5686   17.8278 H       1  UNL1        0.1691
     19 C           7.2850   -5.5166   26.8930 C.3     1  UNL1        0.1787
     20 S           7.1299   -5.5629   28.3842 S.O2    1  UNL1       -0.0058
     21 O           5.6383   -5.5860   28.2284 O.2     1  UNL1       -0.1727
     22 O           8.6216   -5.5399   28.5401 O.2     1  UNL1       -0.1727
     23 C           6.7574   -4.3412   30.6467 C.3     1  UNL1        0.0271
     24 C           6.9749   -5.6093   29.8755 C.3     1  UNL1        0.1513
     25 O           6.0902   -0.4503   23.9087 O.3     1  UNL1       -0.4338
     26 C           4.6806   -0.1305   23.5080 C.ar    1  UNL1        0.1746
     27 C           4.3453    0.0998   22.0642 C.ar    1  UNL1        0.0422
     28 C           2.9356    0.4197   21.6635 C.ar    1  UNL1        0.0329
     29 C           1.8614    0.5093   22.7065 C.ar    1  UNL1        0.1426
     30 F           0.4517    0.8291   22.3058 F       1  UNL1       -0.2041
     31 C           2.1967    0.2790   24.1504 C.ar    1  UNL1        0.0624
     32 C           3.6064   -0.0409   24.5511 C.ar    1  UNL1        0.1767
     33 F           3.9418   -0.2712   25.9948 F       1  UNL1       -0.2009
@<TRIPOS>BOND
     1    23    24    1
     2    24    20    1
     3    20    21    2
     4    20    22    2
     5    20    19    1
     6    19     1    1
     7     1     2   ar
     8     2     3   ar
     9     3     4   ar
    10     4    25    1
    11    25    26    1
    12    26    27   ar
    13    27    28   ar
    14    28    29   ar
    15    29    30    1
    16    29    31   ar
    17    31    32   ar
    18    32    33    1
    19     4     5   ar
    20     5     7    1
    21     7     8   ar
    22     8     9   ar
    23     9    10    1
    24     9    11   ar
    25    11    12   ar
    26    12    13    2
    27    12    14   ar
    28    14    15   ar
    29    15    16   ar
    30    16    17   ar
    31     5     6   ar
    32     6     1   ar
    33    32    26   ar
    34    17     7   ar
    35    17    11   ar
    36    14    18    1
