@<TRIPOS>MOLECULE
*****
 28 30 0 0 0
SMALL
GASTEIGER

@<TRIPOS>ATOM
      1 C          -9.2046  -19.2152   20.2046 C.3     1  UNL1        0.0370
      2 C         -10.6682  -19.4006   19.9333 C.3     1  UNL1        0.0204
      3 C         -11.4290  -18.8694   21.1118 C.3     1  UNL1        0.0722
      4 N         -10.4357  -18.3557   22.1115 N.3     1  UNL1       -0.2723
      5 C          -9.0609  -18.5694   21.5509 C.3     1  UNL1        0.0738
      6 C          -8.0818  -19.6069   19.2903 C.3     1  UNL1        0.0912
      7 C          -5.6857  -20.2312   20.0771 C.2     1  UNL1        0.2833
      8 O          -6.1046  -21.6649   20.2149 O.2     1  UNL1       -0.2667
      9 N          -6.6743  -19.2022   19.6149 N.am    1  UNL1       -0.2982
     10 H          -6.3994  -18.2612   19.5245 H       1  UNL1        0.1498
     11 C          -2.2734  -18.4953   20.7156 C.ar    1  UNL1        0.1005
     12 C          -3.7115  -18.4422   20.2922 C.ar    1  UNL1        0.0629
     13 C          -4.2784  -19.8266   20.4017 C.ar    1  UNL1        0.2295
     14 O          -3.1907  -20.7353   20.8927 O.2     1  UNL1       -0.3490
     15 N          -1.9515  -19.9125   21.0867 N.ar    1  UNL1       -0.0812
     16 C          -0.0045  -17.4178   20.0513 C.3     1  UNL1        0.0064
     17 C          -1.3239  -17.3349   20.7600 C.3     1  UNL1        0.0436
     18 C          -1.6940  -16.0914   21.5130 C.3     1  UNL1        0.0064
     19 C         -10.7602  -17.7368   23.4388 C.3     1  UNL1        0.0768
     20 C         -10.3673  -16.3169   23.7205 C.3     1  UNL1        0.0437
     21 C          -9.0095  -16.0113   24.2799 C.ar    1  UNL1       -0.0185
     22 C          -7.9086  -15.5542   23.3694 C.ar    1  UNL1       -0.0032
     23 C          -6.5509  -15.2486   23.9289 C.ar    1  UNL1        0.0133
     24 C          -6.2940  -15.4001   25.3989 C.ar    1  UNL1        0.0850
     25 CL         -4.9361  -15.0945   25.9584 Cl      1  UNL1       -0.0799
     26 C          -7.3948  -15.8572   26.3095 C.ar    1  UNL1        0.1503
     27 F          -7.1379  -16.0086   27.7795 F       1  UNL1       -0.2033
     28 C          -8.7526  -16.1627   25.7500 C.ar    1  UNL1        0.0263
@<TRIPOS>BOND
     1    16    17    1
     2    17    18    1
     3    17    11    1
     4    11    12   ar
     5    12    13   ar
     6    13     7    1
     7     7     8    2
     8     7     9   am
     9     9     6    1
    10     1     6    1
    11     1     2    1
    12     2     3    1
    13     3     4    1
    14     4    19    1
    15    19    20    1
    16    20    21    1
    17    21    22   ar
    18    22    23   ar
    19    23    24   ar
    20    24    25    1
    21    24    26   ar
    22    26    27    1
    23    26    28   ar
    24     4     5    1
    25    13    14   ar
    26    14    15   ar
    27    15    11   ar
    28     5     1    1
    29    28    21   ar
    30     9    10    1
@<TRIPOS>MOLECULE
*****
 28 30 0 0 0
SMALL
GASTEIGER

@<TRIPOS>ATOM
      1 C          -8.1780  -15.9864   25.1295 C.3     1  UNL1        0.0370
      2 C          -8.3786  -16.2194   26.5977 C.3     1  UNL1        0.0204
      3 C          -9.2279  -17.4449   26.7608 C.3     1  UNL1        0.0722
      4 N          -9.5524  -17.9694   25.3935 N.3     1  UNL1       -0.2723
      5 C          -8.9035  -17.0680   24.3852 C.3     1  UNL1        0.0738
      6 C          -7.3904  -14.8682   24.5137 C.3     1  UNL1        0.0912
      7 C          -5.0665  -15.8966   23.9735 C.2     1  UNL1        0.2833
      8 O          -4.9197  -16.3173   25.4058 O.2     1  UNL1       -0.2667
      9 N          -6.3018  -15.1720   23.5274 N.am    1  UNL1       -0.2982
     10 H          -6.3981  -14.8959   22.5874 H       1  UNL1        0.1498
     11 C          -2.4220  -17.4023   21.5641 C.ar    1  UNL1        0.1005
     12 C          -3.5311  -17.5672   22.5606 C.ar    1  UNL1        0.0629
     13 C          -3.9779  -16.2004   22.9873 C.ar    1  UNL1        0.2295
     14 O          -3.1450  -15.1907   22.2546 O.2     1  UNL1       -0.3490
     15 N          -2.1834  -15.9336   21.3750 N.ar    1  UNL1       -0.0812
     16 C          -2.0794  -19.9381   21.1145 C.3     1  UNL1        0.0064
     17 C          -1.6816  -18.5114   20.8774 C.3     1  UNL1        0.0436
     18 C          -0.5433  -18.1938   19.9534 C.3     1  UNL1        0.0064
     19 C         -10.3803  -19.1823   25.0879 C.3     1  UNL1        0.0768
     20 C         -11.6682  -19.0403   24.3322 C.3     1  UNL1        0.0437
     21 C         -11.7112  -18.2335   23.0683 C.ar    1  UNL1       -0.0185
     22 C         -12.3554  -16.8789   23.0649 C.ar    1  UNL1       -0.0032
     23 C         -12.3983  -16.0721   21.8011 C.ar    1  UNL1        0.0133
     24 C         -11.7971  -16.6199   20.5408 C.ar    1  UNL1        0.0850
     25 CL        -11.8400  -15.8130   19.2770 Cl      1  UNL1       -0.0799
     26 C         -11.1529  -17.9744   20.5442 C.ar    1  UNL1        0.1503
     27 F         -10.5516  -18.5222   19.2839 F       1  UNL1       -0.2033
     28 C         -11.1099  -18.7812   21.8080 C.ar    1  UNL1        0.0263
@<TRIPOS>BOND
     1    16    17    1
     2    17    18    1
     3    17    11    1
     4    11    12   ar
     5    12    13   ar
     6    13     7    1
     7     7     8    2
     8     7     9   am
     9     9     6    1
    10     1     6    1
    11     1     2    1
    12     2     3    1
    13     3     4    1
    14     4    19    1
    15    19    20    1
    16    20    21    1
    17    21    22   ar
    18    22    23   ar
    19    23    24   ar
    20    24    25    1
    21    24    26   ar
    22    26    27    1
    23    26    28   ar
    24     4     5    1
    25    13    14   ar
    26    14    15   ar
    27    15    11   ar
    28     5     1    1
    29    28    21   ar
    30     9    10    1
@<TRIPOS>MOLECULE
*****
 28 30 0 0 0
SMALL
GASTEIGER

@<TRIPOS>ATOM
      1 C          -4.8713  -19.5991   21.9020 C.3     1  UNL1        0.0370
      2 C          -3.4353  -19.7141   21.4841 C.3     1  UNL1        0.0204
      3 C          -2.7351  -18.4474   21.8777 C.3     1  UNL1        0.0722
      4 N          -3.7383  -17.5494   22.5390 N.3     1  UNL1       -0.2723
      5 C          -5.0586  -18.2612   22.5540 C.3     1  UNL1        0.0738
      6 C          -5.9335  -20.6394   21.7030 C.3     1  UNL1        0.0912
      7 C          -8.0753  -19.4152   20.8879 C.2     1  UNL1        0.2833
      8 O          -7.3282  -18.9049   19.6915 O.2     1  UNL1       -0.2667
      9 N          -7.3779  -20.2824   21.8937 N.am    1  UNL1       -0.2982
     10 H          -7.8682  -20.6174   22.6789 H       1  UNL1        0.1498
     11 C         -11.5556  -18.0571   21.9406 C.ar    1  UNL1        0.1005
     12 C         -10.0664  -18.1173   22.1108 C.ar    1  UNL1        0.0629
     13 C          -9.5196  -19.0582   21.0786 C.ar    1  UNL1        0.2295
     14 O         -10.6707  -19.5796   20.2704 O.2     1  UNL1       -0.3490
     15 N         -11.9291  -18.9608   20.8033 N.ar    1  UNL1       -0.0812
     16 C         -12.4672  -15.7399   22.6817 C.3     1  UNL1        0.0064
     17 C         -12.5046  -17.2372   22.7634 C.3     1  UNL1        0.0436
     18 C         -13.4910  -17.9145   23.6681 C.3     1  UNL1        0.0064
     19 C          -3.4686  -16.1800   23.0887 C.3     1  UNL1        0.0768
     20 C          -4.5855  -15.1857   23.2062 C.3     1  UNL1        0.0437
     21 C          -5.5965  -15.3199   24.3063 C.ar    1  UNL1       -0.0185
     22 C          -5.1447  -15.4011   25.7343 C.ar    1  UNL1       -0.0032
     23 C          -6.1556  -15.5353   26.8343 C.ar    1  UNL1        0.0133
     24 C          -7.6183  -15.5882   26.5063 C.ar    1  UNL1        0.0850
     25 CL         -8.6292  -15.7224   27.6063 Cl      1  UNL1       -0.0799
     26 C          -8.0701  -15.5070   25.0783 C.ar    1  UNL1        0.1503
     27 F          -9.5329  -15.5600   24.7503 F       1  UNL1       -0.2033
     28 C          -7.0592  -15.3729   23.9783 C.ar    1  UNL1        0.0263
@<TRIPOS>BOND
     1    16    17    1
     2    17    18    1
     3    17    11    1
     4    11    12   ar
     5    12    13   ar
     6    13     7    1
     7     7     8    2
     8     7     9   am
     9     9     6    1
    10     1     6    1
    11     1     2    1
    12     2     3    1
    13     3     4    1
    14     4    19    1
    15    19    20    1
    16    20    21    1
    17    21    22   ar
    18    22    23   ar
    19    23    24   ar
    20    24    25    1
    21    24    26   ar
    22    26    27    1
    23    26    28   ar
    24     4     5    1
    25    13    14   ar
    26    14    15   ar
    27    15    11   ar
    28     5     1    1
    29    28    21   ar
    30     9    10    1
@<TRIPOS>MOLECULE
*****
 28 30 0 0 0
SMALL
GASTEIGER

@<TRIPOS>ATOM
      1 C          -8.2456  -15.8925   25.0855 C.3     1  UNL1        0.0370
      2 C          -8.2514  -16.2565   26.5407 C.3     1  UNL1        0.0204
      3 C          -9.1908  -17.4111   26.7260 C.3     1  UNL1        0.0722
      4 N          -9.7657  -17.7607   25.3854 N.3     1  UNL1       -0.2723
      5 C          -9.1816  -16.8222   24.3715 C.3     1  UNL1        0.0738
      6 C          -7.4446  -14.7921   24.4550 C.3     1  UNL1        0.0912
      7 C          -5.1198  -15.8371   23.9521 C.2     1  UNL1        0.2833
      8 O          -4.9803  -16.2212   25.3954 O.2     1  UNL1       -0.2667
      9 N          -6.3520  -15.1226   23.4819 N.am    1  UNL1       -0.2982
     10 H          -6.4436  -14.8705   22.5347 H       1  UNL1        0.1498
     11 C          -2.4730  -17.4077   21.5872 C.ar    1  UNL1        0.1005
     12 C          -3.5908  -17.5455   22.5780 C.ar    1  UNL1        0.0629
     13 C          -4.0272  -16.1676   22.9791 C.ar    1  UNL1        0.2295
     14 O          -3.1791  -15.1782   22.2362 O.2     1  UNL1       -0.3490
     15 N          -2.2185  -15.9447   21.3760 N.ar    1  UNL1       -0.0812
     16 C          -2.1313  -19.9549   21.2065 C.3     1  UNL1        0.0064
     17 C          -1.7386  -18.5350   20.9241 C.3     1  UNL1        0.0436
     18 C          -0.6114  -18.2425   19.9785 C.3     1  UNL1        0.0064
     19 C         -10.7517  -18.8564   25.1074 C.3     1  UNL1        0.0768
     20 C         -10.3325  -20.0594   24.3155 C.3     1  UNL1        0.0437
     21 C          -9.8649  -19.8993   22.8992 C.ar    1  UNL1       -0.0185
     22 C         -10.8610  -19.8834   21.7778 C.ar    1  UNL1       -0.0032
     23 C         -10.3934  -19.7234   20.3616 C.ar    1  UNL1        0.0133
     24 C          -8.9298  -19.5792   20.0668 C.ar    1  UNL1        0.0850
     25 CL         -8.4622  -19.4191   18.6505 Cl      1  UNL1       -0.0799
     26 C          -7.9337  -19.5951   21.1882 C.ar    1  UNL1        0.1503
     27 F          -6.4700  -19.4509   20.8934 F       1  UNL1       -0.2033
     28 C          -8.4013  -19.7551   22.6044 C.ar    1  UNL1        0.0263
@<TRIPOS>BOND
     1    16    17    1
     2    17    18    1
     3    17    11    1
     4    11    12   ar
     5    12    13   ar
     6    13     7    1
     7     7     8    2
     8     7     9   am
     9     9     6    1
    10     1     6    1
    11     1     2    1
    12     2     3    1
    13     3     4    1
    14     4    19    1
    15    19    20    1
    16    20    21    1
    17    21    22   ar
    18    22    23   ar
    19    23    24   ar
    20    24    25    1
    21    24    26   ar
    22    26    27    1
    23    26    28   ar
    24     4     5    1
    25    13    14   ar
    26    14    15   ar
    27    15    11   ar
    28     5     1    1
    29    28    21   ar
    30     9    10    1
@<TRIPOS>MOLECULE
*****
 28 30 0 0 0
SMALL
GASTEIGER

@<TRIPOS>ATOM
      1 C           8.0697   -8.5748   27.4270 C.3     1  UNL1        0.0370
      2 C           8.2235   -7.4157   28.3668 C.3     1  UNL1        0.0204
      3 C           8.2893   -6.1606   27.5480 C.3     1  UNL1        0.0722
      4 N           8.1763   -6.5439   26.1022 N.3     1  UNL1       -0.2723
      5 C           8.0406   -8.0359   26.0273 C.3     1  UNL1        0.0738
      6 C           7.9638  -10.0189   27.8182 C.3     1  UNL1        0.0912
      7 C           6.5312  -12.1618   28.1439 C.2     1  UNL1        0.2833
      8 O           7.7654  -12.9311   28.5108 O.2     1  UNL1       -0.2667
      9 N           6.6303  -10.7057   27.7976 N.am    1  UNL1       -0.2982
     10 H           5.8202  -10.2007   27.5567 H       1  UNL1        0.1498
     11 C           2.8798  -13.4034   28.5812 C.ar    1  UNL1        0.1005
     12 C           3.9836  -12.4400   28.9034 C.ar    1  UNL1        0.0629
     13 C           5.1978  -12.8484   28.1233 C.ar    1  UNL1        0.2295
     14 O           4.8446  -14.0642   27.3189 O.2     1  UNL1       -0.3490
     15 N           3.4119  -14.4072   27.6019 N.ar    1  UNL1       -0.0812
     16 C           0.3076  -13.4465   28.2183 C.3     1  UNL1        0.0064
     17 C           1.4883  -13.3689   29.1402 C.3     1  UNL1        0.0436
     18 C           1.2775  -13.2568   30.6211 C.3     1  UNL1        0.0064
     19 C           8.1956   -5.6008   24.9359 C.3     1  UNL1        0.0768
     20 C           7.0073   -4.7292   24.6564 C.3     1  UNL1        0.0437
     21 C           6.7192   -4.2808   23.2542 C.ar    1  UNL1       -0.0185
     22 C           7.7687   -4.4202   22.1917 C.ar    1  UNL1       -0.0032
     23 C           7.4806   -3.9718   20.7896 C.ar    1  UNL1        0.0133
     24 C           6.1430   -3.3840   20.4500 C.ar    1  UNL1        0.0850
     25 CL          5.8549   -2.9356   19.0479 Cl      1  UNL1       -0.0799
     26 C           5.0935   -3.2446   21.5126 C.ar    1  UNL1        0.1503
     27 F           3.7559   -2.6569   21.1731 F       1  UNL1       -0.2033
     28 C           5.3816   -3.6930   22.9147 C.ar    1  UNL1        0.0263
@<TRIPOS>BOND
     1    16    17    1
     2    17    18    1
     3    17    11    1
     4    11    12   ar
     5    12    13   ar
     6    13     7    1
     7     7     8    2
     8     7     9   am
     9     9     6    1
    10     1     6    1
    11     1     2    1
    12     2     3    1
    13     3     4    1
    14     4    19    1
    15    19    20    1
    16    20    21    1
    17    21    22   ar
    18    22    23   ar
    19    23    24   ar
    20    24    25    1
    21    24    26   ar
    22    26    27    1
    23    26    28   ar
    24     4     5    1
    25    13    14   ar
    26    14    15   ar
    27    15    11   ar
    28     5     1    1
    29    28    21   ar
    30     9    10    1
@<TRIPOS>MOLECULE
*****
 28 30 0 0 0
SMALL
GASTEIGER

@<TRIPOS>ATOM
      1 C          -6.7556  -15.6827   25.0218 C.3     1  UNL1        0.0370
      2 C          -7.4686  -15.4750   26.3251 C.3     1  UNL1        0.0204
      3 C          -8.8303  -16.0938   26.2124 C.3     1  UNL1        0.0722
      4 N          -8.9590  -16.6840   24.8394 N.3     1  UNL1       -0.2723
      5 C          -7.6768  -16.4300   24.1035 C.3     1  UNL1        0.0738
      6 C          -5.3657  -15.2238   24.6943 C.3     1  UNL1        0.0912
      7 C          -3.9162  -17.1731   23.7726 C.2     1  UNL1        0.2833
      8 O          -3.9736  -17.8484   25.1108 O.2     1  UNL1       -0.2667
      9 N          -4.6122  -15.8609   23.5644 N.am    1  UNL1       -0.2982
     10 H          -4.5746  -15.4176   22.6861 H       1  UNL1        0.1498
     11 C          -1.7289  -18.1203   20.7094 C.ar    1  UNL1        0.1005
     12 C          -2.2757  -17.1002   21.6636 C.ar    1  UNL1        0.0629
     13 C          -3.1628  -17.8101   22.6428 C.ar    1  UNL1        0.2295
     14 O          -3.1644  -19.2689   22.2938 O.2     1  UNL1       -0.3490
     15 N          -2.2781  -19.4606   21.0988 N.ar    1  UNL1       -0.0812
     16 C          -1.3125  -17.8615   18.1580 C.3     1  UNL1        0.0064
     17 C          -0.7965  -17.8478   19.5664 C.3     1  UNL1        0.0436
     18 C           0.6519  -17.5616   19.8318 C.3     1  UNL1        0.0064
     19 C         -10.1592  -17.4022   24.2974 C.3     1  UNL1        0.0768
     20 C         -10.6583  -17.0929   22.9171 C.3     1  UNL1        0.0437
     21 C         -10.2477  -17.9552   21.7603 C.ar    1  UNL1       -0.0185
     22 C         -11.1872  -18.1638   20.6098 C.ar    1  UNL1       -0.0032
     23 C         -10.7766  -19.0260   19.4531 C.ar    1  UNL1        0.0133
     24 C          -9.4266  -19.6798   19.4470 C.ar    1  UNL1        0.0850
     25 CL         -9.0160  -20.5421   18.2903 Cl      1  UNL1       -0.0799
     26 C          -8.4871  -19.4712   20.5976 C.ar    1  UNL1        0.1503
     27 F          -7.1371  -20.1249   20.5915 F       1  UNL1       -0.2033
     28 C          -8.8977  -18.6090   21.7542 C.ar    1  UNL1        0.0263
@<TRIPOS>BOND
     1    16    17    1
     2    17    18    1
     3    17    11    1
     4    11    12   ar
     5    12    13   ar
     6    13     7    1
     7     7     8    2
     8     7     9   am
     9     9     6    1
    10     1     6    1
    11     1     2    1
    12     2     3    1
    13     3     4    1
    14     4    19    1
    15    19    20    1
    16    20    21    1
    17    21    22   ar
    18    22    23   ar
    19    23    24   ar
    20    24    25    1
    21    24    26   ar
    22    26    27    1
    23    26    28   ar
    24     4     5    1
    25    13    14   ar
    26    14    15   ar
    27    15    11   ar
    28     5     1    1
    29    28    21   ar
    30     9    10    1
@<TRIPOS>MOLECULE
*****
 28 30 0 0 0
SMALL
GASTEIGER

@<TRIPOS>ATOM
      1 C          -9.5763  -18.9345   20.0516 C.3     1  UNL1        0.0370
      2 C         -10.0170  -19.7088   18.8448 C.3     1  UNL1        0.0204
      3 C          -8.8965  -20.6227   18.4457 C.3     1  UNL1        0.0722
      4 N          -7.7633  -20.4133   19.4059 N.3     1  UNL1       -0.2723
      5 C          -8.1833  -19.3700   20.3984 C.3     1  UNL1        0.0738
      6 C         -10.3863  -17.9056   20.7832 C.3     1  UNL1        0.0912
      7 C          -9.9596  -18.3568   23.3059 C.2     1  UNL1        0.2833
      8 O         -10.4192  -19.7738   23.1302 O.2     1  UNL1       -0.2667
      9 N          -9.9431  -17.4227   22.1324 N.am    1  UNL1       -0.2982
     10 H          -9.6415  -16.4927   22.2477 H       1  UNL1        0.1498
     11 C          -8.5447  -16.5154   26.4160 C.ar    1  UNL1        0.1005
     12 C          -8.7869  -16.5942   24.9377 C.ar    1  UNL1        0.0629
     13 C          -9.5165  -17.8739   24.6551 C.ar    1  UNL1        0.2295
     14 O          -9.7251  -18.5861   25.9587 O.2     1  UNL1       -0.3490
     15 N          -9.1245  -17.7464   27.0470 N.ar    1  UNL1       -0.0812
     16 C          -6.3722  -15.1927   26.9460 C.3     1  UNL1        0.0064
     17 C          -7.8453  -15.4011   27.1366 C.3     1  UNL1        0.0436
     18 C          -8.6192  -14.4952   28.0480 C.3     1  UNL1        0.0064
     19 C          -6.4418  -21.1226   19.3784 C.3     1  UNL1        0.0768
     20 C          -5.5361  -21.0676   20.5727 C.3     1  UNL1        0.0437
     21 C          -4.5327  -19.9601   20.7027 C.ar    1  UNL1       -0.0185
     22 C          -4.3689  -19.2463   22.0117 C.ar    1  UNL1       -0.0032
     23 C          -3.3655  -18.1389   22.1416 C.ar    1  UNL1        0.0133
     24 C          -2.5259  -17.7454   20.9625 C.ar    1  UNL1        0.0850
     25 CL         -1.5225  -16.6379   21.0924 Cl      1  UNL1       -0.0799
     26 C          -2.6897  -18.4592   19.6535 C.ar    1  UNL1        0.1503
     27 F          -1.8502  -18.0657   18.4744 F       1  UNL1       -0.2033
     28 C          -3.6931  -19.5666   19.5236 C.ar    1  UNL1        0.0263
@<TRIPOS>BOND
     1    16    17    1
     2    17    18    1
     3    17    11    1
     4    11    12   ar
     5    12    13   ar
     6    13     7    1
     7     7     8    2
     8     7     9   am
     9     9     6    1
    10     1     6    1
    11     1     2    1
    12     2     3    1
    13     3     4    1
    14     4    19    1
    15    19    20    1
    16    20    21    1
    17    21    22   ar
    18    22    23   ar
    19    23    24   ar
    20    24    25    1
    21    24    26   ar
    22    26    27    1
    23    26    28   ar
    24     4     5    1
    25    13    14   ar
    26    14    15   ar
    27    15    11   ar
    28     5     1    1
    29    28    21   ar
    30     9    10    1
@<TRIPOS>MOLECULE
*****
 28 30 0 0 0
SMALL
GASTEIGER

@<TRIPOS>ATOM
      1 C          -8.5698  -16.2747   24.5977 C.3     1  UNL1        0.0370
      2 C          -8.2660  -15.5980   25.9015 C.3     1  UNL1        0.0204
      3 C          -6.7819  -15.3965   25.9844 C.3     1  UNL1        0.0722
      4 N          -6.1685  -15.9488   24.7319 N.3     1  UNL1       -0.2723
      5 C          -7.2734  -16.4915   23.8748 C.3     1  UNL1        0.0738
      6 C          -9.9310  -16.6660   24.1035 C.3     1  UNL1        0.0912
      7 C          -9.8520  -17.2534   21.5740 C.2     1  UNL1        0.2833
      8 O          -9.5002  -15.8306   21.2546 O.2     1  UNL1       -0.2667
      9 N         -10.0674  -17.6710   22.9984 N.am    1  UNL1       -0.2982
     10 H         -10.2983  -18.6048   23.2081 H       1  UNL1        0.1498
     11 C          -9.4948  -20.0342   18.8898 C.ar    1  UNL1        0.1005
     12 C          -8.9300  -19.2199   20.0160 C.ar    1  UNL1        0.0629
     13 C          -9.9884  -18.2584   20.4689 C.ar    1  UNL1        0.2295
     14 O         -11.2073  -18.4783   19.6227 O.2     1  UNL1       -0.3490
     15 N         -10.9021  -19.5759   18.6467 N.ar    1  UNL1       -0.0812
     16 C          -7.5865  -21.7918   18.7509 C.3     1  UNL1        0.0064
     17 C          -8.7779  -21.1167   18.1386 C.3     1  UNL1        0.0436
     18 C          -9.2524  -21.5241   16.7752 C.3     1  UNL1        0.0064
     19 C          -4.7067  -15.9569   24.3954 C.3     1  UNL1        0.0768
     20 C          -4.0226  -17.2476   24.0548 C.3     1  UNL1        0.0437
     21 C          -3.4105  -17.4368   22.6985 C.ar    1  UNL1       -0.0185
     22 C          -2.3848  -16.4644   22.1962 C.ar    1  UNL1       -0.0032
     23 C          -1.7727  -16.6536   20.8400 C.ar    1  UNL1        0.0133
     24 C          -2.1863  -17.8153   19.9859 C.ar    1  UNL1        0.0850
     25 CL         -1.5742  -18.0046   18.6296 Cl      1  UNL1       -0.0799
     26 C          -3.2120  -18.7878   20.4882 C.ar    1  UNL1        0.1503
     27 F          -3.6256  -19.9495   19.6342 F       1  UNL1       -0.2033
     28 C          -3.8241  -18.5985   21.8444 C.ar    1  UNL1        0.0263
@<TRIPOS>BOND
     1    16    17    1
     2    17    18    1
     3    17    11    1
     4    11    12   ar
     5    12    13   ar
     6    13     7    1
     7     7     8    2
     8     7     9   am
     9     9     6    1
    10     1     6    1
    11     1     2    1
    12     2     3    1
    13     3     4    1
    14     4    19    1
    15    19    20    1
    16    20    21    1
    17    21    22   ar
    18    22    23   ar
    19    23    24   ar
    20    24    25    1
    21    24    26   ar
    22    26    27    1
    23    26    28   ar
    24     4     5    1
    25    13    14   ar
    26    14    15   ar
    27    15    11   ar
    28     5     1    1
    29    28    21   ar
    30     9    10    1
@<TRIPOS>MOLECULE
*****
 28 30 0 0 0
SMALL
GASTEIGER

@<TRIPOS>ATOM
      1 C          -4.6000  -19.7313   20.5468 C.3     1  UNL1        0.0370
      2 C          -3.5133  -19.3305   19.5936 C.3     1  UNL1        0.0204
      3 C          -2.7053  -18.2455   20.2415 C.3     1  UNL1        0.0722
      4 N          -3.2925  -17.9757   21.5951 N.3     1  UNL1       -0.2723
      5 C          -4.4635  -18.8939   21.7839 C.3     1  UNL1        0.0738
      6 C          -5.6404  -20.7845   20.3054 C.3     1  UNL1        0.0912
      7 C          -7.7332  -19.4129   21.0046 C.2     1  UNL1        0.2833
      8 O          -7.1736  -18.2059   20.3117 O.2     1  UNL1       -0.2667
      9 N          -6.9666  -20.7022   21.0015 N.am    1  UNL1       -0.2982
     10 H          -7.3338  -21.4943   21.4562 H       1  UNL1        0.1498
     11 C         -11.2661  -18.5849   22.3823 C.ar    1  UNL1        0.1005
     12 C         -10.1075  -18.2806   21.4794 C.ar    1  UNL1        0.0629
     13 C          -9.0593  -19.3305   21.7007 C.ar    1  UNL1        0.2295
     14 O          -9.5701  -20.2836   22.7402 O.2     1  UNL1       -0.3490
     15 N         -10.9340  -19.8228   23.1615 N.ar    1  UNL1       -0.0812
     16 C         -13.4360  -17.9708   23.6724 C.3     1  UNL1        0.0064
     17 C         -12.5342  -17.7907   22.4874 C.3     1  UNL1        0.0436
     18 C         -12.9006  -16.8162   21.4073 C.3     1  UNL1        0.0064
     19 C          -2.7960  -16.9650   22.5861 C.3     1  UNL1        0.0768
     20 C          -3.2638  -17.0184   24.0102 C.3     1  UNL1        0.0437
     21 C          -4.6383  -16.5347   24.3668 C.ar    1  UNL1       -0.0185
     22 C          -5.7432  -16.6023   23.3547 C.ar    1  UNL1       -0.0032
     23 C          -7.1175  -16.1187   23.7113 C.ar    1  UNL1        0.0133
     24 C          -7.3869  -15.5674   25.0801 C.ar    1  UNL1        0.0850
     25 CL         -8.7614  -15.0838   25.4367 Cl      1  UNL1       -0.0799
     26 C          -6.2820  -15.4998   26.0922 C.ar    1  UNL1        0.1503
     27 F          -6.5514  -14.9486   27.4610 F       1  UNL1       -0.2033
     28 C          -4.9077  -15.9835   25.7356 C.ar    1  UNL1        0.0263
@<TRIPOS>BOND
     1    16    17    1
     2    17    18    1
     3    17    11    1
     4    11    12   ar
     5    12    13   ar
     6    13     7    1
     7     7     8    2
     8     7     9   am
     9     9     6    1
    10     1     6    1
    11     1     2    1
    12     2     3    1
    13     3     4    1
    14     4    19    1
    15    19    20    1
    16    20    21    1
    17    21    22   ar
    18    22    23   ar
    19    23    24   ar
    20    24    25    1
    21    24    26   ar
    22    26    27    1
    23    26    28   ar
    24     4     5    1
    25    13    14   ar
    26    14    15   ar
    27    15    11   ar
    28     5     1    1
    29    28    21   ar
    30     9    10    1
