@<TRIPOS>MOLECULE
*****
 40 44 0 0 0
SMALL
GASTEIGER

@<TRIPOS>ATOM
      1 N           5.8623   -1.6523   28.9561 N.3     1  UNL1       -0.2671
      2 C           4.5129   -1.7054   28.3032 C.3     1  UNL1        0.0899
      3 C           4.3710   -1.3764   26.8466 C.3     1  UNL1        0.0896
      4 N           5.5784   -0.9943   26.0429 N.3     1  UNL1       -0.2728
      5 C           6.9279   -0.9412   26.6957 C.3     1  UNL1        0.0882
      6 C           7.0698   -1.2702   28.1523 C.3     1  UNL1        0.0739
      7 C           8.4192   -1.2171   28.8052 C.3     1  UNL1        0.0188
      8 C           6.7189   -3.1707   30.9823 C.3     1  UNL1        0.1382
      9 C           6.6128   -3.1031   32.4771 C.3     1  UNL1        0.0573
     10 C           5.8325   -1.8719   32.8312 C.ar    1  UNL1       -0.0224
     11 C           5.4160   -1.2925   34.1505 C.ar    1  UNL1       -0.0006
     12 C           4.6233   -0.0198   34.1940 C.ar    1  UNL1        0.0711
     13 C           4.2472    0.6735   32.9181 C.ar    1  UNL1        0.0036
     14 C           4.6638    0.0941   31.5988 C.ar    1  UNL1       -0.0033
     15 C           5.4564   -1.1786   31.5553 C.ar    1  UNL1       -0.0093
     16 C           6.0042   -1.9813   30.4127 C.3     1  UNL1        0.1077
     17 C           4.2067    0.5596   35.5134 C.3     1  UNL1        0.4186
     18 F           3.7901    1.1390   36.8328 F       1  UNL1       -0.1659
     19 F           3.5475    1.7041   34.8026 F       1  UNL1       -0.1659
     20 F           4.8659   -0.5850   36.2243 F       1  UNL1       -0.1659
     21 O           7.4170   -4.2400   30.1955 O.3     1  UNL1       -0.3542
     22 C           6.2571   -5.0641   28.0217 C.3     1  UNL1        0.0346
     23 C           6.6166   -5.2754   29.4626 C.3     1  UNL1        0.1422
     24 C           5.4365   -0.6654   24.5863 C.3     1  UNL1        0.0488
     25 C           5.8077    0.6851   25.1234 C.3     1  UNL1        0.0161
     26 C           5.1146   -2.1301   24.5551 C.3     1  UNL1        0.0362
     27 C           4.7796   -2.7969   23.2539 C.3     1  UNL1        0.0951
     28 N           4.7665   -1.9989   21.9838 N.am    1  UNL1       -0.2759
     29 C           4.4316   -2.6656   20.6826 C.2     1  UNL1        0.2513
     30 O           4.1096   -4.1304   20.6514 O.2     1  UNL1       -0.2698
     31 C           5.0885   -0.5342   22.0151 C.3     1  UNL1        0.0951
     32 C           5.4234    0.1326   23.3162 C.3     1  UNL1        0.0362
     33 C           4.4185   -1.8677   19.4125 C.ar    1  UNL1        0.0807
     34 C           3.1953   -1.0890   19.0286 C.ar    1  UNL1        0.0666
     35 C           1.9852   -1.1083   19.9147 C.3     1  UNL1        0.0523
     36 N           3.1822   -0.2911   17.7585 N.ar    1  UNL1       -0.2282
     37 C           4.3923   -0.2718   16.8723 C.ar    1  UNL1        0.1982
     38 N           5.6155   -1.0505   17.2562 N.ar    1  UNL1       -0.2282
     39 C           5.6287   -1.8484   18.5263 C.ar    1  UNL1        0.0666
     40 C           6.8519   -2.6271   18.9103 C.3     1  UNL1        0.0523
@<TRIPOS>BOND
     1    22    23    1
     2    23    21    1
     3     8    21    1
     4     8     9    1
     5     9    10    1
     6    10    11   ar
     7    11    12   ar
     8    12    17    1
     9    17    18    1
    10    17    19    1
    11    17    20    1
    12    12    13   ar
    13    13    14   ar
    14    14    15   ar
    15    15    16    1
    16    16     1    1
    17     1     2    1
    18     2     3    1
    19     3     4    1
    20     4    24    1
    21    24    25    1
    22    24    26    1
    23    26    27    1
    24    27    28    1
    25    28    29   am
    26    29    30    2
    27    29    33    1
    28    33    34   ar
    29    34    35    1
    30    34    36   ar
    31    36    37   ar
    32    37    38   ar
    33    38    39   ar
    34    39    40    1
    35    28    31    1
    36    31    32    1
    37     4     5    1
    38     5     6    1
    39     6     7    1
    40    16     8    1
    41     6     1    1
    42    15    10   ar
    43    32    24    1
    44    39    33   ar
@<TRIPOS>MOLECULE
*****
 40 44 0 0 0
SMALL
GASTEIGER

@<TRIPOS>ATOM
      1 N           3.9456   -0.0891   24.6969 N.3     1  UNL1       -0.2671
      2 C           3.1371   -0.7119   25.7961 C.3     1  UNL1        0.0899
      3 C           3.5198   -0.4864   27.2288 C.3     1  UNL1        0.0896
      4 N           4.7110    0.3619   27.5623 N.3     1  UNL1       -0.2728
      5 C           5.5196    0.9847   26.4631 C.3     1  UNL1        0.0882
      6 C           5.1370    0.7593   25.0304 C.3     1  UNL1        0.0739
      7 C           5.9455    1.3821   23.9312 C.3     1  UNL1        0.0188
      8 C           2.7669    0.6235   22.4060 C.3     1  UNL1        0.1382
      9 C           2.6212    0.0001   21.0495 C.3     1  UNL1        0.0573
     10 C           3.3271   -1.3233   21.0693 C.ar    1  UNL1       -0.0224
     11 C           3.5150   -2.3763   20.0178 C.ar    1  UNL1       -0.0006
     12 C           4.2851   -3.6238   20.3350 C.ar    1  UNL1        0.0711
     13 C           4.8671   -3.8183   21.7037 C.ar    1  UNL1        0.0036
     14 C           4.6792   -2.7653   22.7552 C.ar    1  UNL1       -0.0033
     15 C           3.9091   -1.5177   22.4380 C.ar    1  UNL1       -0.0093
     16 C           3.5629   -0.3146   23.2641 C.3     1  UNL1        0.1077
     17 C           4.4731   -4.6770   19.2834 C.3     1  UNL1        0.4186
     18 F           4.6610   -5.7301   18.2320 F       1  UNL1       -0.1659
     19 F           3.4648   -5.5466   19.9742 F       1  UNL1       -0.1659
     20 F           5.4813   -3.8074   18.5927 F       1  UNL1       -0.1659
     21 O           2.2138    1.9518   22.8300 O.3     1  UNL1       -0.3542
     22 C           0.3738    1.3376   24.5583 C.3     1  UNL1        0.0346
     23 C           0.7968    2.0552   23.3109 C.3     1  UNL1        0.1422
     24 C           5.0937    0.5874   28.9951 C.3     1  UNL1        0.0488
     25 C           4.7393    1.9893   28.5964 C.3     1  UNL1        0.0161
     26 C           5.3152   -0.8929   28.8961 C.3     1  UNL1        0.0362
     27 C           5.7963   -1.6608   30.0914 C.3     1  UNL1        0.0951
     28 N           6.0559   -0.9485   31.3857 N.am    1  UNL1       -0.2759
     29 C           6.5370   -1.7164   32.5811 C.2     1  UNL1        0.2513
     30 O           6.7585   -3.1967   32.4822 O.2     1  UNL1       -0.2698
     31 C           5.8344    0.5318   31.4846 C.3     1  UNL1        0.0951
     32 C           5.3533    1.2997   30.2894 C.3     1  UNL1        0.0362
     33 C           6.7966   -1.0041   33.8754 C.ar    1  UNL1        0.0807
     34 C           8.1814   -0.5331   34.2076 C.ar    1  UNL1        0.0666
     35 C           9.3066   -0.7744   33.2454 C.3     1  UNL1        0.0523
     36 N           8.4411    0.1792   35.5019 N.ar    1  UNL1       -0.2282
     37 C           7.3159    0.4205   36.4640 C.ar    1  UNL1        0.1982
     38 N           5.9311   -0.0504   36.1319 N.ar    1  UNL1       -0.2282
     39 C           5.6714   -0.7628   34.8376 C.ar    1  UNL1        0.0666
     40 C           4.2865   -1.2337   34.5054 C.3     1  UNL1        0.0523
@<TRIPOS>BOND
     1    22    23    1
     2    23    21    1
     3     8    21    1
     4     8     9    1
     5     9    10    1
     6    10    11   ar
     7    11    12   ar
     8    12    17    1
     9    17    18    1
    10    17    19    1
    11    17    20    1
    12    12    13   ar
    13    13    14   ar
    14    14    15   ar
    15    15    16    1
    16    16     1    1
    17     1     2    1
    18     2     3    1
    19     3     4    1
    20     4    24    1
    21    24    25    1
    22    24    26    1
    23    26    27    1
    24    27    28    1
    25    28    29   am
    26    29    30    2
    27    29    33    1
    28    33    34   ar
    29    34    35    1
    30    34    36   ar
    31    36    37   ar
    32    37    38   ar
    33    38    39   ar
    34    39    40    1
    35    28    31    1
    36    31    32    1
    37     4     5    1
    38     5     6    1
    39     6     7    1
    40    16     8    1
    41     6     1    1
    42    15    10   ar
    43    32    24    1
    44    39    33   ar
@<TRIPOS>MOLECULE
*****
 40 44 0 0 0
SMALL
GASTEIGER

@<TRIPOS>ATOM
      1 N           4.4301   -0.8603   25.6941 N.3     1  UNL1       -0.2671
      2 C           3.5478   -1.2644   26.8378 C.3     1  UNL1        0.0899
      3 C           4.0996   -1.3076   28.2319 C.3     1  UNL1        0.0896
      4 N           5.5338   -0.9466   28.4824 N.3     1  UNL1       -0.2728
      5 C           6.4162   -0.5425   27.3387 C.3     1  UNL1        0.0882
      6 C           5.8644   -0.4993   25.9446 C.3     1  UNL1        0.0739
      7 C           6.7468   -0.0952   24.8009 C.3     1  UNL1        0.0188
      8 C           2.9632    0.2344   23.7460 C.3     1  UNL1        0.1382
      9 C           2.6641   -0.1166   22.3187 C.3     1  UNL1        0.0573
     10 C           3.3943   -1.3851   21.9904 C.ar    1  UNL1       -0.0224
     11 C           3.4729   -2.2018   20.7348 C.ar    1  UNL1       -0.0006
     12 C           4.3018   -3.4515   20.7036 C.ar    1  UNL1        0.0711
     13 C           5.0522   -3.8845   21.9281 C.ar    1  UNL1        0.0036
     14 C           4.9737   -3.0678   23.1837 C.ar    1  UNL1       -0.0033
     15 C           4.1447   -1.8181   23.2149 C.ar    1  UNL1       -0.0093
     16 C           3.8783   -0.8172   24.2999 C.3     1  UNL1        0.1077
     17 C           4.3804   -4.2683   19.4479 C.3     1  UNL1        0.4186
     18 F           4.4590   -5.0850   18.1922 F       1  UNL1       -0.1659
     19 F           5.8627   -4.4068   19.6307 F       1  UNL1       -0.1659
     20 F           2.8981   -4.1298   19.2650 F       1  UNL1       -0.1659
     21 O           2.4393    1.4275   24.4890 O.3     1  UNL1       -0.3542
     22 C          -0.0043    1.2728   25.3577 C.3     1  UNL1        0.0346
     23 C           0.9929    1.8075   24.3730 C.3     1  UNL1        0.1422
     24 C           6.0856   -0.9897   29.8766 C.3     1  UNL1        0.0488
     25 C           6.6868   -2.2460   29.3194 C.3     1  UNL1        0.0161
     26 C           5.2927    0.2815   29.9494 C.3     1  UNL1        0.0362
     27 C           5.2603    1.0733   31.2230 C.3     1  UNL1        0.0951
     28 N           6.0209    0.5939   32.4237 N.am    1  UNL1       -0.2759
     29 C           5.9887    1.3857   33.6973 C.2     1  UNL1        0.2513
     30 O           5.1957    2.6570   33.7702 O.2     1  UNL1       -0.2698
     31 C           6.8138   -0.6773   32.3508 C.3     1  UNL1        0.0951
     32 C           6.8462   -1.4691   31.0773 C.3     1  UNL1        0.0362
     33 C           6.7492    0.9063   34.8980 C.ar    1  UNL1        0.0807
     34 C           6.0936   -0.0173   35.8814 C.ar    1  UNL1        0.0666
     35 C           4.6775   -0.4615   35.6641 C.3     1  UNL1        0.0523
     36 N           6.8542   -0.4967   37.0822 N.ar    1  UNL1       -0.2282
     37 C           8.2703   -0.0525   37.2995 C.ar    1  UNL1        0.1982
     38 N           8.9259    0.8711   36.3160 N.ar    1  UNL1       -0.2282
     39 C           8.1654    1.3505   35.1153 C.ar    1  UNL1        0.0666
     40 C           8.8210    2.2741   34.1318 C.3     1  UNL1        0.0523
@<TRIPOS>BOND
     1    22    23    1
     2    23    21    1
     3     8    21    1
     4     8     9    1
     5     9    10    1
     6    10    11   ar
     7    11    12   ar
     8    12    17    1
     9    17    18    1
    10    17    19    1
    11    17    20    1
    12    12    13   ar
    13    13    14   ar
    14    14    15   ar
    15    15    16    1
    16    16     1    1
    17     1     2    1
    18     2     3    1
    19     3     4    1
    20     4    24    1
    21    24    25    1
    22    24    26    1
    23    26    27    1
    24    27    28    1
    25    28    29   am
    26    29    30    2
    27    29    33    1
    28    33    34   ar
    29    34    35    1
    30    34    36   ar
    31    36    37   ar
    32    37    38   ar
    33    38    39   ar
    34    39    40    1
    35    28    31    1
    36    31    32    1
    37     4     5    1
    38     5     6    1
    39     6     7    1
    40    16     8    1
    41     6     1    1
    42    15    10   ar
    43    32    24    1
    44    39    33   ar
@<TRIPOS>MOLECULE
*****
 40 44 0 0 0
SMALL
GASTEIGER

@<TRIPOS>ATOM
      1 N           3.2165    0.3822   24.0396 N.3     1  UNL1       -0.2671
      2 C           2.1710    0.2696   25.1092 C.3     1  UNL1        0.0899
      3 C           2.4884    0.6856   26.5150 C.3     1  UNL1        0.0896
      4 N           3.8513    1.2141   26.8512 N.3     1  UNL1       -0.2728
      5 C           4.8969    1.3267   25.7816 C.3     1  UNL1        0.0882
      6 C           4.5795    0.9107   24.3758 C.3     1  UNL1        0.0739
      7 C           5.6251    1.0233   23.3062 C.3     1  UNL1        0.0188
      8 C           2.0303    0.7155   21.6675 C.3     1  UNL1        0.1382
      9 C           1.9891   -0.0597   20.3840 C.3     1  UNL1        0.0573
     10 C           2.8324   -1.2881   20.5571 C.ar    1  UNL1       -0.0224
     11 C           3.1609   -2.4191   19.6282 C.ar    1  UNL1       -0.0006
     12 C           4.0518   -3.5341   20.0898 C.ar    1  UNL1        0.0711
     13 C           4.6142   -3.5180   21.4803 C.ar    1  UNL1        0.0036
     14 C           4.2858   -2.3870   22.4091 C.ar    1  UNL1       -0.0033
     15 C           3.3949   -1.2720   21.9476 C.ar    1  UNL1       -0.0093
     16 C           2.8991   -0.0338   22.6338 C.3     1  UNL1        0.1077
     17 C           4.3803   -4.6651   19.1609 C.3     1  UNL1        0.4186
     18 F           4.7088   -5.7961   18.2320 F       1  UNL1       -0.1659
     19 F           5.3202   -3.7724   18.4062 F       1  UNL1       -0.1659
     20 F           3.4405   -5.5579   19.9155 F       1  UNL1       -0.1659
     21 O           1.3262    2.0122   21.9373 O.3     1  UNL1       -0.3542
     22 C           3.4370    3.3845   21.2959 C.3     1  UNL1        0.0346
     23 C           2.1047    3.2937   21.9790 C.3     1  UNL1        0.1422
     24 C           4.1687    1.6301   28.2570 C.3     1  UNL1        0.0488
     25 C           4.5554    2.8792   27.5222 C.3     1  UNL1        0.0161
     26 C           3.6718    0.2364   28.5036 C.3     1  UNL1        0.0362
     27 C           3.6265   -0.3075   29.9008 C.3     1  UNL1        0.0951
     28 N           4.0781    0.5422   31.0514 N.am    1  UNL1       -0.2759
     29 C           4.0329   -0.0016   32.4486 C.2     1  UNL1        0.2513
     30 O           3.5360   -1.3953   32.6952 O.2     1  UNL1       -0.2698
     31 C           4.5751    1.9360   30.8048 C.3     1  UNL1        0.0951
     32 C           4.6203    2.4798   29.4077 C.3     1  UNL1        0.0362
     33 C           4.4846    0.8482   33.5992 C.ar    1  UNL1        0.0807
     34 C           3.5559    1.8685   34.1879 C.ar    1  UNL1        0.0666
     35 C           2.1756    2.0390   33.6259 C.3     1  UNL1        0.0523
     36 N           4.0075    2.7183   35.3385 N.ar    1  UNL1       -0.2282
     37 C           5.3878    2.5477   35.9005 C.ar    1  UNL1        0.1982
     38 N           6.3164    1.5274   35.3118 N.ar    1  UNL1       -0.2282
     39 C           5.8649    0.6776   34.1612 C.ar    1  UNL1        0.0666
     40 C           6.7935   -0.3427   33.5725 C.3     1  UNL1        0.0523
@<TRIPOS>BOND
     1    22    23    1
     2    23    21    1
     3     8    21    1
     4     8     9    1
     5     9    10    1
     6    10    11   ar
     7    11    12   ar
     8    12    17    1
     9    17    18    1
    10    17    19    1
    11    17    20    1
    12    12    13   ar
    13    13    14   ar
    14    14    15   ar
    15    15    16    1
    16    16     1    1
    17     1     2    1
    18     2     3    1
    19     3     4    1
    20     4    24    1
    21    24    25    1
    22    24    26    1
    23    26    27    1
    24    27    28    1
    25    28    29   am
    26    29    30    2
    27    29    33    1
    28    33    34   ar
    29    34    35    1
    30    34    36   ar
    31    36    37   ar
    32    37    38   ar
    33    38    39   ar
    34    39    40    1
    35    28    31    1
    36    31    32    1
    37     4     5    1
    38     5     6    1
    39     6     7    1
    40    16     8    1
    41     6     1    1
    42    15    10   ar
    43    32    24    1
    44    39    33   ar
@<TRIPOS>MOLECULE
*****
 40 44 0 0 0
SMALL
GASTEIGER

@<TRIPOS>ATOM
      1 N           0.5852    2.6216   28.5446 N.3     1  UNL1       -0.2671
      2 C           1.2882    3.9040   28.8779 C.3     1  UNL1        0.0899
      3 C           1.5819    4.2487   30.3079 C.3     1  UNL1        0.0896
      4 N           1.1727    3.3109   31.4047 N.3     1  UNL1       -0.2728
      5 C           0.4698    2.0284   31.0715 C.3     1  UNL1        0.0882
      6 C           0.1760    1.6837   29.6415 C.3     1  UNL1        0.0739
      7 C          -0.5270    0.4012   29.3084 C.3     1  UNL1        0.0188
      8 C          -0.9201    2.6983   26.3371 C.3     1  UNL1        0.1382
      9 C          -0.8026    2.1321   24.9531 C.3     1  UNL1        0.0573
     10 C           0.4815    1.3608   24.8752 C.ar    1  UNL1       -0.0224
     11 C           1.1225    0.5885   23.7604 C.ar    1  UNL1       -0.0006
     12 C           2.4396   -0.0943   23.9816 C.ar    1  UNL1        0.0711
     13 C           3.1158   -0.0048   25.3175 C.ar    1  UNL1        0.0036
     14 C           2.4748    0.7675   26.4323 C.ar    1  UNL1       -0.0033
     15 C           1.1577    1.4502   26.2111 C.ar    1  UNL1       -0.0093
     16 C           0.2915    2.2769   27.1146 C.3     1  UNL1        0.1077
     17 C           3.0806   -0.8666   22.8668 C.3     1  UNL1        0.4186
     18 F           3.7215   -1.6388   21.7520 F       1  UNL1       -0.1659
     19 F           2.3245   -0.0464   21.8639 F       1  UNL1       -0.1659
     20 F           3.8366   -1.6867   23.8696 F       1  UNL1       -0.1659
     21 O          -2.0506    3.5384   26.8531 O.3     1  UNL1       -0.3542
     22 C          -4.4702    4.4479   26.5919 C.3     1  UNL1        0.0346
     23 C          -3.2844    3.7281   26.0213 C.3     1  UNL1        0.1422
     24 C           1.4665    3.6556   32.8347 C.3     1  UNL1        0.0488
     25 C           0.4462    4.7083   32.5173 C.3     1  UNL1        0.0161
     26 C           2.3848    2.4832   32.6554 C.3     1  UNL1        0.0362
     27 C           3.2425    2.0209   33.7958 C.3     1  UNL1        0.0951
     28 N           3.1820    2.7312   35.1156 N.am    1  UNL1       -0.2759
     29 C           4.0397    2.2691   36.2561 C.2     1  UNL1        0.2513
     30 O           4.9580    1.0966   36.0769 O.2     1  UNL1       -0.2698
     31 C           2.2637    3.9037   35.2949 C.3     1  UNL1        0.0951
     32 C           1.4060    4.3658   34.1545 C.3     1  UNL1        0.0362
     33 C           3.9791    2.9794   37.5759 C.ar    1  UNL1        0.0807
     34 C           3.0307    2.5083   38.6383 C.ar    1  UNL1        0.0666
     35 C           2.1428    1.3270   38.3808 C.3     1  UNL1        0.0523
     36 N           2.9701    3.2185   39.9581 N.ar    1  UNL1       -0.2282
     37 C           3.8580    4.3998   40.2156 C.ar    1  UNL1        0.1982
     38 N           4.8064    4.8709   39.1533 N.ar    1  UNL1       -0.2282
     39 C           4.8670    4.1607   37.8334 C.ar    1  UNL1        0.0666
     40 C           5.8155    4.6317   36.7711 C.3     1  UNL1        0.0523
@<TRIPOS>BOND
     1    22    23    1
     2    23    21    1
     3     8    21    1
     4     8     9    1
     5     9    10    1
     6    10    11   ar
     7    11    12   ar
     8    12    17    1
     9    17    18    1
    10    17    19    1
    11    17    20    1
    12    12    13   ar
    13    13    14   ar
    14    14    15   ar
    15    15    16    1
    16    16     1    1
    17     1     2    1
    18     2     3    1
    19     3     4    1
    20     4    24    1
    21    24    25    1
    22    24    26    1
    23    26    27    1
    24    27    28    1
    25    28    29   am
    26    29    30    2
    27    29    33    1
    28    33    34   ar
    29    34    35    1
    30    34    36   ar
    31    36    37   ar
    32    37    38   ar
    33    38    39   ar
    34    39    40    1
    35    28    31    1
    36    31    32    1
    37     4     5    1
    38     5     6    1
    39     6     7    1
    40    16     8    1
    41     6     1    1
    42    15    10   ar
    43    32    24    1
    44    39    33   ar
@<TRIPOS>MOLECULE
*****
 40 44 0 0 0
SMALL
GASTEIGER

@<TRIPOS>ATOM
      1 N          -0.6200    2.9162   27.0052 N.3     1  UNL1       -0.2671
      2 C          -0.5995    1.5388   27.5988 C.3     1  UNL1        0.0899
      3 C           0.0906    1.2966   28.9083 C.3     1  UNL1        0.0896
      4 N           0.7604    2.4318   29.6244 N.3     1  UNL1       -0.2728
      5 C           0.7400    3.8092   29.0309 C.3     1  UNL1        0.0882
      6 C           0.0499    4.0514   27.7213 C.3     1  UNL1        0.0739
      7 C           0.0295    5.4288   27.1277 C.3     1  UNL1        0.0188
      8 C          -0.6908    3.0297   24.3355 C.3     1  UNL1        0.1382
      9 C          -1.7387    3.3636   23.3156 C.3     1  UNL1        0.0573
     10 C          -3.0057    3.6987   24.0453 C.ar    1  UNL1       -0.0224
     11 C          -4.3663    4.1030   23.5604 C.ar    1  UNL1       -0.0006
     12 C          -5.4621    4.3804   24.5464 C.ar    1  UNL1        0.0711
     13 C          -5.1972    4.2536   26.0174 C.ar    1  UNL1        0.0036
     14 C          -3.8365    3.8493   26.5023 C.ar    1  UNL1       -0.0033
     15 C          -2.7408    3.5719   25.5163 C.ar    1  UNL1       -0.0093
     16 C          -1.3101    3.1584   25.6956 C.3     1  UNL1        0.1077
     17 C          -6.8228    4.7847   24.0615 C.3     1  UNL1        0.4186
     18 F          -8.1835    5.1889   23.5766 F       1  UNL1       -0.1659
     19 F          -6.7208    3.7885   22.9448 F       1  UNL1       -0.1659
     20 F          -6.9248    5.7809   25.1782 F       1  UNL1       -0.1659
     21 O           0.7274    2.6361   24.0462 O.3     1  UNL1       -0.3542
     22 C           0.9122    0.9654   22.0652 C.3     1  UNL1        0.0346
     23 C           1.0340    1.2613   23.5306 C.3     1  UNL1        0.1422
     24 C           1.4506    2.1895   30.9340 C.3     1  UNL1        0.0488
     25 C           0.1425    2.7344   31.4258 C.3     1  UNL1        0.0161
     26 C           2.5190    1.7288   29.9873 C.3     1  UNL1        0.0362
     27 C           3.8233    1.2151   30.5209 C.3     1  UNL1        0.0951
     28 N           4.0593    1.1620   32.0013 N.am    1  UNL1       -0.2759
     29 C           5.3635    0.6483   32.5351 C.2     1  UNL1        0.2513
     30 O           6.4320    0.1876   31.5884 O.2     1  UNL1       -0.2698
     31 C           2.9908    1.6228   32.9480 C.3     1  UNL1        0.0951
     32 C           1.6865    2.1365   32.4144 C.3     1  UNL1        0.0362
     33 C           5.5994    0.5952   34.0155 C.ar    1  UNL1        0.0807
     34 C           6.3086    1.7242   34.7028 C.ar    1  UNL1        0.0666
     35 C           6.7819    2.9062   33.9097 C.3     1  UNL1        0.0523
     36 N           6.5446    1.6713   36.1832 N.ar    1  UNL1       -0.2282
     37 C           6.0713    0.4892   36.9762 C.ar    1  UNL1        0.1982
     38 N           5.3622   -0.6397   36.2889 N.ar    1  UNL1       -0.2282
     39 C           5.1262   -0.5868   34.8085 C.ar    1  UNL1        0.0666
     40 C           4.4170   -1.7157   34.1212 C.3     1  UNL1        0.0523
@<TRIPOS>BOND
     1    22    23    1
     2    23    21    1
     3     8    21    1
     4     8     9    1
     5     9    10    1
     6    10    11   ar
     7    11    12   ar
     8    12    17    1
     9    17    18    1
    10    17    19    1
    11    17    20    1
    12    12    13   ar
    13    13    14   ar
    14    14    15   ar
    15    15    16    1
    16    16     1    1
    17     1     2    1
    18     2     3    1
    19     3     4    1
    20     4    24    1
    21    24    25    1
    22    24    26    1
    23    26    27    1
    24    27    28    1
    25    28    29   am
    26    29    30    2
    27    29    33    1
    28    33    34   ar
    29    34    35    1
    30    34    36   ar
    31    36    37   ar
    32    37    38   ar
    33    38    39   ar
    34    39    40    1
    35    28    31    1
    36    31    32    1
    37     4     5    1
    38     5     6    1
    39     6     7    1
    40    16     8    1
    41     6     1    1
    42    15    10   ar
    43    32    24    1
    44    39    33   ar
@<TRIPOS>MOLECULE
*****
 40 44 0 0 0
SMALL
GASTEIGER

@<TRIPOS>ATOM
      1 N           4.5608   -1.3166   20.5330 N.3     1  UNL1       -0.2671
      2 C           4.6562    0.0978   21.0233 C.3     1  UNL1        0.0899
      3 C           3.5125    1.0445   20.8093 C.3     1  UNL1        0.0896
      4 N           2.2735    0.5769   20.1051 N.3     1  UNL1       -0.2728
      5 C           2.1780   -0.8375   19.6148 C.3     1  UNL1        0.0882
      6 C           3.3217   -1.7843   19.8287 C.3     1  UNL1        0.0739
      7 C           3.2263   -3.1986   19.3384 C.3     1  UNL1        0.0188
      8 C           6.6960   -2.6972   19.7084 C.3     1  UNL1        0.1382
      9 C           7.6617   -3.6444   20.3566 C.3     1  UNL1        0.0573
     10 C           7.2670   -3.7959   21.7959 C.ar    1  UNL1       -0.0224
     11 C           7.8529   -4.6008   22.9178 C.ar    1  UNL1       -0.0006
     12 C           7.2291   -4.5520   24.2811 C.ar    1  UNL1        0.0711
     13 C           6.0195   -3.6984   24.5223 C.ar    1  UNL1        0.0036
     14 C           5.4336   -2.8936   23.4003 C.ar    1  UNL1       -0.0033
     15 C           6.0574   -2.9423   22.0371 C.ar    1  UNL1       -0.0093
     16 C           5.7045   -2.2633   20.7470 C.3     1  UNL1        0.1077
     17 C           7.8149   -5.3570   25.4032 C.3     1  UNL1        0.4186
     18 F           8.4007   -6.1618   26.5252 F       1  UNL1       -0.1659
     19 F           8.1419   -4.0919   26.1398 F       1  UNL1       -0.1659
     20 F           7.4879   -6.6220   24.6665 F       1  UNL1       -0.1659
     21 O           6.7179   -2.2606   18.2735 O.3     1  UNL1       -0.3542
     22 C           5.5342   -0.1999   17.2236 C.3     1  UNL1        0.0346
     23 C           6.7114   -0.7996   17.9339 C.3     1  UNL1        0.1422
     24 C           1.1298    1.5236   19.8912 C.3     1  UNL1        0.0488
     25 C           1.4936    1.2283   18.4662 C.3     1  UNL1        0.0161
     26 C           1.1632    1.4900   21.3904 C.3     1  UNL1        0.0362
     27 C           0.1794    2.3006   22.1809 C.3     1  UNL1        0.0951
     28 N          -0.8380    3.1449   21.4721 N.am    1  UNL1       -0.2759
     29 C          -1.8218    3.9555   22.2625 C.2     1  UNL1        0.2513
     30 O          -1.7884    3.9220   23.7618 O.2     1  UNL1       -0.2698
     31 C          -0.8714    3.1784   19.9728 C.3     1  UNL1        0.0951
     32 C           0.1124    2.3678   19.1824 C.3     1  UNL1        0.0362
     33 C          -2.8392    4.7997   21.5538 C.ar    1  UNL1        0.0807
     34 C          -2.4650    6.1635   21.0539 C.ar    1  UNL1        0.0666
     35 C          -1.0734    6.6832   21.2628 C.3     1  UNL1        0.0523
     36 N          -3.4823    7.0078   20.3451 N.ar    1  UNL1       -0.2282
     37 C          -4.8738    6.4882   20.1362 C.ar    1  UNL1        0.1982
     38 N          -5.2480    5.1244   20.6361 N.ar    1  UNL1       -0.2282
     39 C          -4.2307    4.2801   21.3449 C.ar    1  UNL1        0.0666
     40 C          -4.6050    2.9163   21.8447 C.3     1  UNL1        0.0523
@<TRIPOS>BOND
     1    22    23    1
     2    23    21    1
     3     8    21    1
     4     8     9    1
     5     9    10    1
     6    10    11   ar
     7    11    12   ar
     8    12    17    1
     9    17    18    1
    10    17    19    1
    11    17    20    1
    12    12    13   ar
    13    13    14   ar
    14    14    15   ar
    15    15    16    1
    16    16     1    1
    17     1     2    1
    18     2     3    1
    19     3     4    1
    20     4    24    1
    21    24    25    1
    22    24    26    1
    23    26    27    1
    24    27    28    1
    25    28    29   am
    26    29    30    2
    27    29    33    1
    28    33    34   ar
    29    34    35    1
    30    34    36   ar
    31    36    37   ar
    32    37    38   ar
    33    38    39   ar
    34    39    40    1
    35    28    31    1
    36    31    32    1
    37     4     5    1
    38     5     6    1
    39     6     7    1
    40    16     8    1
    41     6     1    1
    42    15    10   ar
    43    32    24    1
    44    39    33   ar
@<TRIPOS>MOLECULE
*****
 40 44 0 0 0
SMALL
GASTEIGER

@<TRIPOS>ATOM
      1 N           2.0258    1.1748   27.0339 N.3     1  UNL1       -0.2671
      2 C           1.3319    0.2359   27.9757 C.3     1  UNL1        0.0899
      3 C           1.3750    0.4884   29.4537 C.3     1  UNL1        0.0896
      4 N           2.1119    1.6797   29.9899 N.3     1  UNL1       -0.2728
      5 C           2.8059    2.6186   29.0482 C.3     1  UNL1        0.0882
      6 C           2.7629    2.3662   27.5702 C.3     1  UNL1        0.0739
      7 C           3.4568    3.3051   26.6285 C.3     1  UNL1        0.0188
      8 C           1.1351    1.6573   24.5603 C.3     1  UNL1        0.1382
      9 C           1.4083    1.0798   23.2032 C.3     1  UNL1        0.0573
     10 C           2.4248   -0.0120   23.3600 C.ar    1  UNL1       -0.0224
     11 C           3.0730   -0.9302   22.3667 C.ar    1  UNL1       -0.0006
     12 C           4.0762   -1.9457   22.8274 C.ar    1  UNL1        0.0711
     13 C           4.4312   -2.0430   24.2816 C.ar    1  UNL1        0.0036
     14 C           3.7830   -1.1249   25.2749 C.ar    1  UNL1       -0.0033
     15 C           2.7798   -0.1094   24.8142 C.ar    1  UNL1       -0.0093
     16 C           1.9828    0.9223   25.5559 C.3     1  UNL1        0.1077
     17 C           4.7244   -2.8639   21.8340 C.3     1  UNL1        0.4186
     18 F           5.3726   -3.7821   20.8407 F       1  UNL1       -0.1659
     19 F           4.5800   -1.8157   20.7709 F       1  UNL1       -0.1659
     20 F           4.8688   -3.9122   22.8972 F       1  UNL1       -0.1659
     21 O           0.1817    2.7737   24.8678 O.3     1  UNL1       -0.3542
     22 C          -1.1940    2.8840   27.0690 C.3     1  UNL1        0.0346
     23 C          -1.0824    2.4933   25.6251 C.3     1  UNL1        0.1422
     24 C           2.1550    1.9321   31.4679 C.3     1  UNL1        0.0488
     25 C           0.6745    1.9962   31.2357 C.3     1  UNL1        0.0161
     26 C           3.6205    1.7803   31.1868 C.3     1  UNL1        0.0362
     27 C           4.6151    1.9031   32.3029 C.3     1  UNL1        0.0951
     28 N           4.1440    2.1778   33.7003 N.am    1  UNL1       -0.2759
     29 C           5.1384    2.3007   34.8165 C.2     1  UNL1        0.2513
     30 O           6.6040    2.1489   34.5354 O.2     1  UNL1       -0.2698
     31 C           2.6783    2.3296   33.9814 C.3     1  UNL1        0.0951
     32 C           1.6839    2.2068   32.8653 C.3     1  UNL1        0.0362
     33 C           4.6673    2.5754   36.2139 C.ar    1  UNL1        0.0807
     34 C           4.4952    3.9897   36.6829 C.ar    1  UNL1        0.0666
     35 C           4.7941    5.1294   35.7545 C.3     1  UNL1        0.0523
     36 N           4.0241    4.2645   38.0803 N.ar    1  UNL1       -0.2282
     37 C           3.7252    3.1249   39.0087 C.ar    1  UNL1        0.1982
     38 N           3.8973    1.7105   38.5397 N.ar    1  UNL1       -0.2282
     39 C           4.3684    1.4357   37.1423 C.ar    1  UNL1        0.0666
     40 C           4.5405    0.0214   36.6733 C.3     1  UNL1        0.0523
@<TRIPOS>BOND
     1    22    23    1
     2    23    21    1
     3     8    21    1
     4     8     9    1
     5     9    10    1
     6    10    11   ar
     7    11    12   ar
     8    12    17    1
     9    17    18    1
    10    17    19    1
    11    17    20    1
    12    12    13   ar
    13    13    14   ar
    14    14    15   ar
    15    15    16    1
    16    16     1    1
    17     1     2    1
    18     2     3    1
    19     3     4    1
    20     4    24    1
    21    24    25    1
    22    24    26    1
    23    26    27    1
    24    27    28    1
    25    28    29   am
    26    29    30    2
    27    29    33    1
    28    33    34   ar
    29    34    35    1
    30    34    36   ar
    31    36    37   ar
    32    37    38   ar
    33    38    39   ar
    34    39    40    1
    35    28    31    1
    36    31    32    1
    37     4     5    1
    38     5     6    1
    39     6     7    1
    40    16     8    1
    41     6     1    1
    42    15    10   ar
    43    32    24    1
    44    39    33   ar
@<TRIPOS>MOLECULE
*****
 40 44 0 0 0
SMALL
GASTEIGER

@<TRIPOS>ATOM
      1 N           1.2433    1.5555   25.5489 N.3     1  UNL1       -0.2671
      2 C           0.2372    0.9609   26.4891 C.3     1  UNL1        0.0899
      3 C           0.5028    0.9537   27.9654 C.3     1  UNL1        0.0896
      4 N           1.7746    1.5411   28.5015 N.3     1  UNL1       -0.2728
      5 C           2.7808    2.1358   27.5613 C.3     1  UNL1        0.0882
      6 C           2.5152    2.1430   26.0851 C.3     1  UNL1        0.0739
      7 C           3.5214    2.7377   25.1449 C.3     1  UNL1        0.0188
      8 C           0.0040    2.4509   23.3563 C.3     1  UNL1        0.1382
      9 C           0.0637    2.1201   21.8945 C.3     1  UNL1        0.0573
     10 C           1.0743    1.0275   21.7073 C.ar    1  UNL1       -0.0224
     11 C           1.5531    0.3018   20.4850 C.ar    1  UNL1       -0.0006
     12 C           2.5967   -0.7684   20.6089 C.ar    1  UNL1        0.0711
     13 C           3.1616   -1.1129   21.9551 C.ar    1  UNL1        0.0036
     14 C           2.6828   -0.3871   23.1774 C.ar    1  UNL1       -0.0033
     15 C           1.6391    0.6831   23.0535 C.ar    1  UNL1       -0.0093
     16 C           0.9777    1.5628   24.0727 C.3     1  UNL1        0.1077
     17 C           3.0756   -1.4941   19.3866 C.3     1  UNL1        0.4186
     18 F           3.5544   -2.2198   18.1643 F       1  UNL1       -0.1659
     19 F           2.7210   -0.3061   18.5424 F       1  UNL1       -0.1659
     20 F           3.4302   -2.6822   20.2309 F       1  UNL1       -0.1659
     21 O          -0.8750    3.4878   23.9905 O.3     1  UNL1       -0.3542
     22 C          -3.4706    3.5864   23.9332 C.3     1  UNL1        0.0346
     23 C          -2.1442    3.9115   23.3126 C.3     1  UNL1        0.1422
     24 C           2.0402    1.5339   29.9778 C.3     1  UNL1        0.0488
     25 C           0.5924    1.9262   29.9755 C.3     1  UNL1        0.0161
     26 C           3.3957    1.1441   29.4673 C.3     1  UNL1        0.0362
     27 C           4.5141    0.8833   30.4323 C.3     1  UNL1        0.0951
     28 N           4.2770    1.0123   31.9078 N.am    1  UNL1       -0.2759
     29 C           5.3953    0.7516   32.8728 C.2     1  UNL1        0.2513
     30 O           6.7509    0.3618   32.3624 O.2     1  UNL1       -0.2698
     31 C           2.9214    1.4021   32.4183 C.3     1  UNL1        0.0951
     32 C           1.8031    1.6629   31.4533 C.3     1  UNL1        0.0362
     33 C           5.1581    0.8806   34.3484 C.ar    1  UNL1        0.0807
     34 C           5.4290    2.1835   35.0404 C.ar    1  UNL1        0.0666
     35 C           5.9369    3.3575   34.2569 C.3     1  UNL1        0.0523
     36 N           5.1919    2.3126   36.5159 N.ar    1  UNL1       -0.2282
     37 C           4.6839    1.1386   37.2994 C.ar    1  UNL1        0.1982
     38 N           4.4131   -0.1643   36.6074 N.ar    1  UNL1       -0.2282
     39 C           4.6502   -0.2934   35.1319 C.ar    1  UNL1        0.0666
     40 C           4.3793   -1.5964   34.4398 C.3     1  UNL1        0.0523
@<TRIPOS>BOND
     1    22    23    1
     2    23    21    1
     3     8    21    1
     4     8     9    1
     5     9    10    1
     6    10    11   ar
     7    11    12   ar
     8    12    17    1
     9    17    18    1
    10    17    19    1
    11    17    20    1
    12    12    13   ar
    13    13    14   ar
    14    14    15   ar
    15    15    16    1
    16    16     1    1
    17     1     2    1
    18     2     3    1
    19     3     4    1
    20     4    24    1
    21    24    25    1
    22    24    26    1
    23    26    27    1
    24    27    28    1
    25    28    29   am
    26    29    30    2
    27    29    33    1
    28    33    34   ar
    29    34    35    1
    30    34    36   ar
    31    36    37   ar
    32    37    38   ar
    33    38    39   ar
    34    39    40    1
    35    28    31    1
    36    31    32    1
    37     4     5    1
    38     5     6    1
    39     6     7    1
    40    16     8    1
    41     6     1    1
    42    15    10   ar
    43    32    24    1
    44    39    33   ar
