@<TRIPOS>MOLECULE
*****
 36 39 0 0 0
SMALL
GASTEIGER

@<TRIPOS>ATOM
      1 C          -8.2598    5.9058   24.1335 C.3     1  UNL1        0.0326
      2 C          -7.0337    5.1344   23.7440 C.ar    1  UNL1       -0.0032
      3 C          -6.8563    4.3371   22.4859 C.ar    1  UNL1        0.0718
      4 N          -5.4828    3.7348   22.5086 N.ar    1  UNL1       -0.3220
      5 C          -4.8113    4.1599   23.7809 C.ar    1  UNL1        0.0600
      6 C          -3.4508    3.8711   24.3427 C.ar    1  UNL1        0.0182
      7 C          -3.0489    4.4472   25.6680 C.ar    1  UNL1        0.0311
      8 C          -4.0074    5.3122   26.4315 C.ar    1  UNL1        0.1402
      9 F          -3.6055    5.8884   27.7569 F       1  UNL1       -0.2042
     10 C          -5.3679    5.6010   25.8697 C.ar    1  UNL1        0.0308
     11 C          -5.7698    5.0249   24.5443 C.ar    1  UNL1        0.0155
     12 C          -2.4922    3.0061   23.5791 C.2     1  UNL1        0.0062
     13 C          -1.0138    3.2082   23.7328 C.2     1  UNL1        0.0593
     14 C          -0.0553    2.3433   22.9693 C.2     1  UNL1        0.2644
     15 O           1.0775    1.6674   23.6836 O.2     1  UNL1       -0.2686
     16 N          -0.2293    2.1541   21.4915 N.am    1  UNL1       -0.1809
     17 H          -0.9727    2.5977   21.0227 H       1  UNL1        0.1769
     18 S           0.7293    1.2892   20.7280 S.O2    1  UNL1        0.0816
     19 O           1.6726    2.4482   20.5992 O.2     1  UNL1       -0.1494
     20 O          -0.2140    0.1301   20.8568 O.2     1  UNL1       -0.1494
     21 C           1.6879    0.4242   19.9646 C.ar    1  UNL1        0.1564
     22 C           2.2654   -0.8785   20.4332 C.ar    1  UNL1        0.0396
     23 C           3.1717   -1.3978   19.3567 C.ar    1  UNL1        0.0762
     24 CL          3.9575   -2.6746   19.4056 Cl      1  UNL1       -0.0808
     25 C           3.1543   -0.4161   18.2227 C.ar    1  UNL1        0.0987
     26 CL          3.9196   -0.5388   16.9384 Cl      1  UNL1       -0.0742
     27 S           2.2372    0.7099   18.5984 S.2     1  UNL1       -0.0546
     28 C          -4.8855    2.8610   21.4458 C.3     1  UNL1        0.1336
     29 C          -4.3241    3.4752   20.1978 C.ar    1  UNL1        0.0110
     30 C          -2.9112    3.9786   20.1798 C.ar    1  UNL1       -0.0007
     31 C          -2.3497    4.5928   18.9318 C.ar    1  UNL1        0.0112
     32 C          -3.2011    4.7036   17.7018 C.ar    1  UNL1        0.0585
     33 CL         -2.6397    5.3178   16.4537 Cl      1  UNL1       -0.0822
     34 C          -4.6140    4.2002   17.7199 C.ar    1  UNL1        0.0225
     35 C          -5.1755    3.5860   18.9679 C.ar    1  UNL1        0.0563
     36 CL         -6.5883    3.0825   18.9860 Cl      1  UNL1       -0.0825
@<TRIPOS>BOND
     1     1     2    1
     2     2     3   ar
     3     3     4   ar
     4     4    28    1
     5    28    29    1
     6    29    30   ar
     7    30    31   ar
     8    31    32   ar
     9    32    33    1
    10    32    34   ar
    11    34    35   ar
    12    35    36    1
    13     4     5   ar
    14     5     6   ar
    15     6    12    1
    16    12    13    2
    17    13    14    1
    18    14    15    2
    19    14    16   am
    20    16    18    1
    21    18    19    2
    22    18    20    2
    23    18    21    1
    24    21    22   ar
    25    22    23   ar
    26    23    24    1
    27    23    25   ar
    28    25    26    1
    29    25    27   ar
    30     6     7   ar
    31     7     8   ar
    32     8     9    1
    33     8    10   ar
    34    10    11   ar
    35    11     2   ar
    36    35    29   ar
    37    11     5   ar
    38    27    21   ar
    39    16    17    1
@<TRIPOS>MOLECULE
*****
 36 39 0 0 0
SMALL
GASTEIGER

@<TRIPOS>ATOM
      1 C           1.3068    0.2108   19.1850 C.3     1  UNL1        0.0326
      2 C           2.1023   -0.3095   20.3454 C.ar    1  UNL1       -0.0032
      3 C           2.2329    0.3448   21.6889 C.ar    1  UNL1        0.0718
      4 N           3.1181   -0.5167   22.5399 N.ar    1  UNL1       -0.3220
      5 C           3.5345   -1.7034   21.7223 C.ar    1  UNL1        0.0600
      6 C           4.4044   -2.8841   22.0377 C.ar    1  UNL1        0.0182
      7 C           4.6464   -3.9367   20.9968 C.ar    1  UNL1        0.0311
      8 C           4.0185   -3.8086   19.6406 C.ar    1  UNL1        0.1402
      9 F           4.2605   -4.8612   18.5997 F       1  UNL1       -0.2042
     10 C           3.1487   -2.6279   19.3253 C.ar    1  UNL1        0.0308
     11 C           2.9067   -1.5753   20.3661 C.ar    1  UNL1        0.0155
     12 C           5.0322   -3.0121   23.3940 C.2     1  UNL1        0.0062
     13 C           6.2901   -3.8110   23.5658 C.2     1  UNL1        0.0593
     14 C           6.9179   -3.9391   24.9220 C.2     1  UNL1        0.2644
     15 O           8.2858   -3.3763   25.1714 O.2     1  UNL1       -0.2686
     16 N           6.1778   -4.6299   26.0289 N.am    1  UNL1       -0.1809
     17 H           5.2800   -4.9992   25.8652 H       1  UNL1        0.1769
     18 S           6.8057   -4.7579   27.3852 S.O2    1  UNL1        0.0816
     19 O           6.2328   -3.4280   27.7760 O.2     1  UNL1       -0.1494
     20 O           7.3787   -6.0879   26.9943 O.2     1  UNL1       -0.1494
     21 C           7.4336   -4.8860   28.7414 C.ar    1  UNL1        0.1564
     22 C           7.7366   -3.7582   29.6828 C.ar    1  UNL1        0.0396
     23 C           8.3590   -4.3396   30.9175 C.ar    1  UNL1        0.0762
     24 CL          8.8189   -3.5691   32.1195 Cl      1  UNL1       -0.0808
     25 C           8.4407   -5.8267   30.7392 C.ar    1  UNL1        0.0987
     26 CL          8.9968   -6.8045   31.7316 Cl      1  UNL1       -0.0742
     27 S           7.8688   -6.1644   29.3942 S.2     1  UNL1       -0.0546
     28 C           3.5168   -0.2401   23.9592 C.3     1  UNL1        0.1336
     29 C           2.5000    0.2665   24.9388 C.ar    1  UNL1        0.0110
     30 C           1.2001    0.8303   24.4463 C.ar    1  UNL1       -0.0007
     31 C           0.1833    1.3369   25.4258 C.ar    1  UNL1        0.0112
     32 C           0.4664    1.2798   26.8978 C.ar    1  UNL1        0.0585
     33 CL         -0.5504    1.7863   27.8774 Cl      1  UNL1       -0.0822
     34 C           1.7663    0.7160   27.3902 C.ar    1  UNL1        0.0225
     35 C           2.7831    0.2094   26.4107 C.ar    1  UNL1        0.0563
     36 CL          4.0830   -0.3543   26.9031 Cl      1  UNL1       -0.0825
@<TRIPOS>BOND
     1     1     2    1
     2     2     3   ar
     3     3     4   ar
     4     4    28    1
     5    28    29    1
     6    29    30   ar
     7    30    31   ar
     8    31    32   ar
     9    32    33    1
    10    32    34   ar
    11    34    35   ar
    12    35    36    1
    13     4     5   ar
    14     5     6   ar
    15     6    12    1
    16    12    13    2
    17    13    14    1
    18    14    15    2
    19    14    16   am
    20    16    18    1
    21    18    19    2
    22    18    20    2
    23    18    21    1
    24    21    22   ar
    25    22    23   ar
    26    23    24    1
    27    23    25   ar
    28    25    26    1
    29    25    27   ar
    30     6     7   ar
    31     7     8   ar
    32     8     9    1
    33     8    10   ar
    34    10    11   ar
    35    11     2   ar
    36    35    29   ar
    37    11     5   ar
    38    27    21   ar
    39    16    17    1
@<TRIPOS>MOLECULE
*****
 36 39 0 0 0
SMALL
GASTEIGER

@<TRIPOS>ATOM
      1 C           1.4212    0.0008   19.3334 C.3     1  UNL1        0.0326
      2 C           2.2085   -0.6176   20.4504 C.ar    1  UNL1       -0.0032
      3 C           2.2633   -0.1275   21.8670 C.ar    1  UNL1        0.0718
      4 N           3.1679   -1.0416   22.6390 N.ar    1  UNL1       -0.3220
      5 C           3.6722   -2.0966   21.6995 C.ar    1  UNL1        0.0600
      6 C           4.5947   -3.2621   21.9009 C.ar    1  UNL1        0.0182
      7 C           4.9244   -4.1655   20.7497 C.ar    1  UNL1        0.0311
      8 C           4.3314   -3.9033   19.3971 C.ar    1  UNL1        0.1402
      9 F           4.6610   -4.8067   18.2458 F       1  UNL1       -0.2042
     10 C           3.4089   -2.7379   19.1956 C.ar    1  UNL1        0.0308
     11 C           3.0793   -1.8345   20.3468 C.ar    1  UNL1        0.0155
     12 C           5.1877   -3.5242   23.2536 C.2     1  UNL1        0.0062
     13 C           6.5192   -4.2052   23.3697 C.2     1  UNL1        0.0593
     14 C           7.1121   -4.4673   24.7224 C.2     1  UNL1        0.2644
     15 O           8.4981   -5.0292   24.8376 O.2     1  UNL1       -0.2686
     16 N           6.3191   -4.1675   25.9598 N.am    1  UNL1       -0.1809
     17 H           5.4094   -3.7987   25.8842 H       1  UNL1        0.1769
     18 S           6.9121   -4.4296   27.3125 S.O2    1  UNL1        0.0816
     19 O           7.5299   -3.0628   27.3066 O.2     1  UNL1       -0.1494
     20 O           6.2943   -5.7964   27.3184 O.2     1  UNL1       -0.1494
     21 C           7.5051   -4.6918   28.6651 C.ar    1  UNL1        0.1564
     22 C           7.9312   -3.6511   29.6578 C.ar    1  UNL1        0.0396
     23 C           8.4655   -4.3568   30.8687 C.ar    1  UNL1        0.0762
     24 CL          9.0016   -3.7008   32.1066 Cl      1  UNL1       -0.0808
     25 C           8.3697   -5.8337   30.6244 C.ar    1  UNL1        0.0987
     26 CL          8.7931   -6.9139   31.5752 Cl      1  UNL1       -0.0742
     27 S           7.7761   -6.0407   29.2625 S.2     1  UNL1       -0.0546
     28 C           3.5084   -0.9219   24.0949 C.3     1  UNL1        0.1336
     29 C           4.8065   -0.2970   24.5126 C.ar    1  UNL1        0.0110
     30 C           5.5945    0.5211   23.5329 C.ar    1  UNL1       -0.0007
     31 C           6.8926    1.1460   23.9505 C.ar    1  UNL1        0.0112
     32 C           7.4028    0.9527   25.3478 C.ar    1  UNL1        0.0585
     33 CL          8.7010    1.5775   25.7655 Cl      1  UNL1       -0.0822
     34 C           6.6148    0.1346   26.3275 C.ar    1  UNL1        0.0225
     35 C           5.3167   -0.4903   25.9098 C.ar    1  UNL1        0.0563
     36 CL          4.5287   -1.3084   26.8895 Cl      1  UNL1       -0.0825
@<TRIPOS>BOND
     1     1     2    1
     2     2     3   ar
     3     3     4   ar
     4     4    28    1
     5    28    29    1
     6    29    30   ar
     7    30    31   ar
     8    31    32   ar
     9    32    33    1
    10    32    34   ar
    11    34    35   ar
    12    35    36    1
    13     4     5   ar
    14     5     6   ar
    15     6    12    1
    16    12    13    2
    17    13    14    1
    18    14    15    2
    19    14    16   am
    20    16    18    1
    21    18    19    2
    22    18    20    2
    23    18    21    1
    24    21    22   ar
    25    22    23   ar
    26    23    24    1
    27    23    25   ar
    28    25    26    1
    29    25    27   ar
    30     6     7   ar
    31     7     8   ar
    32     8     9    1
    33     8    10   ar
    34    10    11   ar
    35    11     2   ar
    36    35    29   ar
    37    11     5   ar
    38    27    21   ar
    39    16    17    1
@<TRIPOS>MOLECULE
*****
 36 39 0 0 0
SMALL
GASTEIGER

@<TRIPOS>ATOM
      1 C          -5.3140    7.2791   28.1046 C.3     1  UNL1        0.0326
      2 C          -4.4528    6.3886   27.2587 C.ar    1  UNL1       -0.0032
      3 C          -2.9811    6.1586   27.4356 C.ar    1  UNL1        0.0718
      4 N          -2.5309    5.1997   26.3736 N.ar    1  UNL1       -0.3220
      5 C          -3.7244    4.8371   25.5403 C.ar    1  UNL1        0.0600
      6 C          -3.8830    3.9328   24.3542 C.ar    1  UNL1        0.0182
      7 C          -5.2293    3.7633   23.7150 C.ar    1  UNL1        0.0311
      8 C          -6.4171    4.4981   24.2620 C.ar    1  UNL1        0.1402
      9 F          -7.7635    4.3286   23.6228 F       1  UNL1       -0.2042
     10 C          -6.2585    5.4024   25.4482 C.ar    1  UNL1        0.0308
     11 C          -4.9122    5.5719   26.0874 C.ar    1  UNL1        0.0155
     12 C          -2.6952    3.1980   23.8072 C.2     1  UNL1        0.0062
     13 C          -2.0571    3.6511   22.5275 C.2     1  UNL1        0.0593
     14 C          -0.8693    2.9163   21.9804 C.2     1  UNL1        0.2644
     15 O           0.4361    2.9457   22.7188 O.2     1  UNL1       -0.2686
     16 N          -0.9868    2.1522   20.6950 N.am    1  UNL1       -0.1809
     17 H          -1.8436    2.1329   20.2104 H       1  UNL1        0.1769
     18 S           0.2010    1.4174   20.1480 S.O2    1  UNL1        0.0816
     19 O          -0.2307    0.1783   20.8748 O.2     1  UNL1       -0.1494
     20 O           0.6328    2.6565   19.4213 O.2     1  UNL1       -0.1494
     21 C           1.3889    0.6827   19.6010 C.ar    1  UNL1        0.1564
     22 C           1.8511   -0.6816   20.0195 C.ar    1  UNL1        0.0396
     23 C           3.0710   -1.0242   19.2166 C.ar    1  UNL1        0.0762
     24 CL          3.8605   -2.2960   19.3116 Cl      1  UNL1       -0.0808
     25 C           3.3626    0.1284   18.3019 C.ar    1  UNL1        0.0987
     26 CL          4.4950    0.2115   17.3217 Cl      1  UNL1       -0.0742
     27 S           2.3230    1.1833   18.5395 S.2     1  UNL1       -0.0546
     28 C          -1.1328    4.6924   26.1790 C.3     1  UNL1        0.1336
     29 C          -0.6332    3.5382   26.9964 C.ar    1  UNL1        0.0110
     30 C          -0.9282    2.1316   26.5668 C.ar    1  UNL1       -0.0007
     31 C          -0.4286    0.9774   27.3842 C.ar    1  UNL1        0.0112
     32 C           0.3660    1.2297   28.6312 C.ar    1  UNL1        0.0585
     33 CL          0.8657    0.0755   29.4486 Cl      1  UNL1       -0.0822
     34 C           0.6610    2.6363   29.0607 C.ar    1  UNL1        0.0225
     35 C           0.1614    3.7905   28.2433 C.ar    1  UNL1        0.0563
     36 CL          0.4564    5.1971   28.6729 Cl      1  UNL1       -0.0825
@<TRIPOS>BOND
     1     1     2    1
     2     2     3   ar
     3     3     4   ar
     4     4    28    1
     5    28    29    1
     6    29    30   ar
     7    30    31   ar
     8    31    32   ar
     9    32    33    1
    10    32    34   ar
    11    34    35   ar
    12    35    36    1
    13     4     5   ar
    14     5     6   ar
    15     6    12    1
    16    12    13    2
    17    13    14    1
    18    14    15    2
    19    14    16   am
    20    16    18    1
    21    18    19    2
    22    18    20    2
    23    18    21    1
    24    21    22   ar
    25    22    23   ar
    26    23    24    1
    27    23    25   ar
    28    25    26    1
    29    25    27   ar
    30     6     7   ar
    31     7     8   ar
    32     8     9    1
    33     8    10   ar
    34    10    11   ar
    35    11     2   ar
    36    35    29   ar
    37    11     5   ar
    38    27    21   ar
    39    16    17    1
@<TRIPOS>MOLECULE
*****
 36 39 0 0 0
SMALL
GASTEIGER

@<TRIPOS>ATOM
      1 C           1.7011    3.4425   33.6333 C.3     1  UNL1        0.0326
      2 C           2.2951    2.1614   33.1275 C.ar    1  UNL1       -0.0032
      3 C           2.0896    1.5724   31.7633 C.ar    1  UNL1        0.0718
      4 N           2.8664    0.2913   31.6897 N.ar    1  UNL1       -0.3220
      5 C           3.5521    0.0886   33.0084 C.ar    1  UNL1        0.0600
      6 C           4.4523   -0.9991   33.5148 C.ar    1  UNL1        0.0182
      7 C           4.9995   -0.9311   34.9098 C.ar    1  UNL1        0.0311
      8 C           4.6464    0.2247   35.7983 C.ar    1  UNL1        0.1402
      9 F           5.1935    0.2927   37.1933 F       1  UNL1       -0.2042
     10 C           3.7461    1.3124   35.2919 C.ar    1  UNL1        0.0308
     11 C           3.1990    1.2444   33.8969 C.ar    1  UNL1        0.0155
     12 C           4.8054   -2.1549   32.6262 C.2     1  UNL1        0.0062
     13 C           6.2355   -2.5860   32.4891 C.2     1  UNL1        0.0593
     14 C           6.5886   -3.7417   31.6006 C.2     1  UNL1        0.2644
     15 O           6.5025   -5.1445   32.1248 O.2     1  UNL1       -0.2686
     16 N           7.0279   -3.4947   30.1878 N.am    1  UNL1       -0.1809
     17 H           7.0844   -2.5740   29.8437 H       1  UNL1        0.1769
     18 S           7.3810   -4.6505   29.2992 S.O2    1  UNL1        0.0816
     19 O           6.0069   -4.6091   28.6992 O.2     1  UNL1       -0.1494
     20 O           8.7551   -4.6919   29.8992 O.2     1  UNL1       -0.1494
     21 C           7.7342   -5.8062   28.4107 C.ar    1  UNL1        0.1564
     22 C           8.3621   -7.0959   28.8493 C.ar    1  UNL1        0.0396
     23 C           8.5374   -7.9620   27.6373 C.ar    1  UNL1        0.0762
     24 CL          9.1285   -9.3405   27.6166 Cl      1  UNL1       -0.0808
     25 C           8.0178   -7.2075   26.4494 C.ar    1  UNL1        0.0987
     26 CL          7.9981   -7.6991   25.0324 Cl      1  UNL1       -0.0742
     27 S           7.5214   -5.8752   26.9275 S.2     1  UNL1       -0.0546
     28 C           2.9440   -0.6260   30.5054 C.3     1  UNL1        0.1336
     29 C           2.9385   -0.0596   29.1165 C.ar    1  UNL1        0.0110
     30 C           4.2337    0.2775   28.4389 C.ar    1  UNL1       -0.0007
     31 C           4.2282    0.8438   27.0500 C.ar    1  UNL1        0.0112
     32 C           2.9277    1.0732   26.3385 C.ar    1  UNL1        0.0585
     33 CL          2.9222    1.6396   24.9496 Cl      1  UNL1       -0.0822
     34 C           1.6326    0.7361   27.0161 C.ar    1  UNL1        0.0225
     35 C           1.6381    0.1697   28.4051 C.ar    1  UNL1        0.0563
     36 CL          0.3430   -0.1673   29.0827 Cl      1  UNL1       -0.0825
@<TRIPOS>BOND
     1     1     2    1
     2     2     3   ar
     3     3     4   ar
     4     4    28    1
     5    28    29    1
     6    29    30   ar
     7    30    31   ar
     8    31    32   ar
     9    32    33    1
    10    32    34   ar
    11    34    35   ar
    12    35    36    1
    13     4     5   ar
    14     5     6   ar
    15     6    12    1
    16    12    13    2
    17    13    14    1
    18    14    15    2
    19    14    16   am
    20    16    18    1
    21    18    19    2
    22    18    20    2
    23    18    21    1
    24    21    22   ar
    25    22    23   ar
    26    23    24    1
    27    23    25   ar
    28    25    26    1
    29    25    27   ar
    30     6     7   ar
    31     7     8   ar
    32     8     9    1
    33     8    10   ar
    34    10    11   ar
    35    11     2   ar
    36    35    29   ar
    37    11     5   ar
    38    27    21   ar
    39    16    17    1
@<TRIPOS>MOLECULE
*****
 36 39 0 0 0
SMALL
GASTEIGER

@<TRIPOS>ATOM
      1 C          -6.1608    5.9065   27.5069 C.3     1  UNL1        0.0326
      2 C          -5.2438    5.1987   26.5539 C.ar    1  UNL1       -0.0032
      3 C          -3.9908    4.4601   26.9205 C.ar    1  UNL1        0.0718
      4 N          -3.3913    3.9102   25.6603 N.ar    1  UNL1       -0.3220
      5 C          -4.2739    4.3090   24.5148 C.ar    1  UNL1        0.0600
      6 C          -4.1829    4.0499   23.0402 C.ar    1  UNL1        0.0182
      7 C          -5.2368    4.5871   22.1178 C.ar    1  UNL1        0.0311
      8 C          -6.3817    5.3834   22.6702 C.ar    1  UNL1        0.1402
      9 F          -7.4356    5.9207   21.7478 F       1  UNL1       -0.2042
     10 C          -6.4726    5.6426   24.1448 C.ar    1  UNL1        0.0308
     11 C          -5.4188    5.1054   25.0671 C.ar    1  UNL1        0.0155
     12 C          -3.0380    3.2535   22.4878 C.2     1  UNL1        0.0062
     13 C          -1.7794    3.9477   22.0591 C.2     1  UNL1        0.0593
     14 C          -0.6345    3.1514   21.5068 C.2     1  UNL1        0.2644
     15 O           0.7752    3.5140   21.8692 O.2     1  UNL1       -0.2686
     16 N          -0.8992    1.9924   20.5920 N.am    1  UNL1       -0.1809
     17 H          -1.8244    1.7544   20.3542 H       1  UNL1        0.1769
     18 S           0.2458    1.1961   20.0398 S.O2    1  UNL1        0.0816
     19 O           0.3693    2.1638   18.9004 O.2     1  UNL1       -0.1494
     20 O           0.1223    0.2284   21.1792 O.2     1  UNL1       -0.1494
     21 C           1.3907    0.3998   19.4875 C.ar    1  UNL1        0.1564
     22 C           2.0841    0.6428   18.1798 C.ar    1  UNL1        0.0396
     23 C           3.1652   -0.3862   18.0301 C.ar    1  UNL1        0.0762
     24 CL          4.1063   -0.5138   16.8690 Cl      1  UNL1       -0.0808
     25 C           3.1399   -1.2652   19.2454 C.ar    1  UNL1        0.0987
     26 CL          4.0514   -2.4261   19.5129 Cl      1  UNL1       -0.0742
     27 S           2.0433   -0.7794   20.1461 S.2     1  UNL1       -0.0546
     28 C          -2.1307    3.1032   25.5626 C.3     1  UNL1        0.1336
     29 C          -1.2075    3.0087   26.7411 C.ar    1  UNL1        0.0110
     30 C          -1.1120    1.7293   27.5183 C.ar    1  UNL1       -0.0007
     31 C          -0.1888    1.6348   28.6967 C.ar    1  UNL1        0.0112
     32 C           0.6390    2.8197   29.0980 C.ar    1  UNL1        0.0585
     33 CL          1.5622    2.7252   30.2765 Cl      1  UNL1       -0.0822
     34 C           0.5434    4.0990   28.3208 C.ar    1  UNL1        0.0225
     35 C          -0.3798    4.1935   27.1423 C.ar    1  UNL1        0.0563
     36 CL         -0.4753    5.4729   26.3650 Cl      1  UNL1       -0.0825
@<TRIPOS>BOND
     1     1     2    1
     2     2     3   ar
     3     3     4   ar
     4     4    28    1
     5    28    29    1
     6    29    30   ar
     7    30    31   ar
     8    31    32   ar
     9    32    33    1
    10    32    34   ar
    11    34    35   ar
    12    35    36    1
    13     4     5   ar
    14     5     6   ar
    15     6    12    1
    16    12    13    2
    17    13    14    1
    18    14    15    2
    19    14    16   am
    20    16    18    1
    21    18    19    2
    22    18    20    2
    23    18    21    1
    24    21    22   ar
    25    22    23   ar
    26    23    24    1
    27    23    25   ar
    28    25    26    1
    29    25    27   ar
    30     6     7   ar
    31     7     8   ar
    32     8     9    1
    33     8    10   ar
    34    10    11   ar
    35    11     2   ar
    36    35    29   ar
    37    11     5   ar
    38    27    21   ar
    39    16    17    1
@<TRIPOS>MOLECULE
*****
 36 39 0 0 0
SMALL
GASTEIGER

@<TRIPOS>ATOM
      1 C           1.4613    4.2287   34.7030 C.3     1  UNL1        0.0326
      2 C           2.1961    3.0127   34.2220 C.ar    1  UNL1       -0.0032
      3 C           2.2644    2.5271   32.8044 C.ar    1  UNL1        0.0718
      4 N           3.1021    1.2831   32.7804 N.ar    1  UNL1       -0.3220
      5 C           3.5516    0.9999   34.1833 C.ar    1  UNL1        0.0600
      6 C           4.3985   -0.0932   34.7645 C.ar    1  UNL1        0.0182
      7 C           4.6854   -0.1175   36.2365 C.ar    1  UNL1        0.0311
      8 C           4.1254    0.9515   37.1274 C.ar    1  UNL1        0.1402
      9 F           4.4123    0.9273   38.5996 F       1  UNL1       -0.2042
     10 C           3.2785    2.0447   36.5462 C.ar    1  UNL1        0.0308
     11 C           2.9916    2.0689   35.0741 C.ar    1  UNL1        0.0155
     12 C           4.9584   -1.1622   33.8735 C.2     1  UNL1        0.0062
     13 C           6.3762   -1.0709   33.3923 C.2     1  UNL1        0.0593
     14 C           6.9362   -2.1398   32.5014 C.2     1  UNL1        0.2644
     15 O           8.3972   -2.4752   32.5593 O.2     1  UNL1       -0.2686
     16 N           6.0354   -2.8734   31.5526 N.am    1  UNL1       -0.1809
     17 H           5.0765   -2.6533   31.5146 H       1  UNL1        0.1769
     18 S           6.5954   -3.9424   30.6616 S.O2    1  UNL1        0.0816
     19 O           6.6119   -2.9770   29.5137 O.2     1  UNL1       -0.1494
     20 O           6.5790   -4.9077   31.8096 O.2     1  UNL1       -0.1494
     21 C           7.1555   -5.0113   29.7707 C.ar    1  UNL1        0.1564
     22 C           8.2769   -5.9467   30.1135 C.ar    1  UNL1        0.0396
     23 C           8.5069   -6.8460   28.9353 C.ar    1  UNL1        0.0762
     24 CL          9.5356   -7.9339   28.8441 Cl      1  UNL1       -0.0808
     25 C           7.5276   -6.4665   27.8643 C.ar    1  UNL1        0.0987
     26 CL          7.4051   -7.1082   26.5140 Cl      1  UNL1       -0.0742
     27 S           6.6924   -5.3326   28.3807 S.2     1  UNL1       -0.0546
     28 C           3.4324    0.4658   31.5668 C.3     1  UNL1        0.1336
     29 C           4.6344    0.8073   30.7370 C.ar    1  UNL1        0.0110
     30 C           5.6150    1.8328   31.2238 C.ar    1  UNL1       -0.0007
     31 C           6.8170    2.1743   30.3940 C.ar    1  UNL1        0.0112
     32 C           7.0384    1.4905   29.0774 C.ar    1  UNL1        0.0585
     33 CL          8.2404    1.8320   28.2475 Cl      1  UNL1       -0.0822
     34 C           6.0578    0.4651   28.5906 C.ar    1  UNL1        0.0225
     35 C           4.8558    0.1235   29.4205 C.ar    1  UNL1        0.0563
     36 CL          3.8752   -0.9019   28.9337 Cl      1  UNL1       -0.0825
@<TRIPOS>BOND
     1     1     2    1
     2     2     3   ar
     3     3     4   ar
     4     4    28    1
     5    28    29    1
     6    29    30   ar
     7    30    31   ar
     8    31    32   ar
     9    32    33    1
    10    32    34   ar
    11    34    35   ar
    12    35    36    1
    13     4     5   ar
    14     5     6   ar
    15     6    12    1
    16    12    13    2
    17    13    14    1
    18    14    15    2
    19    14    16   am
    20    16    18    1
    21    18    19    2
    22    18    20    2
    23    18    21    1
    24    21    22   ar
    25    22    23   ar
    26    23    24    1
    27    23    25   ar
    28    25    26    1
    29    25    27   ar
    30     6     7   ar
    31     7     8   ar
    32     8     9    1
    33     8    10   ar
    34    10    11   ar
    35    11     2   ar
    36    35    29   ar
    37    11     5   ar
    38    27    21   ar
    39    16    17    1
@<TRIPOS>MOLECULE
*****
 36 39 0 0 0
SMALL
GASTEIGER

@<TRIPOS>ATOM
      1 C           6.9967   -4.4691   25.9077 C.3     1  UNL1        0.0326
      2 C           6.6780   -3.7904   27.2068 C.ar    1  UNL1       -0.0032
      3 C           6.0318   -2.4458   27.3639 C.ar    1  UNL1        0.0718
      4 N           5.9040   -2.1615   28.8311 N.ar    1  UNL1       -0.3220
      5 C           6.4714   -3.3304   29.5809 C.ar    1  UNL1        0.0600
      6 C           6.6142   -3.6080   31.0480 C.ar    1  UNL1        0.0182
      7 C           7.2353   -4.8924   31.5113 C.ar    1  UNL1        0.0311
      8 C           7.7137   -5.8990   30.5074 C.ar    1  UNL1        0.1402
      9 F           8.3349   -7.1834   30.9706 F       1  UNL1       -0.2042
     10 C           7.5709   -5.6213   29.0402 C.ar    1  UNL1        0.0308
     11 C           6.9497   -4.3370   28.5770 C.ar    1  UNL1        0.0155
     12 C           6.1358   -2.6013   32.0519 C.2     1  UNL1        0.0062
     13 C           7.1154   -1.6773   32.7127 C.2     1  UNL1        0.0593
     14 C           6.6371   -0.6706   33.7165 C.2     1  UNL1        0.2644
     15 O           7.4666    0.5429   34.0156 O.2     1  UNL1       -0.2686
     16 N           5.3292   -0.8774   34.4214 N.am    1  UNL1       -0.1809
     17 H           4.7848   -1.6738   34.2251 H       1  UNL1        0.1769
     18 S           4.8509    0.1294   35.4253 S.O2    1  UNL1        0.0816
     19 O           5.6374   -0.5655   36.4970 O.2     1  UNL1       -0.1494
     20 O           4.0644    0.8243   34.3536 O.2     1  UNL1       -0.1494
     21 C           4.3726    1.1361   36.4291 C.ar    1  UNL1        0.1564
     22 C           3.0512    1.8456   36.4055 C.ar    1  UNL1        0.0396
     23 C           2.9936    2.7581   37.5946 C.ar    1  UNL1        0.0762
     24 CL          1.8509    3.6581   37.9608 Cl      1  UNL1       -0.0808
     25 C           4.2796    2.6126   38.3531 C.ar    1  UNL1        0.0987
     26 CL          4.6485    3.3416   39.6111 Cl      1  UNL1       -0.0742
     27 S           5.1318    1.6102   37.6328 S.2     1  UNL1       -0.0546
     28 C           5.3128   -0.9255   29.4415 C.3     1  UNL1        0.1336
     29 C           3.9415   -0.4715   29.0371 C.ar    1  UNL1        0.0110
     30 C           3.6856   -0.0205   27.6295 C.ar    1  UNL1       -0.0007
     31 C           2.3144    0.4334   27.2251 C.ar    1  UNL1        0.0112
     32 C           1.1990    0.4363   28.2281 C.ar    1  UNL1        0.0585
     33 CL         -0.1723    0.8902   27.8237 Cl      1  UNL1       -0.0822
     34 C           1.4550   -0.0147   29.6356 C.ar    1  UNL1        0.0225
     35 C           2.8262   -0.4687   30.0401 C.ar    1  UNL1        0.0563
     36 CL          3.0822   -0.9197   31.4475 Cl      1  UNL1       -0.0825
@<TRIPOS>BOND
     1     1     2    1
     2     2     3   ar
     3     3     4   ar
     4     4    28    1
     5    28    29    1
     6    29    30   ar
     7    30    31   ar
     8    31    32   ar
     9    32    33    1
    10    32    34   ar
    11    34    35   ar
    12    35    36    1
    13     4     5   ar
    14     5     6   ar
    15     6    12    1
    16    12    13    2
    17    13    14    1
    18    14    15    2
    19    14    16   am
    20    16    18    1
    21    18    19    2
    22    18    20    2
    23    18    21    1
    24    21    22   ar
    25    22    23   ar
    26    23    24    1
    27    23    25   ar
    28    25    26    1
    29    25    27   ar
    30     6     7   ar
    31     7     8   ar
    32     8     9    1
    33     8    10   ar
    34    10    11   ar
    35    11     2   ar
    36    35    29   ar
    37    11     5   ar
    38    27    21   ar
    39    16    17    1
@<TRIPOS>MOLECULE
*****
 36 39 0 0 0
SMALL
GASTEIGER

@<TRIPOS>ATOM
      1 C           3.1566    0.8090   33.4271 C.3     1  UNL1        0.0326
      2 C           3.3996    0.3116   32.0330 C.ar    1  UNL1       -0.0032
      3 C           2.4834    0.4943   30.8594 C.ar    1  UNL1        0.0718
      4 N           3.1191   -0.1602   29.6688 N.ar    1  UNL1       -0.3220
      5 C           4.4282   -0.7473   30.1066 C.ar    1  UNL1        0.0600
      6 C           5.4848   -1.5098   29.3634 C.ar    1  UNL1        0.0182
      7 C           6.7147   -1.9807   30.0814 C.ar    1  UNL1        0.0311
      8 C           6.8881   -1.6891   31.5425 C.ar    1  UNL1        0.1402
      9 F           8.1180   -2.1600   32.2605 F       1  UNL1       -0.2042
     10 C           5.8315   -0.9266   32.2856 C.ar    1  UNL1        0.0308
     11 C           4.6016   -0.4557   31.5677 C.ar    1  UNL1        0.0155
     12 C           5.3114   -1.8014   27.9022 C.2     1  UNL1        0.0062
     13 C           5.9582   -0.9159   26.8788 C.2     1  UNL1        0.0593
     14 C           5.7849   -1.2074   25.4177 C.2     1  UNL1        0.2644
     15 O           6.6778   -0.5464   24.4099 O.2     1  UNL1       -0.2686
     16 N           4.7185   -2.1600   24.9644 N.am    1  UNL1       -0.1809
     17 H           4.1325   -2.5939   25.6258 H       1  UNL1        0.1769
     18 S           4.5452   -2.4516   23.5031 S.O2    1  UNL1        0.0816
     19 O           3.5948   -1.2971   23.3855 O.2     1  UNL1       -0.1494
     20 O           5.4956   -3.6060   23.6208 O.2     1  UNL1       -0.1494
     21 C           4.3719   -2.7431   22.0420 C.ar    1  UNL1        0.1564
     22 C           4.3799   -4.1021   21.4071 C.ar    1  UNL1        0.0396
     23 C           4.1731   -3.9258   19.9319 C.ar    1  UNL1        0.0762
     24 CL          4.1127   -5.0245   18.9126 Cl      1  UNL1       -0.0808
     25 C           4.0373   -2.4578   19.6552 C.ar    1  UNL1        0.0987
     26 CL          3.8173   -1.8308   18.3104 Cl      1  UNL1       -0.0742
     27 S           4.1602   -1.7269   20.9593 S.2     1  UNL1       -0.0546
     28 C           2.5463   -0.2175   28.2837 C.3     1  UNL1        0.1336
     29 C           1.6141    0.8590   27.8125 C.ar    1  UNL1        0.0110
     30 C           2.1561    2.0585   27.0930 C.ar    1  UNL1       -0.0007
     31 C           1.2239    3.1350   26.6218 C.ar    1  UNL1        0.0112
     32 C          -0.2504    3.0121   26.8700 C.ar    1  UNL1        0.0585
     33 CL         -1.1826    4.0887   26.3988 Cl      1  UNL1       -0.0822
     34 C          -0.7923    1.8127   27.5894 C.ar    1  UNL1        0.0225
     35 C           0.1399    0.7362   28.0606 C.ar    1  UNL1        0.0563
     36 CL         -0.4021   -0.4633   28.7801 Cl      1  UNL1       -0.0825
@<TRIPOS>BOND
     1     1     2    1
     2     2     3   ar
     3     3     4   ar
     4     4    28    1
     5    28    29    1
     6    29    30   ar
     7    30    31   ar
     8    31    32   ar
     9    32    33    1
    10    32    34   ar
    11    34    35   ar
    12    35    36    1
    13     4     5   ar
    14     5     6   ar
    15     6    12    1
    16    12    13    2
    17    13    14    1
    18    14    15    2
    19    14    16   am
    20    16    18    1
    21    18    19    2
    22    18    20    2
    23    18    21    1
    24    21    22   ar
    25    22    23   ar
    26    23    24    1
    27    23    25   ar
    28    25    26    1
    29    25    27   ar
    30     6     7   ar
    31     7     8   ar
    32     8     9    1
    33     8    10   ar
    34    10    11   ar
    35    11     2   ar
    36    35    29   ar
    37    11     5   ar
    38    27    21   ar
    39    16    17    1
