@<TRIPOS>MOLECULE
*****
 28 31 0 0 0
SMALL
GASTEIGER

@<TRIPOS>ATOM
      1 O          -5.6267  -20.4646   22.0992 O.3     1  UNL1       -0.4535
      2 C          -4.5631  -19.4187   22.2566 C.ar    1  UNL1        0.2283
      3 C          -4.9187  -18.0615   22.7873 C.ar    1  UNL1        0.0945
      4 C          -3.8551  -17.0155   22.9447 C.ar    1  UNL1        0.1448
      5 C          -2.4360  -17.3267   22.5714 C.ar    1  UNL1        0.0578
      6 C          -2.0805  -18.6839   22.0408 C.ar    1  UNL1        0.1052
      7 N          -3.1440  -19.7299   21.8834 N.ar    1  UNL1       -0.2099
      8 O          -4.2107  -15.6583   23.4753 O.3     1  UNL1       -0.4753
      9 C          -5.6410  -15.2064   23.4814 C.3     1  UNL1        0.2054
     10 C          -6.4623  -15.3332   24.7301 C.3     1  UNL1        0.0487
     11 C          -7.9505  -15.4957   24.6357 C.3     1  UNL1        0.0359
     12 C          -8.7718  -15.6225   25.8845 C.3     1  UNL1        0.1423
     13 O          -8.1050  -15.5867   27.2276 O.3     1  UNL1       -0.3538
     14 C          -6.6168  -15.4242   27.3220 C.3     1  UNL1        0.1423
     15 C          -5.7955  -15.2975   26.0733 C.3     1  UNL1        0.0359
     16 C          -6.6370  -20.3470   20.9968 C.3     1  UNL1        0.2523
     17 C          -8.4299  -19.4855   18.7510 C.3     1  UNL1        0.0358
     18 C          -8.9091  -19.3964   20.1696 C.2     1  UNL1        0.0342
     19 C          -8.0127  -19.8272   21.2925 C.2     1  UNL1        0.1014
     20 N          -8.4919  -19.7382   22.7111 N.2     1  UNL1       -0.2501
     21 C          -9.8676  -19.2184   23.0068 C.2     1  UNL1        0.0661
     22 C         -10.3468  -19.1294   24.4254 C.3     1  UNL1        0.0718
     23 C         -11.7224  -18.6097   24.7211 C.2     1  UNL1       -0.0198
     24 C         -12.6188  -18.1789   23.5982 C.2     1  UNL1       -0.0040
     25 C         -12.1396  -18.2679   22.1796 C.2     1  UNL1        0.0040
     26 C         -10.7640  -18.7877   21.8840 C.2     1  UNL1        0.0525
     27 C         -10.2847  -18.8767   20.4653 C.2     1  UNL1        0.1940
     28 O         -11.1812  -18.4459   19.3424 O.2     1  UNL1       -0.2868
@<TRIPOS>BOND
     1    17    18    1
     2    18    19    2
     3    19    16    1
     4    16     1    1
     5     1     2    1
     6     2     3   ar
     7     3     4   ar
     8     4     8    1
     9     8     9    1
    10     9    10    1
    11    10    11    1
    12    11    12    1
    13    12    13    1
    14    13    14    1
    15    14    15    1
    16     4     5   ar
    17     5     6   ar
    18     6     7   ar
    19    19    20    1
    20    20    21    2
    21    21    22    1
    22    22    23    1
    23    23    24    2
    24    24    25    1
    25    25    26    2
    26    26    27    1
    27    27    28    2
    28    27    18    1
    29     7     2   ar
    30    26    21    1
    31    15    10    1
@<TRIPOS>MOLECULE
*****
 28 31 0 0 0
SMALL
GASTEIGER

@<TRIPOS>ATOM
      1 O          -6.5470  -20.2393   21.3454 O.3     1  UNL1       -0.4535
      2 C          -5.2552  -19.5477   21.6658 C.ar    1  UNL1        0.2283
      3 C          -5.2429  -18.3806   22.6080 C.ar    1  UNL1        0.0945
      4 C          -3.9510  -17.6889   22.9284 C.ar    1  UNL1        0.1448
      5 C          -2.6714  -18.1644   22.3066 C.ar    1  UNL1        0.0578
      6 C          -2.6837  -19.3315   21.3644 C.ar    1  UNL1        0.1052
      7 N          -3.9756  -20.0231   21.0440 N.ar    1  UNL1       -0.2099
      8 O          -3.9387  -16.5219   23.8706 O.3     1  UNL1       -0.4753
      9 C          -5.0178  -15.4829   23.7918 C.3     1  UNL1        0.2054
     10 C          -6.1152  -15.4623   24.8141 C.3     1  UNL1        0.0487
     11 C          -7.5495  -15.4780   24.3751 C.3     1  UNL1        0.0359
     12 C          -8.6470  -15.4575   25.3975 C.3     1  UNL1        0.1423
     13 O          -8.3102  -15.4212   26.8587 O.3     1  UNL1       -0.3538
     14 C          -6.8759  -15.4055   27.2977 C.3     1  UNL1        0.1423
     15 C          -5.7785  -15.4261   26.2754 C.3     1  UNL1        0.0359
     16 C          -7.6042  -20.3799   22.4002 C.3     1  UNL1        0.2523
     17 C          -9.6222  -20.5079   24.6163 C.3     1  UNL1        0.0358
     18 C          -9.8585  -19.6105   23.4378 C.2     1  UNL1        0.0342
     19 C          -8.8495  -19.5465   22.3297 C.2     1  UNL1        0.1014
     20 N          -9.0857  -18.6491   21.1512 N.2     1  UNL1       -0.2501
     21 C         -10.3309  -17.8157   21.0807 C.2     1  UNL1        0.0661
     22 C         -10.5671  -16.9183   19.9023 C.3     1  UNL1        0.0718
     23 C         -11.8123  -16.0850   19.8318 C.2     1  UNL1       -0.0198
     24 C         -12.8213  -16.1490   20.9399 C.2     1  UNL1       -0.0040
     25 C         -12.5851  -17.0464   22.1184 C.2     1  UNL1        0.0040
     26 C         -11.3399  -17.8797   22.1888 C.2     1  UNL1        0.0525
     27 C         -11.1037  -18.7772   23.3673 C.2     1  UNL1        0.1940
     28 O         -12.1127  -18.8412   24.4754 O.2     1  UNL1       -0.2868
@<TRIPOS>BOND
     1    17    18    1
     2    18    19    2
     3    19    16    1
     4    16     1    1
     5     1     2    1
     6     2     3   ar
     7     3     4   ar
     8     4     8    1
     9     8     9    1
    10     9    10    1
    11    10    11    1
    12    11    12    1
    13    12    13    1
    14    13    14    1
    15    14    15    1
    16     4     5   ar
    17     5     6   ar
    18     6     7   ar
    19    19    20    1
    20    20    21    2
    21    21    22    1
    22    22    23    1
    23    23    24    2
    24    24    25    1
    25    25    26    2
    26    26    27    1
    27    27    28    2
    28    27    18    1
    29     7     2   ar
    30    26    21    1
    31    15    10    1
@<TRIPOS>MOLECULE
*****
 28 31 0 0 0
SMALL
GASTEIGER

@<TRIPOS>ATOM
      1 O          -9.5847  -15.8100   24.5793 O.3     1  UNL1       -0.4535
      2 C          -8.1629  -15.6954   25.0431 C.ar    1  UNL1        0.2283
      3 C          -7.0387  -15.8772   24.0669 C.ar    1  UNL1        0.0945
      4 C          -5.6167  -15.7626   24.5306 C.ar    1  UNL1        0.1448
      5 C          -5.3191  -15.4663   25.9706 C.ar    1  UNL1        0.0578
      6 C          -6.4434  -15.2846   26.9469 C.ar    1  UNL1        0.1052
      7 N          -7.8652  -15.3991   26.4831 N.ar    1  UNL1       -0.2099
      8 O          -4.4925  -15.9444   23.5544 O.3     1  UNL1       -0.4753
      9 C          -3.7947  -17.2682   23.4521 C.3     1  UNL1        0.2054
     10 C          -2.9205  -17.5659   22.2701 C.3     1  UNL1        0.0487
     11 C          -2.9040  -18.9438   21.6775 C.3     1  UNL1        0.0359
     12 C          -2.0298  -19.2414   20.4954 C.3     1  UNL1        0.1423
     13 O          -1.1722  -18.1612   19.9059 O.3     1  UNL1       -0.3538
     14 C          -1.1887  -16.7833   20.4985 C.3     1  UNL1        0.1423
     15 C          -2.0629  -16.4856   21.6805 C.3     1  UNL1        0.0359
     16 C         -10.1543  -17.1534   24.2316 C.3     1  UNL1        0.2523
     17 C         -11.8352  -17.1707   21.7468 C.3     1  UNL1        0.0358
     18 C         -10.5165  -17.8854   21.7652 C.2     1  UNL1        0.0342
     19 C          -9.6761  -17.8768   23.0076 C.2     1  UNL1        0.1014
     20 N          -8.3574  -18.5915   23.0261 N.2     1  UNL1       -0.2501
     21 C          -7.8792  -19.3149   21.8022 C.2     1  UNL1        0.0661
     22 C          -6.5606  -20.0296   21.8206 C.3     1  UNL1        0.0718
     23 C          -6.0824  -20.7530   20.5967 C.2     1  UNL1       -0.0198
     24 C          -6.9228  -20.7616   19.3543 C.2     1  UNL1       -0.0040
     25 C          -8.2415  -20.0469   19.3358 C.2     1  UNL1        0.0040
     26 C          -8.7196  -19.3236   20.5597 C.2     1  UNL1        0.0525
     27 C         -10.0383  -18.6088   20.5413 C.2     1  UNL1        0.1940
     28 O         -10.8788  -18.6175   19.2989 O.2     1  UNL1       -0.2868
@<TRIPOS>BOND
     1    17    18    1
     2    18    19    2
     3    19    16    1
     4    16     1    1
     5     1     2    1
     6     2     3   ar
     7     3     4   ar
     8     4     8    1
     9     8     9    1
    10     9    10    1
    11    10    11    1
    12    11    12    1
    13    12    13    1
    14    13    14    1
    15    14    15    1
    16     4     5   ar
    17     5     6   ar
    18     6     7   ar
    19    19    20    1
    20    20    21    2
    21    21    22    1
    22    22    23    1
    23    23    24    2
    24    24    25    1
    25    25    26    2
    26    26    27    1
    27    27    28    2
    28    27    18    1
    29     7     2   ar
    30    26    21    1
    31    15    10    1
@<TRIPOS>MOLECULE
*****
 28 31 0 0 0
SMALL
GASTEIGER

@<TRIPOS>ATOM
      1 O          -5.1857  -14.9992   23.6768 O.3     1  UNL1       -0.4535
      2 C          -6.2452  -15.3814   24.6673 C.ar    1  UNL1        0.2283
      3 C          -7.5198  -16.0156   24.1949 C.ar    1  UNL1        0.0945
      4 C          -8.5794  -16.3979   25.1855 C.ar    1  UNL1        0.1448
      5 C          -8.3644  -16.1459   26.6484 C.ar    1  UNL1        0.0578
      6 C          -7.0898  -15.5117   27.1208 C.ar    1  UNL1        0.1052
      7 N          -6.0302  -15.1294   26.1303 N.ar    1  UNL1       -0.2099
      8 O          -9.8540  -17.0321   24.7130 O.3     1  UNL1       -0.4753
      9 C          -9.8240  -18.0367   23.5995 C.3     1  UNL1        0.2054
     10 C         -10.5351  -17.7490   22.3105 C.3     1  UNL1        0.0487
     11 C         -10.1778  -18.5131   21.0701 C.3     1  UNL1        0.0359
     12 C         -10.8890  -18.2254   19.7811 C.3     1  UNL1        0.1423
     13 O         -11.9573  -17.1736   19.7325 O.3     1  UNL1       -0.3538
     14 C         -12.3146  -16.4096   20.9729 C.3     1  UNL1        0.1423
     15 C         -11.6035  -16.6972   22.2619 C.3     1  UNL1        0.0359
     16 C          -3.9532  -15.8422   23.5341 C.3     1  UNL1        0.2523
     17 C          -1.6439  -16.2623   21.6658 C.3     1  UNL1        0.0358
     18 C          -2.7954  -17.2236   21.6629 C.2     1  UNL1        0.0342
     19 C          -3.9501  -17.0135   22.5970 C.2     1  UNL1        0.1014
     20 N          -5.1016  -17.9747   22.5941 N.2     1  UNL1       -0.2501
     21 C          -5.0985  -19.1461   21.6570 C.2     1  UNL1        0.0661
     22 C          -6.2500  -20.1073   21.6541 C.3     1  UNL1        0.0718
     23 C          -6.2468  -21.2785   20.7171 C.2     1  UNL1       -0.0198
     24 C          -5.0921  -21.4886   19.7830 C.2     1  UNL1       -0.0040
     25 C          -3.9406  -20.5274   19.7859 C.2     1  UNL1        0.0040
     26 C          -3.9438  -19.3561   20.7229 C.2     1  UNL1        0.0525
     27 C          -2.7923  -18.3948   20.7258 C.2     1  UNL1        0.1940
     28 O          -1.6376  -18.6049   19.7917 O.2     1  UNL1       -0.2868
@<TRIPOS>BOND
     1    17    18    1
     2    18    19    2
     3    19    16    1
     4    16     1    1
     5     1     2    1
     6     2     3   ar
     7     3     4   ar
     8     4     8    1
     9     8     9    1
    10     9    10    1
    11    10    11    1
    12    11    12    1
    13    12    13    1
    14    13    14    1
    15    14    15    1
    16     4     5   ar
    17     5     6   ar
    18     6     7   ar
    19    19    20    1
    20    20    21    2
    21    21    22    1
    22    22    23    1
    23    23    24    2
    24    24    25    1
    25    25    26    2
    26    26    27    1
    27    27    28    2
    28    27    18    1
    29     7     2   ar
    30    26    21    1
    31    15    10    1
@<TRIPOS>MOLECULE
*****
 28 31 0 0 0
SMALL
GASTEIGER

@<TRIPOS>ATOM
      1 O          -8.3858  -16.5895   24.8622 O.3     1  UNL1       -0.4535
      2 C          -9.3847  -17.6938   24.6815 C.ar    1  UNL1        0.2283
      3 C         -10.8090  -17.3685   24.3415 C.ar    1  UNL1        0.0945
      4 C         -11.8080  -18.4727   24.1608 C.ar    1  UNL1        0.1448
      5 C         -11.3827  -19.9023   24.3202 C.ar    1  UNL1        0.0578
      6 C          -9.9584  -20.2276   24.6602 C.ar    1  UNL1        0.1052
      7 N          -8.9594  -19.1234   24.8409 N.ar    1  UNL1       -0.2099
      8 O         -13.2322  -18.1474   23.8208 O.3     1  UNL1       -0.4753
      9 C         -13.6454  -17.9971   22.3867 C.3     1  UNL1        0.2054
     10 C         -12.6222  -17.6615   21.3426 C.3     1  UNL1        0.0487
     11 C         -11.7412  -18.7385   20.7823 C.3     1  UNL1        0.0359
     12 C         -10.7179  -18.4027   19.7381 C.3     1  UNL1        0.1423
     13 O         -10.5756  -16.9900   19.2543 O.3     1  UNL1       -0.3538
     14 C         -11.4566  -15.9131   19.8146 C.3     1  UNL1        0.1423
     15 C         -12.4799  -16.2487   20.8587 C.3     1  UNL1        0.0359
     16 C          -7.5763  -16.1118   23.6932 C.3     1  UNL1        0.2523
     17 C          -4.7496  -15.7849   24.6433 C.3     1  UNL1        0.0358
     18 C          -5.0769  -16.8154   23.6036 C.2     1  UNL1        0.0342
     19 C          -6.4902  -16.9789   23.1285 C.2     1  UNL1        0.1014
     20 N          -6.8176  -18.0093   22.0889 N.2     1  UNL1       -0.2501
     21 C          -5.7315  -18.8764   21.5242 C.2     1  UNL1        0.0661
     22 C          -6.0589  -19.9069   20.4845 C.3     1  UNL1        0.0718
     23 C          -4.9729  -20.7739   19.9199 C.2     1  UNL1       -0.0198
     24 C          -3.5595  -20.6104   20.3950 C.2     1  UNL1       -0.0040
     25 C          -3.2322  -19.5800   21.4347 C.2     1  UNL1        0.0040
     26 C          -4.3182  -18.7130   21.9993 C.2     1  UNL1        0.0525
     27 C          -3.9909  -17.6824   23.0390 C.2     1  UNL1        0.1940
     28 O          -2.5775  -17.5190   23.5140 O.2     1  UNL1       -0.2868
@<TRIPOS>BOND
     1    17    18    1
     2    18    19    2
     3    19    16    1
     4    16     1    1
     5     1     2    1
     6     2     3   ar
     7     3     4   ar
     8     4     8    1
     9     8     9    1
    10     9    10    1
    11    10    11    1
    12    11    12    1
    13    12    13    1
    14    13    14    1
    15    14    15    1
    16     4     5   ar
    17     5     6   ar
    18     6     7   ar
    19    19    20    1
    20    20    21    2
    21    21    22    1
    22    22    23    1
    23    23    24    2
    24    24    25    1
    25    25    26    2
    26    26    27    1
    27    27    28    2
    28    27    18    1
    29     7     2   ar
    30    26    21    1
    31    15    10    1
@<TRIPOS>MOLECULE
*****
 28 31 0 0 0
SMALL
GASTEIGER

@<TRIPOS>ATOM
      1 O         -15.5270   -3.0343   19.1558 O.3     1  UNL1       -0.4535
      2 C         -14.2973   -2.2324   18.8484 C.ar    1  UNL1        0.2283
      3 C         -12.9507   -2.8933   18.8519 C.ar    1  UNL1        0.0945
      4 C         -11.7209   -2.0913   18.5445 C.ar    1  UNL1        0.1448
      5 C         -11.8376   -0.6285   18.2337 C.ar    1  UNL1        0.0578
      6 C         -13.1843    0.0323   18.2302 C.ar    1  UNL1        0.1052
      7 N         -14.4140   -0.7696   18.5376 N.ar    1  UNL1       -0.2099
      8 O         -10.3743   -2.7522   18.5480 O.3     1  UNL1       -0.4753
      9 C          -9.9593   -3.6150   17.3934 C.3     1  UNL1        0.2054
     10 C         -10.2323   -5.0897   17.4229 C.3     1  UNL1        0.0487
     11 C         -11.1476   -5.7035   16.4054 C.3     1  UNL1        0.0359
     12 C         -11.4205   -7.1782   16.4349 C.3     1  UNL1        0.1423
     13 O         -10.7781   -8.0390   17.4820 O.3     1  UNL1       -0.3538
     14 C          -9.8628   -7.4251   18.4996 C.3     1  UNL1        0.1423
     15 C          -9.5899   -5.9505   18.4700 C.3     1  UNL1        0.0359
     16 C         -15.4615   -4.1575   20.1479 C.3     1  UNL1        0.2523
     17 C         -13.3324   -6.1211   19.3661 C.3     1  UNL1        0.0358
     18 C         -14.7754   -6.5301   19.3414 C.2     1  UNL1        0.0342
     19 C         -15.8399   -5.5483   19.7323 C.2     1  UNL1        0.1014
     20 N         -17.2829   -5.9572   19.7076 N.2     1  UNL1       -0.2501
     21 C         -17.6613   -7.3479   19.2920 C.2     1  UNL1        0.0661
     22 C         -19.1043   -7.7568   19.2673 C.3     1  UNL1        0.0718
     23 C         -19.4827   -9.1475   18.8517 C.2     1  UNL1       -0.0198
     24 C         -18.4182  -10.1293   18.4609 C.2     1  UNL1       -0.0040
     25 C         -16.9752   -9.7204   18.4856 C.2     1  UNL1        0.0040
     26 C         -16.5968   -8.3297   18.9011 C.2     1  UNL1        0.0525
     27 C         -15.1538   -7.9208   18.9258 C.2     1  UNL1        0.1940
     28 O         -14.0892   -8.9026   18.5350 O.2     1  UNL1       -0.2868
@<TRIPOS>BOND
     1    17    18    1
     2    18    19    2
     3    19    16    1
     4    16     1    1
     5     1     2    1
     6     2     3   ar
     7     3     4   ar
     8     4     8    1
     9     8     9    1
    10     9    10    1
    11    10    11    1
    12    11    12    1
    13    12    13    1
    14    13    14    1
    15    14    15    1
    16     4     5   ar
    17     5     6   ar
    18     6     7   ar
    19    19    20    1
    20    20    21    2
    21    21    22    1
    22    22    23    1
    23    23    24    2
    24    24    25    1
    25    25    26    2
    26    26    27    1
    27    27    28    2
    28    27    18    1
    29     7     2   ar
    30    26    21    1
    31    15    10    1
@<TRIPOS>MOLECULE
*****
 28 31 0 0 0
SMALL
GASTEIGER

@<TRIPOS>ATOM
      1 O         -13.5497   -8.4995   18.2705 O.3     1  UNL1       -0.4535
      2 C         -14.9595   -8.9298   18.5482 C.ar    1  UNL1        0.2283
      3 C         -15.9259   -7.9713   19.1784 C.ar    1  UNL1        0.0945
      4 C         -17.3358   -8.4016   19.4561 C.ar    1  UNL1        0.1448
      5 C         -17.7792   -9.7906   19.1036 C.ar    1  UNL1        0.0578
      6 C         -16.8128  -10.7491   18.4734 C.ar    1  UNL1        0.1052
      7 N         -15.4029  -10.3188   18.1957 N.ar    1  UNL1       -0.2099
      8 O         -18.3022   -7.4431   20.0863 O.3     1  UNL1       -0.4753
      9 C         -18.9173   -6.3493   19.2645 C.3     1  UNL1        0.2054
     10 C         -18.5245   -4.9213   19.5023 C.3     1  UNL1        0.0487
     11 C         -17.0749   -4.5370   19.5310 C.3     1  UNL1        0.0359
     12 C         -16.6822   -3.1089   19.7688 C.3     1  UNL1        0.1423
     13 O         -17.7390   -2.0652   19.9778 O.3     1  UNL1       -0.3538
     14 C         -19.1887   -2.4496   19.9491 C.3     1  UNL1        0.1423
     15 C         -19.5814   -3.8776   19.7114 C.3     1  UNL1        0.0359
     16 C         -13.2747   -7.4629   17.2218 C.3     1  UNL1        0.2523
     17 C         -10.5753   -7.2213   18.5082 C.3     1  UNL1        0.0358
     18 C         -11.4016   -5.9937   18.2624 C.2     1  UNL1        0.0342
     19 C         -12.7513   -6.1144   17.6192 C.2     1  UNL1        0.1014
     20 N         -13.5775   -4.8869   17.3733 N.2     1  UNL1       -0.2501
     21 C         -13.0540   -3.5385   17.7707 C.2     1  UNL1        0.0661
     22 C         -13.8802   -2.3110   17.5249 C.3     1  UNL1        0.0718
     23 C         -13.3567   -0.9626   17.9223 C.2     1  UNL1       -0.0198
     24 C         -12.0070   -0.8419   18.5655 C.2     1  UNL1       -0.0040
     25 C         -11.1808   -2.0694   18.8113 C.2     1  UNL1        0.0040
     26 C         -11.7043   -3.4177   18.4139 C.2     1  UNL1        0.0525
     27 C         -10.8781   -4.6454   18.6597 C.2     1  UNL1        0.1940
     28 O          -9.5284   -4.5246   19.3029 O.2     1  UNL1       -0.2868
@<TRIPOS>BOND
     1    17    18    1
     2    18    19    2
     3    19    16    1
     4    16     1    1
     5     1     2    1
     6     2     3   ar
     7     3     4   ar
     8     4     8    1
     9     8     9    1
    10     9    10    1
    11    10    11    1
    12    11    12    1
    13    12    13    1
    14    13    14    1
    15    14    15    1
    16     4     5   ar
    17     5     6   ar
    18     6     7   ar
    19    19    20    1
    20    20    21    2
    21    21    22    1
    22    22    23    1
    23    23    24    2
    24    24    25    1
    25    25    26    2
    26    26    27    1
    27    27    28    2
    28    27    18    1
    29     7     2   ar
    30    26    21    1
    31    15    10    1
@<TRIPOS>MOLECULE
*****
 28 31 0 0 0
SMALL
GASTEIGER

@<TRIPOS>ATOM
      1 O          -9.1998  -16.8545   26.0569 O.3     1  UNL1       -0.4535
      2 C          -7.8479  -16.2096   25.9776 C.ar    1  UNL1        0.2283
      3 C          -6.9716  -16.4490   24.7840 C.ar    1  UNL1        0.0945
      4 C          -5.6196  -15.8041   24.7047 C.ar    1  UNL1        0.1448
      5 C          -5.1439  -14.9198   25.8191 C.ar    1  UNL1        0.0578
      6 C          -6.0203  -14.6804   27.0127 C.ar    1  UNL1        0.1052
      7 N          -7.3722  -15.3253   27.0920 N.ar    1  UNL1       -0.2099
      8 O          -4.7433  -16.0434   23.5111 O.3     1  UNL1       -0.4753
      9 C          -3.8769  -17.2664   23.4499 C.3     1  UNL1        0.2054
     10 C          -3.0227  -17.5208   22.2434 C.3     1  UNL1        0.0487
     11 C          -3.1303  -18.8246   21.5097 C.3     1  UNL1        0.0359
     12 C          -2.2760  -19.0790   20.3032 C.3     1  UNL1        0.1423
     13 O          -1.3142  -18.0295   19.8304 O.3     1  UNL1       -0.3538
     14 C          -1.2067  -16.7256   20.5642 C.3     1  UNL1        0.1423
     15 C          -2.0609  -16.4712   21.7706 C.3     1  UNL1        0.0359
     16 C          -9.5849  -17.9134   25.0667 C.3     1  UNL1        0.2523
     17 C         -12.3941  -18.9012   24.7029 C.3     1  UNL1        0.0358
     18 C         -11.7611  -18.0371   23.6528 C.2     1  UNL1        0.0342
     19 C         -10.3564  -17.5432   23.8347 C.2     1  UNL1        0.1014
     20 N          -9.7233  -16.6792   22.7847 N.2     1  UNL1       -0.2501
     21 C         -10.4949  -16.3090   21.5527 C.2     1  UNL1        0.0661
     22 C          -9.8618  -15.4449   20.5027 C.3     1  UNL1        0.0718
     23 C         -10.6334  -15.0748   19.2708 C.2     1  UNL1       -0.0198
     24 C         -12.0380  -15.5686   19.0889 C.2     1  UNL1       -0.0040
     25 C         -12.6711  -16.4327   20.1389 C.2     1  UNL1        0.0040
     26 C         -11.8995  -16.8028   21.3708 C.2     1  UNL1        0.0525
     27 C         -12.5326  -17.6669   22.4209 C.2     1  UNL1        0.1940
     28 O         -13.9372  -18.1608   22.2390 O.2     1  UNL1       -0.2868
@<TRIPOS>BOND
     1    17    18    1
     2    18    19    2
     3    19    16    1
     4    16     1    1
     5     1     2    1
     6     2     3   ar
     7     3     4   ar
     8     4     8    1
     9     8     9    1
    10     9    10    1
    11    10    11    1
    12    11    12    1
    13    12    13    1
    14    13    14    1
    15    14    15    1
    16     4     5   ar
    17     5     6   ar
    18     6     7   ar
    19    19    20    1
    20    20    21    2
    21    21    22    1
    22    22    23    1
    23    23    24    2
    24    24    25    1
    25    25    26    2
    26    26    27    1
    27    27    28    2
    28    27    18    1
    29     7     2   ar
    30    26    21    1
    31    15    10    1
@<TRIPOS>MOLECULE
*****
 28 31 0 0 0
SMALL
GASTEIGER

@<TRIPOS>ATOM
      1 O         -15.2241   -6.6255   18.9257 O.3     1  UNL1       -0.4535
      2 C         -13.9349   -6.9243   18.2196 C.ar    1  UNL1        0.2283
      3 C         -12.6334   -6.8178   18.9577 C.ar    1  UNL1        0.0945
      4 C         -11.3441   -7.1167   18.2516 C.ar    1  UNL1        0.1448
      5 C         -11.3564   -7.5221   16.8075 C.ar    1  UNL1        0.0578
      6 C         -12.6580   -7.6286   16.0694 C.ar    1  UNL1        0.1052
      7 N         -13.9472   -7.3297   16.7755 N.ar    1  UNL1       -0.2099
      8 O         -10.0427   -7.0102   18.9897 O.3     1  UNL1       -0.4753
      9 C          -9.4055   -5.6681   19.1967 C.3     1  UNL1        0.2054
     10 C          -9.7112   -4.5397   18.2569 C.3     1  UNL1        0.0487
     11 C          -9.0285   -4.4685   16.9232 C.3     1  UNL1        0.0359
     12 C          -9.3343   -3.3401   15.9834 C.3     1  UNL1        0.1423
     13 O         -10.3228   -2.2829   16.3773 O.3     1  UNL1       -0.3538
     14 C         -11.0055   -2.3541   17.7110 C.3     1  UNL1        0.1423
     15 C         -10.6998   -3.4825   18.6508 C.3     1  UNL1        0.0359
     16 C         -16.2538   -5.7538   18.2700 C.3     1  UNL1        0.2523
     17 C         -18.6496   -4.9064   19.8643 C.3     1  UNL1        0.0358
     18 C         -17.6027   -3.8991   19.4909 C.2     1  UNL1        0.0342
     19 C         -16.4048   -4.3228   18.6937 C.2     1  UNL1        0.1014
     20 N         -15.3580   -3.3155   18.3202 N.2     1  UNL1       -0.2501
     21 C         -15.5090   -1.8845   18.7440 C.2     1  UNL1        0.0661
     22 C         -14.4621   -0.8773   18.3705 C.3     1  UNL1        0.0718
     23 C         -14.6132    0.5536   18.7942 C.2     1  UNL1       -0.0198
     24 C         -15.8111    0.9773   19.5914 C.2     1  UNL1       -0.0040
     25 C         -16.8579   -0.0299   19.9649 C.2     1  UNL1        0.0040
     26 C         -16.7069   -1.4608   19.5412 C.2     1  UNL1        0.0525
     27 C         -17.7538   -2.4682   19.9146 C.2     1  UNL1        0.1940
     28 O         -18.9517   -2.0445   20.7118 O.2     1  UNL1       -0.2868
@<TRIPOS>BOND
     1    17    18    1
     2    18    19    2
     3    19    16    1
     4    16     1    1
     5     1     2    1
     6     2     3   ar
     7     3     4   ar
     8     4     8    1
     9     8     9    1
    10     9    10    1
    11    10    11    1
    12    11    12    1
    13    12    13    1
    14    13    14    1
    15    14    15    1
    16     4     5   ar
    17     5     6   ar
    18     6     7   ar
    19    19    20    1
    20    20    21    2
    21    21    22    1
    22    22    23    1
    23    23    24    2
    24    24    25    1
    25    25    26    2
    26    26    27    1
    27    27    28    2
    28    27    18    1
    29     7     2   ar
    30    26    21    1
    31    15    10    1
