@<TRIPOS>MOLECULE
*****
 35 38 0 0 0
SMALL
GASTEIGER

@<TRIPOS>ATOM
      1 C          -9.1793  -19.4522   23.0562 C.2     1  UNL1        0.2661
      2 O          -9.9686  -20.7256   23.1287 O.2     1  UNL1       -0.2710
      3 N          -9.7323  -18.1920   23.6532 N.am    1  UNL1       -0.2714
      4 C         -11.0745  -18.2054   24.3227 C.3     1  UNL1        0.1153
      5 C          -2.6223  -18.8243   21.0912 C.ar    1  UNL1        0.0531
      6 C          -2.7764  -18.2635   22.4739 C.ar    1  UNL1        0.0179
      7 C          -4.1186  -18.2769   23.1434 C.ar    1  UNL1        0.0379
      8 C          -5.3068  -18.8511   22.4303 C.ar    1  UNL1        0.1351
      9 C          -5.1527  -19.4119   21.0477 C.ar    1  UNL1        0.0132
     10 C          -3.8104  -19.3985   20.3781 C.ar    1  UNL1        0.0135
     11 C          -6.3408  -19.9862   20.3345 C.3     1  UNL1        0.0337
     12 C          -7.6830  -19.9996   21.0040 C.3     1  UNL1        0.0579
     13 C          -7.8371  -19.4388   22.3867 C.3     1  UNL1        0.2415
     14 O          -6.6490  -18.8645   23.0998 O.3     1  UNL1       -0.4703
     15 C          -0.4926  -17.5365   20.3456 C.2     1  UNL1        0.4055
     16 O          -1.0474  -16.2755   20.9390 O.2     1  UNL1       -0.2261
     17 N          -1.2801  -18.8109   20.4217 N.am    1  UNL1       -0.2499
     18 H          -0.9160  -19.6385   20.0323 H       1  UNL1        0.1582
     19 C           2.0995  -17.4567   20.5028 C.3     1  UNL1        0.2574
     20 O           0.8496  -17.5231   19.6761 O.3     1  UNL1       -0.4304
     21 C          -8.9430  -16.9186   23.5807 C.3     1  UNL1        0.1139
     22 C          -8.2065  -16.4228   24.7897 C.ar    1  UNL1       -0.0029
     23 C          -6.8869  -15.7274   24.6312 C.ar    1  UNL1       -0.0026
     24 C          -6.1504  -15.2317   25.8402 C.ar    1  UNL1       -0.0003
     25 C          -6.7335  -15.4312   27.2077 C.ar    1  UNL1       -0.0000
     26 C          -8.0530  -16.1266   27.3663 C.ar    1  UNL1       -0.0003
     27 C          -8.7895  -16.6223   26.1573 C.ar    1  UNL1       -0.0026
     28 C          -8.8903  -16.1408   22.2991 C.3     1  UNL1        0.0968
     29 N          -9.9402  -16.3534   21.2491 N.3     1  UNL1       -0.2689
     30 C         -10.3550  -17.6742   20.6717 C.3     1  UNL1        0.0748
     31 C         -11.4308  -17.4196   19.6578 C.3     1  UNL1        0.0480
     32 C         -11.6809  -15.9413   19.6087 C.3     1  UNL1        0.1278
     33 O         -12.6772  -15.2444   18.7303 O.3     1  UNL1       -0.3830
     34 C         -10.7596  -15.2824   20.5922 C.3     1  UNL1        0.1017
     35 H         -12.6391  -14.2889   18.8930 H       1  UNL1        0.2104
@<TRIPOS>BOND
     1    19    20    1
     2    20    15    1
     3    15    16    2
     4    15    17   am
     5    17     5    1
     6     5     6   ar
     7     6     7   ar
     8     7     8   ar
     9     8     9   ar
    10     9    10   ar
    11     9    11    1
    12    11    12    1
    13    12    13    1
    14    13     1    1
    15     1     2    2
    16     1     3   am
    17     3     4    1
    18     3    21    1
    19    21    28    1
    20    28    29    1
    21    29    30    1
    22    30    31    1
    23    31    32    1
    24    32    33    1
    25    32    34    1
    26    21    22    1
    27    22    23   ar
    28    23    24   ar
    29    24    25   ar
    30    25    26   ar
    31    26    27   ar
    32    13    14    1
    33    10     5   ar
    34    34    29    1
    35    27    22   ar
    36    14     8    1
    37    17    18    1
    38    33    35    1
@<TRIPOS>MOLECULE
*****
 35 38 0 0 0
SMALL
GASTEIGER

@<TRIPOS>ATOM
      1 C         -10.6338  -19.6011   22.7985 C.2     1  UNL1        0.2661
      2 O         -11.2339  -20.9534   23.0456 O.2     1  UNL1       -0.2710
      3 N         -11.3106  -18.3719   23.3289 N.am    1  UNL1       -0.2714
      4 C         -12.5874  -18.4952   24.1065 C.3     1  UNL1        0.1153
      5 C          -4.2072  -19.2754   20.3815 C.ar    1  UNL1        0.0531
      6 C          -4.1644  -19.5660   21.8525 C.ar    1  UNL1        0.0179
      7 C          -5.4412  -19.6893   22.6300 C.ar    1  UNL1        0.0379
      8 C          -6.7607  -19.5219   21.9367 C.ar    1  UNL1        0.1351
      9 C          -6.8035  -19.2314   20.4657 C.ar    1  UNL1        0.0132
     10 C          -5.5267  -19.1081   19.6882 C.ar    1  UNL1        0.0135
     11 C          -8.1231  -19.0640   19.7723 C.3     1  UNL1        0.0337
     12 C          -9.3998  -19.1873   20.5499 C.3     1  UNL1        0.0579
     13 C          -9.3571  -19.4778   22.0209 C.3     1  UNL1        0.2415
     14 O          -8.0375  -19.6452   22.7143 O.3     1  UNL1       -0.4703
     15 C          -2.0968  -17.9109   19.7227 C.2     1  UNL1        0.4055
     16 O          -2.5399  -16.7927   20.6190 O.2     1  UNL1       -0.2261
     17 N          -2.9304  -19.1522   19.6040 N.am    1  UNL1       -0.2499
     18 H          -2.6395  -19.8861   19.0157 H       1  UNL1        0.1582
     19 C           0.4979  -17.7930   19.6615 C.3     1  UNL1        0.2574
     20 O          -0.8200  -17.7876   18.9451 O.3     1  UNL1       -0.4304
     21 C         -10.7105  -17.0196   23.0817 C.3     1  UNL1        0.1139
     22 C         -10.8087  -16.3925   21.7226 C.ar    1  UNL1       -0.0029
     23 C         -11.9378  -16.7609   20.8065 C.ar    1  UNL1       -0.0026
     24 C         -12.0359  -16.1338   19.4474 C.ar    1  UNL1       -0.0003
     25 C         -11.0049  -15.1383   19.0045 C.ar    1  UNL1       -0.0000
     26 C          -9.8758  -14.7700   19.9206 C.ar    1  UNL1       -0.0003
     27 C          -9.7777  -15.3971   21.2797 C.ar    1  UNL1       -0.0026
     28 C         -10.0122  -16.2943   24.1937 C.3     1  UNL1        0.0968
     29 N          -8.5285  -16.0817   24.1350 N.3     1  UNL1       -0.2689
     30 C          -7.6044  -16.6029   23.0746 C.3     1  UNL1        0.0748
     31 C          -6.2132  -16.1538   23.4106 C.3     1  UNL1        0.0480
     32 C          -6.2775  -15.3550   24.6787 C.3     1  UNL1        0.1278
     33 O          -5.1150  -14.7134   25.3765 O.3     1  UNL1       -0.3830
     34 C          -7.7085  -15.3104   25.1264 C.3     1  UNL1        0.1017
     35 H          -5.4278  -14.2574   26.1734 H       1  UNL1        0.2104
@<TRIPOS>BOND
     1    19    20    1
     2    20    15    1
     3    15    16    2
     4    15    17   am
     5    17     5    1
     6     5     6   ar
     7     6     7   ar
     8     7     8   ar
     9     8     9   ar
    10     9    10   ar
    11     9    11    1
    12    11    12    1
    13    12    13    1
    14    13     1    1
    15     1     2    2
    16     1     3   am
    17     3     4    1
    18     3    21    1
    19    21    28    1
    20    28    29    1
    21    29    30    1
    22    30    31    1
    23    31    32    1
    24    32    33    1
    25    32    34    1
    26    21    22    1
    27    22    23   ar
    28    23    24   ar
    29    24    25   ar
    30    25    26   ar
    31    26    27   ar
    32    13    14    1
    33    10     5   ar
    34    34    29    1
    35    27    22   ar
    36    14     8    1
    37    17    18    1
    38    33    35    1
@<TRIPOS>MOLECULE
*****
 35 38 0 0 0
SMALL
GASTEIGER

@<TRIPOS>ATOM
      1 C         -11.7686   -0.7357   17.5129 C.2     1  UNL1        0.2661
      2 O         -10.3160   -0.3616   17.5018 O.2     1  UNL1       -0.2710
      3 N         -12.8053    0.2702   17.1085 N.am    1  UNL1       -0.2714
      4 C         -12.3894    1.6502   16.6930 C.3     1  UNL1        0.1153
      5 C         -13.4682   -7.3642   18.1647 C.ar    1  UNL1        0.0531
      6 C         -13.0884   -7.0925   16.7393 C.ar    1  UNL1        0.0179
      7 C         -12.6725   -5.7125   16.3238 C.ar    1  UNL1        0.0379
      8 C         -12.6364   -4.6041   17.3338 C.ar    1  UNL1        0.1351
      9 C         -13.0163   -4.8757   18.7592 C.ar    1  UNL1        0.0132
     10 C         -13.4321   -6.2558   19.1747 C.ar    1  UNL1        0.0135
     11 C         -12.9802   -3.7673   19.7693 C.3     1  UNL1        0.0337
     12 C         -12.5643   -2.3873   19.3539 C.3     1  UNL1        0.0579
     13 C         -12.1845   -2.1157   17.9283 C.3     1  UNL1        0.2415
     14 O         -12.2206   -3.2241   16.9183 O.3     1  UNL1       -0.4703
     15 C         -15.2343   -9.2695   18.1915 C.2     1  UNL1        0.4055
     16 O         -16.1686   -8.4148   17.3873 O.2     1  UNL1       -0.2261
     17 N         -13.8841   -8.7442   18.5802 N.am    1  UNL1       -0.2499
     18 H         -13.2710   -9.3051   19.1080 H       1  UNL1        0.1582
     19 C         -17.1030  -11.0225   18.6215 C.3     1  UNL1        0.2574
     20 O         -15.6502  -10.6495   18.6070 O.3     1  UNL1       -0.4304
     21 C         -14.2578   -0.1040   17.1195 C.3     1  UNL1        0.1139
     22 C         -15.1308    0.3122   18.2662 C.ar    1  UNL1       -0.0029
     23 C         -15.5201   -0.6881   19.3140 C.ar    1  UNL1       -0.0026
     24 C         -16.3930   -0.2719   20.4605 C.ar    1  UNL1       -0.0003
     25 C         -16.8767    1.1446   20.5594 C.ar    1  UNL1       -0.0000
     26 C         -16.4873    2.1448   19.5116 C.ar    1  UNL1       -0.0003
     27 C         -15.6144    1.7287   18.3650 C.ar    1  UNL1       -0.0026
     28 C         -14.8374   -0.8942   15.9840 C.3     1  UNL1        0.0968
     29 N         -15.9917   -1.8208   16.2273 N.3     1  UNL1       -0.2689
     30 C         -17.4446   -1.4741   16.0908 C.3     1  UNL1        0.0748
     31 C         -18.2465   -2.6958   16.4290 C.3     1  UNL1        0.0480
     32 C         -17.2891   -3.7977   16.7746 C.3     1  UNL1        0.1278
     33 O         -17.6602   -5.1949   17.1745 O.3     1  UNL1       -0.3830
     34 C         -15.8955   -3.2569   16.6499 C.3     1  UNL1        0.1017
     35 H         -16.8543   -5.7075   17.3440 H       1  UNL1        0.2104
@<TRIPOS>BOND
     1    19    20    1
     2    20    15    1
     3    15    16    2
     4    15    17   am
     5    17     5    1
     6     5     6   ar
     7     6     7   ar
     8     7     8   ar
     9     8     9   ar
    10     9    10   ar
    11     9    11    1
    12    11    12    1
    13    12    13    1
    14    13     1    1
    15     1     2    2
    16     1     3   am
    17     3     4    1
    18     3    21    1
    19    21    28    1
    20    28    29    1
    21    29    30    1
    22    30    31    1
    23    31    32    1
    24    32    33    1
    25    32    34    1
    26    21    22    1
    27    22    23   ar
    28    23    24   ar
    29    24    25   ar
    30    25    26   ar
    31    26    27   ar
    32    13    14    1
    33    10     5   ar
    34    34    29    1
    35    27    22   ar
    36    14     8    1
    37    17    18    1
    38    33    35    1
@<TRIPOS>MOLECULE
*****
 35 38 0 0 0
SMALL
GASTEIGER

@<TRIPOS>ATOM
      1 C           5.3714    1.7525   19.8052 C.2     1  UNL1        0.2661
      2 O           6.3336    2.8977   19.9176 O.2     1  UNL1       -0.2710
      3 N           5.3031    0.9519   18.5385 N.am    1  UNL1       -0.2714
      4 C           6.1970    1.2965   17.3843 C.3     1  UNL1        0.1153
      5 C           0.6883    1.3052   24.8170 C.ar    1  UNL1        0.0531
      6 C           0.4747    2.5812   24.0578 C.ar    1  UNL1        0.0179
      7 C           1.3686    2.9258   22.9037 C.ar    1  UNL1        0.0379
      8 C           2.4761    1.9945   22.5086 C.ar    1  UNL1        0.1351
      9 C           2.6897    0.7186   23.2677 C.ar    1  UNL1        0.0132
     10 C           1.7957    0.3739   24.4219 C.ar    1  UNL1        0.0135
     11 C           3.7972   -0.2128   22.8726 C.3     1  UNL1        0.0337
     12 C           4.6911    0.1318   21.7185 C.3     1  UNL1        0.0579
     13 C           4.4775    1.4079   20.9593 C.3     1  UNL1        0.2415
     14 O           3.3700    2.3392   21.3544 O.3     1  UNL1       -0.4703
     15 C           0.1672    1.3838   27.3610 C.2     1  UNL1        0.4055
     16 O           1.4340    2.1518   27.5968 O.2     1  UNL1       -0.2261
     17 N          -0.2056    0.9606   25.9711 N.am    1  UNL1       -0.2499
     18 H          -1.0371    0.4565   25.8164 H       1  UNL1        0.1582
     19 C          -1.1745   -0.3777   28.7200 C.3     1  UNL1        0.2574
     20 O          -0.7267    1.0392   28.5152 O.3     1  UNL1       -0.4304
     21 C           4.3409   -0.1933   18.4260 C.3     1  UNL1        0.1139
     22 C           4.7470   -1.5621   18.8861 C.ar    1  UNL1       -0.0029
     23 C           6.1744   -1.8359   19.2566 C.ar    1  UNL1       -0.0026
     24 C           6.5804   -3.2047   19.7167 C.ar    1  UNL1       -0.0003
     25 C           5.5590   -4.2995   19.8061 C.ar    1  UNL1       -0.0000
     26 C           4.1316   -4.0257   19.4355 C.ar    1  UNL1       -0.0003
     27 C           3.7256   -2.6569   18.9755 C.ar    1  UNL1       -0.0026
     28 C           2.9726    0.0302   17.8535 C.3     1  UNL1        0.0968
     29 N           1.8387    0.4251   18.7526 N.3     1  UNL1       -0.2689
     30 C           1.2564   -0.4085   19.8553 C.3     1  UNL1        0.0748
     31 C           0.1459    0.3741   20.4911 C.3     1  UNL1        0.0480
     32 C           0.0418    1.6915   19.7814 C.3     1  UNL1        0.1278
     33 O          -0.9367    2.7852   20.0916 O.3     1  UNL1       -0.3830
     34 C           1.0881    1.7230   18.7069 C.3     1  UNL1        0.1017
     35 H          -0.7926    3.5293   19.4861 H       1  UNL1        0.2104
@<TRIPOS>BOND
     1    19    20    1
     2    20    15    1
     3    15    16    2
     4    15    17   am
     5    17     5    1
     6     5     6   ar
     7     6     7   ar
     8     7     8   ar
     9     8     9   ar
    10     9    10   ar
    11     9    11    1
    12    11    12    1
    13    12    13    1
    14    13     1    1
    15     1     2    2
    16     1     3   am
    17     3     4    1
    18     3    21    1
    19    21    28    1
    20    28    29    1
    21    29    30    1
    22    30    31    1
    23    31    32    1
    24    32    33    1
    25    32    34    1
    26    21    22    1
    27    22    23   ar
    28    23    24   ar
    29    24    25   ar
    30    25    26   ar
    31    26    27   ar
    32    13    14    1
    33    10     5   ar
    34    34    29    1
    35    27    22   ar
    36    14     8    1
    37    17    18    1
    38    33    35    1
@<TRIPOS>MOLECULE
*****
 35 38 0 0 0
SMALL
GASTEIGER

@<TRIPOS>ATOM
      1 C           6.2244    1.1317   20.1322 C.2     1  UNL1        0.2661
      2 O           7.5746    1.6237   20.5622 O.2     1  UNL1       -0.2710
      3 N           5.9387    0.9000   18.6779 N.am    1  UNL1       -0.2714
      4 C           7.0033    1.1604   17.6537 C.3     1  UNL1        0.1153
      5 C           0.9686    1.1598   24.5622 C.ar    1  UNL1        0.0531
      6 C           1.0355    2.4895   23.8713 C.ar    1  UNL1        0.0179
      7 C           2.1001    2.7498   22.8471 C.ar    1  UNL1        0.0379
      8 C           3.0977    1.6805   22.5139 C.ar    1  UNL1        0.1351
      9 C           3.0308    0.3508   23.2048 C.ar    1  UNL1        0.0132
     10 C           1.9663    0.0904   24.2290 C.ar    1  UNL1        0.0135
     11 C           4.0285   -0.7187   22.8715 C.3     1  UNL1        0.0337
     12 C           5.0930   -0.4584   21.8473 C.3     1  UNL1        0.0579
     13 C           5.1599    0.8714   21.1564 C.3     1  UNL1        0.2415
     14 O           4.1623    1.9408   21.4897 O.3     1  UNL1       -0.4703
     15 C           0.1426    1.2567   27.0236 C.2     1  UNL1        0.4055
     16 O           1.4458    1.8742   27.4366 O.2     1  UNL1       -0.2261
     17 N          -0.0959    0.8995   25.5864 N.am    1  UNL1       -0.2499
     18 H          -0.9512    0.4942   25.3154 H       1  UNL1        0.1582
     19 C          -1.0432   -0.3607   28.6752 C.3     1  UNL1        0.2574
     20 O          -0.9219    0.9964   28.0478 O.3     1  UNL1       -0.4304
     21 C           4.5886    0.4081   18.2479 C.3     1  UNL1        0.1139
     22 C           3.3983    1.3175   18.3284 C.ar    1  UNL1       -0.0029
     23 C           2.0274    0.7427   18.5283 C.ar    1  UNL1       -0.0026
     24 C           0.8373    1.6521   18.6087 C.ar    1  UNL1       -0.0003
     25 C           1.0181    3.1364   18.4892 C.ar    1  UNL1       -0.0000
     26 C           2.3890    3.7112   18.2892 C.ar    1  UNL1       -0.0003
     27 C           3.5792    2.8018   18.2088 C.ar    1  UNL1       -0.0026
     28 C           4.4285   -0.9933   17.7375 C.3     1  UNL1        0.0968
     29 N           4.6484   -2.1567   18.6586 N.3     1  UNL1       -0.2689
     30 C           3.5772   -2.9770   19.3141 C.3     1  UNL1        0.0748
     31 C           4.2449   -4.0312   20.1464 C.3     1  UNL1        0.0480
     32 C           5.7287   -3.8625   20.0053 C.3     1  UNL1        0.1278
     33 O           6.7787   -4.7044   20.6675 O.3     1  UNL1       -0.3830
     34 C           5.9781   -2.7039   19.0857 C.3     1  UNL1        0.1017
     35 H           7.6581   -4.3858   20.4106 H       1  UNL1        0.2104
@<TRIPOS>BOND
     1    19    20    1
     2    20    15    1
     3    15    16    2
     4    15    17   am
     5    17     5    1
     6     5     6   ar
     7     6     7   ar
     8     7     8   ar
     9     8     9   ar
    10     9    10   ar
    11     9    11    1
    12    11    12    1
    13    12    13    1
    14    13     1    1
    15     1     2    2
    16     1     3   am
    17     3     4    1
    18     3    21    1
    19    21    28    1
    20    28    29    1
    21    29    30    1
    22    30    31    1
    23    31    32    1
    24    32    33    1
    25    32    34    1
    26    21    22    1
    27    22    23   ar
    28    23    24   ar
    29    24    25   ar
    30    25    26   ar
    31    26    27   ar
    32    13    14    1
    33    10     5   ar
    34    34    29    1
    35    27    22   ar
    36    14     8    1
    37    17    18    1
    38    33    35    1
@<TRIPOS>MOLECULE
*****
 35 38 0 0 0
SMALL
GASTEIGER

@<TRIPOS>ATOM
      1 C           6.1890    0.7196   19.9946 C.2     1  UNL1        0.2661
      2 O           6.9271    1.9219   19.4851 O.2     1  UNL1       -0.2710
      3 N           5.9580   -0.4565   19.0927 N.am    1  UNL1       -0.2714
      4 C           6.4652   -0.4303   17.6813 C.3     1  UNL1        0.1153
      5 C           2.6892    0.7293   25.9108 C.ar    1  UNL1        0.0531
      6 C           1.7256    0.8701   24.7700 C.ar    1  UNL1        0.0179
      7 C           2.2328    0.8963   23.3586 C.ar    1  UNL1        0.0379
      8 C           3.7037    0.7817   23.0880 C.ar    1  UNL1        0.1351
      9 C           4.6673    0.6409   24.2288 C.ar    1  UNL1        0.0132
     10 C           4.1601    0.6147   25.6402 C.ar    1  UNL1        0.0135
     11 C           6.1383    0.5263   23.9582 C.3     1  UNL1        0.0337
     12 C           6.6455    0.5526   22.5468 C.3     1  UNL1        0.0579
     13 C           5.6818    0.6934   21.4060 C.3     1  UNL1        0.2415
     14 O           4.2109    0.8080   21.6766 O.3     1  UNL1       -0.4703
     15 C           2.4305   -0.4976   28.1863 C.2     1  UNL1        0.4055
     16 O           3.1861   -1.6722   27.6389 O.2     1  UNL1       -0.2261
     17 N           2.1820    0.7031   27.3222 N.am    1  UNL1       -0.2499
     18 H           1.6861    1.4739   27.6815 H       1  UNL1        0.1582
     19 C           2.8853   -0.6830   30.7375 C.3     1  UNL1        0.2574
     20 O           1.9233   -0.5238   29.5977 O.3     1  UNL1       -0.4304
     21 C           5.2199   -1.6588   19.6021 C.3     1  UNL1        0.1139
     22 C           5.8441   -2.5347   20.6478 C.ar    1  UNL1       -0.0029
     23 C           7.2487   -3.0301   20.4703 C.ar    1  UNL1       -0.0026
     24 C           7.8728   -3.9059   21.5160 C.ar    1  UNL1       -0.0003
     25 C           7.0923   -4.2862   22.7391 C.ar    1  UNL1       -0.0000
     26 C           5.6877   -3.7908   22.9167 C.ar    1  UNL1       -0.0003
     27 C           5.0636   -2.9150   21.8710 C.ar    1  UNL1       -0.0026
     28 C           3.8576   -1.9854   19.0660 C.3     1  UNL1        0.0968
     29 N           2.7568   -0.9694   19.1458 N.3     1  UNL1       -0.2689
     30 C           2.5681    0.2002   18.2259 C.3     1  UNL1        0.0748
     31 C           1.3462    0.9477   18.6711 C.3     1  UNL1        0.0480
     32 C           0.7798    0.2401   19.8663 C.3     1  UNL1        0.1278
     33 O          -0.4436    0.6460   20.6334 O.3     1  UNL1       -0.3830
     34 C           1.6516   -0.9448   20.1597 C.3     1  UNL1        0.1017
     35 H          -0.5923    0.0204   21.3597 H       1  UNL1        0.2104
@<TRIPOS>BOND
     1    19    20    1
     2    20    15    1
     3    15    16    2
     4    15    17   am
     5    17     5    1
     6     5     6   ar
     7     6     7   ar
     8     7     8   ar
     9     8     9   ar
    10     9    10   ar
    11     9    11    1
    12    11    12    1
    13    12    13    1
    14    13     1    1
    15     1     2    2
    16     1     3   am
    17     3     4    1
    18     3    21    1
    19    21    28    1
    20    28    29    1
    21    29    30    1
    22    30    31    1
    23    31    32    1
    24    32    33    1
    25    32    34    1
    26    21    22    1
    27    22    23   ar
    28    23    24   ar
    29    24    25   ar
    30    25    26   ar
    31    26    27   ar
    32    13    14    1
    33    10     5   ar
    34    34    29    1
    35    27    22   ar
    36    14     8    1
    37    17    18    1
    38    33    35    1
@<TRIPOS>MOLECULE
*****
 35 38 0 0 0
SMALL
GASTEIGER

@<TRIPOS>ATOM
      1 C           4.2519   -3.0714   19.5144 C.2     1  UNL1        0.2661
      2 O           3.4569   -4.1748   18.8817 O.2     1  UNL1       -0.2710
      3 N           4.5096   -1.8028   18.7564 N.am    1  UNL1       -0.2714
      4 C           3.9721   -1.6378   17.3657 C.3     1  UNL1        0.1153
      5 C           7.6884   -4.4694   25.3011 C.ar    1  UNL1        0.0531
      6 C           8.4376   -5.0421   24.1346 C.ar    1  UNL1        0.0179
      7 C           7.9001   -4.8770   22.7439 C.ar    1  UNL1        0.0379
      8 C           6.6135   -4.1393   22.5198 C.ar    1  UNL1        0.1351
      9 C           5.8643   -3.5666   23.6863 C.ar    1  UNL1        0.0132
     10 C           6.4018   -3.7316   25.0769 C.ar    1  UNL1        0.0135
     11 C           4.5777   -2.8287   23.4622 C.3     1  UNL1        0.0337
     12 C           4.0402   -2.6637   22.0715 C.3     1  UNL1        0.0579
     13 C           4.7894   -3.2364   20.9050 C.3     1  UNL1        0.2415
     14 O           6.0760   -3.9742   21.1291 O.3     1  UNL1       -0.4703
     15 C           7.9383   -5.8884   27.4630 C.2     1  UNL1        0.4055
     16 O           7.1132   -6.9773   26.8437 O.2     1  UNL1       -0.2261
     17 N           8.2259   -4.6344   26.6917 N.am    1  UNL1       -0.2499
     18 H           8.7674   -3.9198   27.0982 H       1  UNL1        0.1582
     19 C           7.5643   -5.8924   30.0340 C.3     1  UNL1        0.2574
     20 O           8.4758   -6.0534   28.8536 O.3     1  UNL1       -0.4304
     21 C           5.3047   -0.6994   19.3890 C.3     1  UNL1        0.1139
     22 C           6.7144   -0.9516   19.8354 C.ar    1  UNL1       -0.0029
     23 C           7.6837   -1.6283   18.9121 C.ar    1  UNL1       -0.0026
     24 C           9.0934   -1.8804   19.3585 C.ar    1  UNL1       -0.0003
     25 C           9.5337   -1.4558   20.7281 C.ar    1  UNL1       -0.0000
     26 C           8.5643   -0.7791   21.6514 C.ar    1  UNL1       -0.0003
     27 C           7.1547   -0.5270   21.2050 C.ar    1  UNL1       -0.0026
     28 C           4.6901    0.6562   19.5754 C.3     1  UNL1        0.0968
     29 N           3.2023    0.8243   19.4830 N.3     1  UNL1       -0.2689
     30 C           2.4710    1.6701   18.4832 C.3     1  UNL1        0.0748
     31 C           1.0015    1.5447   18.7565 C.3     1  UNL1        0.0480
     32 C           0.8246    0.6212   19.9252 C.3     1  UNL1        0.1278
     33 O          -0.4830    0.2144   20.5375 O.3     1  UNL1       -0.3830
     34 C           2.1848    0.1759   20.3743 C.3     1  UNL1        0.1017
     35 H          -0.3189   -0.3890   21.2790 H       1  UNL1        0.2104
@<TRIPOS>BOND
     1    19    20    1
     2    20    15    1
     3    15    16    2
     4    15    17   am
     5    17     5    1
     6     5     6   ar
     7     6     7   ar
     8     7     8   ar
     9     8     9   ar
    10     9    10   ar
    11     9    11    1
    12    11    12    1
    13    12    13    1
    14    13     1    1
    15     1     2    2
    16     1     3   am
    17     3     4    1
    18     3    21    1
    19    21    28    1
    20    28    29    1
    21    29    30    1
    22    30    31    1
    23    31    32    1
    24    32    33    1
    25    32    34    1
    26    21    22    1
    27    22    23   ar
    28    23    24   ar
    29    24    25   ar
    30    25    26   ar
    31    26    27   ar
    32    13    14    1
    33    10     5   ar
    34    34    29    1
    35    27    22   ar
    36    14     8    1
    37    17    18    1
    38    33    35    1
@<TRIPOS>MOLECULE
*****
 35 38 0 0 0
SMALL
GASTEIGER

@<TRIPOS>ATOM
      1 C           6.1778    1.3494   19.7262 C.2     1  UNL1        0.2661
      2 O           7.1808    2.4614   19.6406 O.2     1  UNL1       -0.2710
      3 N           5.8720    0.5202   18.5142 N.am    1  UNL1       -0.2714
      4 C           6.5692    0.8031   17.2165 C.3     1  UNL1        0.1153
      5 C           3.8072   -0.9552   25.7527 C.ar    1  UNL1        0.0531
      6 C           4.9227   -1.8453   25.2911 C.ar    1  UNL1        0.0179
      7 C           5.6199   -1.5625   23.9935 C.ar    1  UNL1        0.0379
      8 C           5.2017   -0.3894   23.1575 C.ar    1  UNL1        0.1351
      9 C           4.0862    0.5008   23.6191 C.ar    1  UNL1        0.0132
     10 C           3.3889    0.2179   24.9168 C.ar    1  UNL1        0.0135
     11 C           3.6678    1.6739   22.7831 C.3     1  UNL1        0.0337
     12 C           4.3650    1.9568   21.4855 C.3     1  UNL1        0.0579
     13 C           5.4806    1.0665   21.0239 C.3     1  UNL1        0.2415
     14 O           5.8989   -0.1065   21.8598 O.3     1  UNL1       -0.4703
     15 C           3.5387   -0.5310   28.3018 C.2     1  UNL1        0.4055
     16 O           4.6648    0.4590   28.2557 O.2     1  UNL1       -0.2261
     17 N           3.1100   -1.2380   27.0504 N.am    1  UNL1       -0.2499
     18 H           2.3710   -1.8878   27.0807 H       1  UNL1        0.1582
     19 C           2.8400    0.2160   30.6901 C.3     1  UNL1        0.2574
     20 O           2.8415   -0.8139   29.5995 O.3     1  UNL1       -0.4304
     21 C           4.8690   -0.5918   18.5998 C.3     1  UNL1        0.1139
     22 C           3.4386   -0.2876   18.9338 C.ar    1  UNL1       -0.0029
     23 C           2.7405   -1.0585   20.0147 C.ar    1  UNL1       -0.0026
     24 C           1.3102   -0.7543   20.3486 C.ar    1  UNL1       -0.0003
     25 C           0.5779    0.3208   19.6016 C.ar    1  UNL1       -0.0000
     26 C           1.2760    1.0916   18.5207 C.ar    1  UNL1       -0.0003
     27 C           2.7064    0.7874   18.1868 C.ar    1  UNL1       -0.0026
     28 C           5.2964   -2.0081   18.3515 C.3     1  UNL1        0.0968
     29 N           6.2999   -2.6584   19.2572 N.3     1  UNL1       -0.2689
     30 C           7.7824   -2.4307   19.2384 C.3     1  UNL1        0.0748
     31 C           8.3957   -3.2822   20.3102 C.3     1  UNL1        0.0480
     32 C           7.2923   -4.0361   20.9914 C.3     1  UNL1        0.1278
     33 O           7.4555   -5.0054   22.1245 O.3     1  UNL1       -0.3830
     34 C           5.9969   -3.6506   20.3406 C.3     1  UNL1        0.1017
     35 H           6.5869   -5.3531   22.3802 H       1  UNL1        0.2104
@<TRIPOS>BOND
     1    19    20    1
     2    20    15    1
     3    15    16    2
     4    15    17   am
     5    17     5    1
     6     5     6   ar
     7     6     7   ar
     8     7     8   ar
     9     8     9   ar
    10     9    10   ar
    11     9    11    1
    12    11    12    1
    13    12    13    1
    14    13     1    1
    15     1     2    2
    16     1     3   am
    17     3     4    1
    18     3    21    1
    19    21    28    1
    20    28    29    1
    21    29    30    1
    22    30    31    1
    23    31    32    1
    24    32    33    1
    25    32    34    1
    26    21    22    1
    27    22    23   ar
    28    23    24   ar
    29    24    25   ar
    30    25    26   ar
    31    26    27   ar
    32    13    14    1
    33    10     5   ar
    34    34    29    1
    35    27    22   ar
    36    14     8    1
    37    17    18    1
    38    33    35    1
@<TRIPOS>MOLECULE
*****
 35 38 0 0 0
SMALL
GASTEIGER

@<TRIPOS>ATOM
      1 C           4.9829    3.3031   34.9043 C.2     1  UNL1        0.2661
      2 O           4.7593    4.4387   33.9503 O.2     1  UNL1       -0.2710
      3 N           4.6998    3.4847   36.3661 N.am    1  UNL1       -0.2714
      4 C           4.1931    4.8021   36.8739 C.3     1  UNL1        0.1153
      5 C           6.0616   -3.1136   32.6878 C.ar    1  UNL1        0.0531
      6 C           4.6065   -2.9435   33.0100 C.ar    1  UNL1        0.0179
      7 C           4.0998   -1.6261   33.5177 C.ar    1  UNL1        0.0379
      8 C           5.0481   -0.4789   33.7033 C.ar    1  UNL1        0.1351
      9 C           6.5031   -0.6490   33.3811 C.ar    1  UNL1        0.0132
     10 C           7.0099   -1.9664   32.8734 C.ar    1  UNL1        0.0135
     11 C           7.4515    0.4983   33.5666 C.3     1  UNL1        0.0337
     12 C           6.9448    1.8156   34.0744 C.3     1  UNL1        0.0579
     13 C           5.4897    1.9857   34.3966 C.3     1  UNL1        0.2415
     14 O           4.5414    0.8385   34.2110 O.3     1  UNL1       -0.4703
     15 C           6.8374   -4.6173   30.7163 C.2     1  UNL1        0.4055
     16 O           6.5998   -3.4862   29.7601 O.2     1  UNL1       -0.2261
     17 N           6.5683   -4.4310   32.1801 N.am    1  UNL1       -0.2499
     18 H           6.7243   -5.1733   32.8077 H       1  UNL1        0.1582
     19 C           7.5996   -6.1254   28.7428 C.3     1  UNL1        0.2574
     20 O           7.3441   -5.9346   30.2086 O.3     1  UNL1       -0.4304
     21 C           4.9235    2.3491   37.3202 C.3     1  UNL1        0.1139
     22 C           6.1247    2.3497   38.2186 C.ar    1  UNL1       -0.0029
     23 C           7.3817    1.6521   37.7906 C.ar    1  UNL1       -0.0026
     24 C           8.5829    1.6528   38.6890 C.ar    1  UNL1       -0.0003
     25 C           8.5270    2.3511   40.0154 C.ar    1  UNL1       -0.0000
     26 C           7.2700    3.0487   40.4434 C.ar    1  UNL1       -0.0003
     27 C           6.0688    3.0480   39.5450 C.ar    1  UNL1       -0.0026
     28 C           3.9459    1.2127   37.3758 C.3     1  UNL1        0.0968
     29 N           2.7166    1.3220   38.2286 N.3     1  UNL1       -0.2689
     30 C           2.1911    0.2676   39.1570 C.3     1  UNL1        0.0748
     31 C           0.9468    0.7988   39.8048 C.3     1  UNL1        0.0480
     32 C           0.7033    2.1816   39.2766 C.3     1  UNL1        0.1278
     33 O          -0.4342    3.0827   39.6560 O.3     1  UNL1       -0.3830
     34 C           1.7972    2.5049   38.3024 C.3     1  UNL1        0.1017
     35 H          -0.3590    3.9198   39.1717 H       1  UNL1        0.2104
@<TRIPOS>BOND
     1    19    20    1
     2    20    15    1
     3    15    16    2
     4    15    17   am
     5    17     5    1
     6     5     6   ar
     7     6     7   ar
     8     7     8   ar
     9     8     9   ar
    10     9    10   ar
    11     9    11    1
    12    11    12    1
    13    12    13    1
    14    13     1    1
    15     1     2    2
    16     1     3   am
    17     3     4    1
    18     3    21    1
    19    21    28    1
    20    28    29    1
    21    29    30    1
    22    30    31    1
    23    31    32    1
    24    32    33    1
    25    32    34    1
    26    21    22    1
    27    22    23   ar
    28    23    24   ar
    29    24    25   ar
    30    25    26   ar
    31    26    27   ar
    32    13    14    1
    33    10     5   ar
    34    34    29    1
    35    27    22   ar
    36    14     8    1
    37    17    18    1
    38    33    35    1
