@<TRIPOS>MOLECULE
*****
 22 25 0 0 0
SMALL
GASTEIGER

@<TRIPOS>ATOM
      1 C          -9.8732  -17.9691   21.3027 C.3     1  UNL1        0.1109
      2 C         -10.9257  -18.3833   20.3175 C.3     1  UNL1        0.0932
      3 N         -12.2004  -17.6004   20.2082 N.3     1  UNL1       -0.2944
      4 C         -12.4227  -16.4032   21.0842 C.3     1  UNL1        0.0903
      5 C         -11.3702  -15.9889   22.0694 C.3     1  UNL1        0.1078
      6 N         -10.0955  -16.7719   22.1786 N.pl3   1  UNL1       -0.3057
      7 H         -12.9627  -18.2506   20.3993 H       1  UNL1        0.1234
      8 C          -9.0429  -16.3577   23.1639 C.2     1  UNL1        0.0297
      9 C          -7.7750  -15.7173   22.6820 C.2     1  UNL1        0.0120
     10 C          -6.7224  -15.3031   23.6672 C.2     1  UNL1        0.0216
     11 C          -6.9379  -15.5293   25.1343 C.2     1  UNL1        0.1008
     12 N          -6.0864  -15.2282   26.3320 N.2     1  UNL1       -0.1482
     13 N          -6.8282  -15.6825   27.5540 N.2     1  UNL1       -0.1467
     14 C          -8.1380  -16.2644   27.1117 C.2     1  UNL1        0.1198
     15 C          -8.2059  -16.1697   25.6162 C.2     1  UNL1        0.0238
     16 C          -9.2584  -16.5839   24.6310 C.3     1  UNL1        0.0705
     17 C          -6.0490  -20.3182   21.6305 C.ar    1  UNL1       -0.0000
     18 C          -7.1273  -20.4934   22.6584 C.ar    1  UNL1       -0.0003
     19 C          -8.4020  -19.7103   22.5491 C.ar    1  UNL1       -0.0026
     20 C          -8.5984  -18.7521   21.4119 C.ar    1  UNL1       -0.0030
     21 C          -7.5201  -18.5769   20.3840 C.ar    1  UNL1       -0.0026
     22 C          -6.2454  -19.3600   20.4933 C.ar    1  UNL1       -0.0003
@<TRIPOS>BOND
     1    17    18   ar
     2    18    19   ar
     3    19    20   ar
     4    20     1    1
     5     1     2    1
     6     2     3    1
     7     3     4    1
     8     4     5    1
     9     5     6    1
    10     6     8    1
    11     8     9    2
    12     9    10    1
    13    10    11    2
    14    11    12    1
    15    12    13    2
    16    13    14    1
    17    14    15    2
    18    15    16    1
    19    20    21   ar
    20    21    22   ar
    21    22    17   ar
    22     6     1    1
    23    16     8    1
    24    15    11    1
    25     3     7    1
@<TRIPOS>MOLECULE
*****
 22 25 0 0 0
SMALL
GASTEIGER

@<TRIPOS>ATOM
      1 C          -8.4886  -16.4300   24.3692 C.3     1  UNL1        0.1109
      2 C          -8.3578  -15.4327   25.4820 C.3     1  UNL1        0.0932
      3 N          -7.0289  -14.7989   25.7687 N.3     1  UNL1       -0.2944
      4 C          -5.8308  -15.1622   24.9426 C.3     1  UNL1        0.0903
      5 C          -5.9617  -16.1595   23.8297 C.3     1  UNL1        0.1078
      6 N          -7.2905  -16.7933   23.5431 N.pl3   1  UNL1       -0.3057
      7 H          -6.7983  -15.0234   26.7366 H       1  UNL1        0.1234
      8 C          -7.4214  -17.7906   22.4302 C.2     1  UNL1        0.0297
      9 C          -6.2957  -18.7369   22.1348 C.2     1  UNL1        0.0120
     10 C          -6.4266  -19.7342   21.0220 C.2     1  UNL1        0.0216
     11 C          -7.6833  -19.7851   20.2046 C.2     1  UNL1        0.1008
     12 N          -8.0973  -20.6531   19.0534 N.2     1  UNL1       -0.1482
     13 N          -9.4789  -20.2433   18.6374 N.2     1  UNL1       -0.1467
     14 C          -9.9188  -19.1220   19.5314 C.2     1  UNL1        0.1198
     15 C          -8.8090  -18.8388   20.5000 C.2     1  UNL1        0.0238
     16 C          -8.6781  -17.8416   21.6128 C.3     1  UNL1        0.0705
     17 C         -12.4755  -18.3316   23.5094 C.ar    1  UNL1       -0.0000
     18 C         -11.4991  -19.0155   24.4198 C.ar    1  UNL1       -0.0003
     19 C         -10.1701  -18.3816   24.7064 C.ar    1  UNL1       -0.0026
     20 C          -9.8176  -17.0638   24.0825 C.ar    1  UNL1       -0.0030
     21 C         -10.7940  -16.3800   23.1721 C.ar    1  UNL1       -0.0026
     22 C         -12.1230  -17.0139   22.8855 C.ar    1  UNL1       -0.0003
@<TRIPOS>BOND
     1    17    18   ar
     2    18    19   ar
     3    19    20   ar
     4    20     1    1
     5     1     2    1
     6     2     3    1
     7     3     4    1
     8     4     5    1
     9     5     6    1
    10     6     8    1
    11     8     9    2
    12     9    10    1
    13    10    11    2
    14    11    12    1
    15    12    13    2
    16    13    14    1
    17    14    15    2
    18    15    16    1
    19    20    21   ar
    20    21    22   ar
    21    22    17   ar
    22     6     1    1
    23    16     8    1
    24    15    11    1
    25     3     7    1
@<TRIPOS>MOLECULE
*****
 22 25 0 0 0
SMALL
GASTEIGER

@<TRIPOS>ATOM
      1 C          -8.5101  -16.9271   23.7744 C.3     1  UNL1        0.1109
      2 C          -9.1486  -15.9762   24.7431 C.3     1  UNL1        0.0932
      3 N          -8.3139  -14.9435   25.4408 N.3     1  UNL1       -0.2944
      4 C          -6.8409  -14.8616   25.1699 C.3     1  UNL1        0.0903
      5 C          -6.2025  -15.8125   24.2012 C.3     1  UNL1        0.1078
      6 N          -7.0371  -16.8452   23.5035 N.pl3   1  UNL1       -0.3057
      7 H          -8.4206  -15.1061   26.4421 H       1  UNL1        0.1234
      8 C          -6.3987  -17.7961   22.5348 C.2     1  UNL1        0.0297
      9 C          -7.1833  -18.3165   21.3672 C.2     1  UNL1        0.0120
     10 C          -6.5449  -19.2674   20.3985 C.2     1  UNL1        0.0216
     11 C          -5.1219  -19.6979   20.5976 C.2     1  UNL1        0.1008
     12 N          -4.2324  -20.6172   19.8142 N.2     1  UNL1       -0.1482
     13 N          -2.8981  -20.6649   20.4977 N.2     1  UNL1       -0.1467
     14 C          -2.9628  -19.7751   21.7036 C.2     1  UNL1        0.1198
     15 C          -4.3372  -19.1774   21.7653 C.2     1  UNL1        0.0238
     16 C          -4.9757  -18.2266   22.7339 C.3     1  UNL1        0.0705
     17 C         -11.0142  -20.0254   21.6814 C.ar    1  UNL1       -0.0000
     18 C         -10.2883  -20.3770   22.9460 C.ar    1  UNL1       -0.0003
     19 C          -9.4536  -19.3443   23.6437 C.ar    1  UNL1       -0.0026
     20 C          -9.3449  -17.9598   23.0767 C.ar    1  UNL1       -0.0030
     21 C         -10.0708  -17.6081   21.8121 C.ar    1  UNL1       -0.0026
     22 C         -10.9055  -18.6409   21.1144 C.ar    1  UNL1       -0.0003
@<TRIPOS>BOND
     1    17    18   ar
     2    18    19   ar
     3    19    20   ar
     4    20     1    1
     5     1     2    1
     6     2     3    1
     7     3     4    1
     8     4     5    1
     9     5     6    1
    10     6     8    1
    11     8     9    2
    12     9    10    1
    13    10    11    2
    14    11    12    1
    15    12    13    2
    16    13    14    1
    17    14    15    2
    18    15    16    1
    19    20    21   ar
    20    21    22   ar
    21    22    17   ar
    22     6     1    1
    23    16     8    1
    24    15    11    1
    25     3     7    1
@<TRIPOS>MOLECULE
*****
 22 25 0 0 0
SMALL
GASTEIGER

@<TRIPOS>ATOM
      1 C         -15.0407   -6.4533   19.0820 C.3     1  UNL1        0.1109
      2 C         -16.3506   -7.1294   19.3595 C.3     1  UNL1        0.0932
      3 N         -16.5359   -8.5768   19.0121 N.3     1  UNL1       -0.2944
      4 C         -15.4113   -9.3481   18.3873 C.3     1  UNL1        0.0903
      5 C         -14.1014   -8.6719   18.1099 C.3     1  UNL1        0.1078
      6 N         -13.9161   -7.2245   18.4573 N.pl3   1  UNL1       -0.3057
      7 H         -17.3222   -8.6258   18.3642 H       1  UNL1        0.1234
      8 C         -12.6062   -6.5483   18.1799 C.2     1  UNL1        0.0297
      9 C         -11.3667   -6.9902   18.8998 C.2     1  UNL1        0.0120
     10 C         -10.0568   -6.3140   18.6224 C.2     1  UNL1        0.0216
     11 C          -9.9865   -5.1958   17.6250 C.2     1  UNL1        0.1008
     12 N          -8.8456   -4.3471   17.1476 N.2     1  UNL1       -0.1482
     13 N          -9.3800   -3.3806   16.1325 N.2     1  UNL1       -0.1467
     14 C         -10.8512   -3.6320   15.9827 C.2     1  UNL1        0.1198
     15 C         -11.2260   -4.7539   16.9051 C.2     1  UNL1        0.0238
     16 C         -12.5359   -5.4301   17.1825 C.3     1  UNL1        0.0705
     17 C         -14.4853   -2.1109   20.1241 C.ar    1  UNL1       -0.0000
     18 C         -15.4109   -2.5026   19.0107 C.ar    1  UNL1       -0.0003
     19 C         -15.5960   -3.9500   18.6633 C.ar    1  UNL1       -0.0026
     20 C         -14.8555   -5.0058   19.4294 C.ar    1  UNL1       -0.0030
     21 C         -13.9299   -4.6141   20.5429 C.ar    1  UNL1       -0.0026
     22 C         -13.7447   -3.1667   20.8902 C.ar    1  UNL1       -0.0003
@<TRIPOS>BOND
     1    17    18   ar
     2    18    19   ar
     3    19    20   ar
     4    20     1    1
     5     1     2    1
     6     2     3    1
     7     3     4    1
     8     4     5    1
     9     5     6    1
    10     6     8    1
    11     8     9    2
    12     9    10    1
    13    10    11    2
    14    11    12    1
    15    12    13    2
    16    13    14    1
    17    14    15    2
    18    15    16    1
    19    20    21   ar
    20    21    22   ar
    21    22    17   ar
    22     6     1    1
    23    16     8    1
    24    15    11    1
    25     3     7    1
@<TRIPOS>MOLECULE
*****
 22 25 0 0 0
SMALL
GASTEIGER

@<TRIPOS>ATOM
      1 C          -6.4167  -18.3137   22.4090 C.3     1  UNL1        0.1109
      2 C          -4.9422  -18.5874   22.4395 C.3     1  UNL1        0.0932
      3 N          -4.3480  -19.6008   21.5068 N.3     1  UNL1       -0.2944
      4 C          -5.2283  -20.3405   20.5435 C.3     1  UNL1        0.0903
      5 C          -6.7029  -20.0667   20.5130 C.3     1  UNL1        0.1078
      6 N          -7.2970  -19.0534   21.4457 N.pl3   1  UNL1       -0.3057
      7 H          -3.8915  -20.3038   22.0879 H       1  UNL1        0.1234
      8 C          -8.7716  -18.7797   21.4152 C.2     1  UNL1        0.0297
      9 C          -9.7281  -19.7530   22.0376 C.2     1  UNL1        0.0120
     10 C         -11.2027  -19.4793   22.0071 C.2     1  UNL1        0.0216
     11 C         -11.7205  -18.2321   21.3542 C.2     1  UNL1        0.1008
     12 N         -13.1101  -17.6978   21.1713 N.2     1  UNL1       -0.1482
     13 N         -13.0123  -16.3941   20.4358 N.2     1  UNL1       -0.1467
     14 C         -11.5623  -16.1227   20.1642 C.2     1  UNL1        0.1198
     15 C         -10.7639  -17.2587   20.7318 C.2     1  UNL1        0.0238
     16 C          -9.2894  -17.5325   20.7623 C.3     1  UNL1        0.0705
     17 C          -8.1989  -15.2734   25.2073 C.ar    1  UNL1       -0.0000
     18 C          -6.8839  -14.9986   24.5402 C.ar    1  UNL1       -0.0003
     19 C          -6.2898  -16.0121   23.6074 C.ar    1  UNL1       -0.0026
     20 C          -7.0109  -17.3003   23.3418 C.ar    1  UNL1       -0.0030
     21 C          -8.3259  -17.5751   24.0089 C.ar    1  UNL1       -0.0026
     22 C          -8.9200  -16.5616   24.9417 C.ar    1  UNL1       -0.0003
@<TRIPOS>BOND
     1    17    18   ar
     2    18    19   ar
     3    19    20   ar
     4    20     1    1
     5     1     2    1
     6     2     3    1
     7     3     4    1
     8     4     5    1
     9     5     6    1
    10     6     8    1
    11     8     9    2
    12     9    10    1
    13    10    11    2
    14    11    12    1
    15    12    13    2
    16    13    14    1
    17    14    15    2
    18    15    16    1
    19    20    21   ar
    20    21    22   ar
    21    22    17   ar
    22     6     1    1
    23    16     8    1
    24    15    11    1
    25     3     7    1
@<TRIPOS>MOLECULE
*****
 22 25 0 0 0
SMALL
GASTEIGER

@<TRIPOS>ATOM
      1 C         -16.3418   -6.5067   19.2193 C.3     1  UNL1        0.1109
      2 C         -17.5981   -7.0590   19.8249 C.3     1  UNL1        0.0932
      3 N         -17.7604   -8.5404   19.9949 N.3     1  UNL1       -0.2944
      4 C         -16.6665   -9.4697   19.5593 C.3     1  UNL1        0.0903
      5 C         -15.4101   -8.9174   18.9537 C.3     1  UNL1        0.1078
      6 N         -15.2478   -7.4360   18.7838 N.pl3   1  UNL1       -0.3057
      7 H         -18.5970   -8.8065   19.4754 H       1  UNL1        0.1234
      8 C         -13.9915   -6.8837   18.1782 C.2     1  UNL1        0.0297
      9 C         -13.8792   -6.7336   16.6900 C.2     1  UNL1        0.0120
     10 C         -12.6229   -6.1813   16.0845 C.2     1  UNL1        0.0216
     11 C         -11.4788   -5.7791   16.9672 C.2     1  UNL1        0.1008
     12 N         -10.1261   -5.2086   16.6595 N.2     1  UNL1       -0.1482
     13 N          -9.4023   -5.0060   17.9577 N.2     1  UNL1       -0.1467
     14 C         -10.3077   -5.4514   19.0676 C.2     1  UNL1        0.1198
     15 C         -11.5911   -5.9291   18.4555 C.2     1  UNL1        0.0238
     16 C         -12.8474   -6.4814   19.0610 C.3     1  UNL1        0.0705
     17 C         -15.8549   -2.0622   18.7096 C.ar    1  UNL1       -0.0000
     18 C         -15.3509   -2.7343   19.9523 C.ar    1  UNL1       -0.0003
     19 C         -15.5132   -4.2158   20.1222 C.ar    1  UNL1       -0.0026
     20 C         -16.1795   -5.0252   19.0494 C.ar    1  UNL1       -0.0030
     21 C         -16.6835   -4.3531   17.8067 C.ar    1  UNL1       -0.0026
     22 C         -16.5212   -2.8716   17.6368 C.ar    1  UNL1       -0.0003
@<TRIPOS>BOND
     1    17    18   ar
     2    18    19   ar
     3    19    20   ar
     4    20     1    1
     5     1     2    1
     6     2     3    1
     7     3     4    1
     8     4     5    1
     9     5     6    1
    10     6     8    1
    11     8     9    2
    12     9    10    1
    13    10    11    2
    14    11    12    1
    15    12    13    2
    16    13    14    1
    17    14    15    2
    18    15    16    1
    19    20    21   ar
    20    21    22   ar
    21    22    17   ar
    22     6     1    1
    23    16     8    1
    24    15    11    1
    25     3     7    1
@<TRIPOS>MOLECULE
*****
 22 25 0 0 0
SMALL
GASTEIGER

@<TRIPOS>ATOM
      1 C           6.4259   -0.9700   19.1792 C.3     1  UNL1        0.1109
      2 C           7.9052   -1.0686   18.9514 C.3     1  UNL1        0.0932
      3 N           8.7007    0.1656   18.6447 N.3     1  UNL1       -0.2944
      4 C           8.0169    1.4984   18.5660 C.3     1  UNL1        0.0903
      5 C           6.5375    1.5968   18.7938 C.3     1  UNL1        0.1078
      6 N           5.7421    0.3627   19.1004 N.pl3   1  UNL1       -0.3057
      7 H           9.1484    0.0106   17.7415 H       1  UNL1        0.1234
      8 C           4.2627    0.4612   19.3283 C.2     1  UNL1        0.0297
      9 C           3.3141    0.2962   18.1782 C.2     1  UNL1        0.0120
     10 C           1.8347    0.3947   18.4060 C.2     1  UNL1        0.0216
     11 C           1.3041    0.6581   19.7841 C.2     1  UNL1        0.1008
     12 N          -0.0927    0.8058   20.3104 N.2     1  UNL1       -0.1482
     13 N          -0.0073    1.0620   21.7859 N.2     1  UNL1       -0.1467
     14 C           1.4423    1.0727   22.1714 C.2     1  UNL1        0.1198
     15 C           2.2528    0.8230   20.9342 C.2     1  UNL1        0.0238
     16 C           3.7321    0.7246   20.7063 C.3     1  UNL1        0.0705
     17 C           4.0397   -4.6728   20.0988 C.ar    1  UNL1       -0.0000
     18 C           4.3457   -4.3120   18.6754 C.ar    1  UNL1       -0.0003
     19 C           5.1411   -3.0778   18.3689 C.ar    1  UNL1       -0.0026
     20 C           5.6305   -2.2043   19.4858 C.ar    1  UNL1       -0.0030
     21 C           5.3245   -2.5651   20.9092 C.ar    1  UNL1       -0.0026
     22 C           4.5291   -3.7993   21.2157 C.ar    1  UNL1       -0.0003
@<TRIPOS>BOND
     1    17    18   ar
     2    18    19   ar
     3    19    20   ar
     4    20     1    1
     5     1     2    1
     6     2     3    1
     7     3     4    1
     8     4     5    1
     9     5     6    1
    10     6     8    1
    11     8     9    2
    12     9    10    1
    13    10    11    2
    14    11    12    1
    15    12    13    2
    16    13    14    1
    17    14    15    2
    18    15    16    1
    19    20    21   ar
    20    21    22   ar
    21    22    17   ar
    22     6     1    1
    23    16     8    1
    24    15    11    1
    25     3     7    1
@<TRIPOS>MOLECULE
*****
 22 25 0 0 0
SMALL
GASTEIGER

@<TRIPOS>ATOM
      1 C           4.4525   -2.0665   22.4534 C.3     1  UNL1        0.1109
      2 C           5.1148   -2.7832   23.5926 C.3     1  UNL1        0.0932
      3 N           4.8012   -2.3945   25.0070 N.3     1  UNL1       -0.2944
      4 C           3.8254   -1.2890   25.2822 C.3     1  UNL1        0.0903
      5 C           3.1632   -0.5723   24.1429 C.3     1  UNL1        0.1078
      6 N           3.4767   -0.9611   22.7286 N.pl3   1  UNL1       -0.3057
      7 H           5.6838   -2.1228   25.4403 H       1  UNL1        0.1234
      8 C           2.8145   -0.2444   21.5893 C.2     1  UNL1        0.0297
      9 C           1.6611   -0.8807   20.8720 C.2     1  UNL1        0.0120
     10 C           0.9988   -0.1640   19.7328 C.2     1  UNL1        0.0216
     11 C           1.4902    1.1890   19.3109 C.2     1  UNL1        0.1008
     12 N           1.0399    2.1288   18.2320 N.2     1  UNL1       -0.1482
     13 N           1.9151    3.3459   18.2826 N.2     1  UNL1       -0.1467
     14 C           2.9063    3.1584   19.3927 C.2     1  UNL1        0.1198
     15 C           2.6437    1.8253   20.0282 C.2     1  UNL1        0.0238
     16 C           3.3058    1.1086   21.1675 C.3     1  UNL1        0.0705
     17 C           5.3935   -3.2329   18.2102 C.ar    1  UNL1       -0.0000
     18 C           6.0866   -2.0594   18.8368 C.ar    1  UNL1       -0.0003
     19 C           5.7729   -1.6706   20.2512 C.ar    1  UNL1       -0.0026
     20 C           4.7662   -2.4554   21.0390 C.ar    1  UNL1       -0.0030
     21 C           4.0731   -3.6289   20.4124 C.ar    1  UNL1       -0.0026
     22 C           4.3868   -4.0176   18.9980 C.ar    1  UNL1       -0.0003
@<TRIPOS>BOND
     1    17    18   ar
     2    18    19   ar
     3    19    20   ar
     4    20     1    1
     5     1     2    1
     6     2     3    1
     7     3     4    1
     8     4     5    1
     9     5     6    1
    10     6     8    1
    11     8     9    2
    12     9    10    1
    13    10    11    2
    14    11    12    1
    15    12    13    2
    16    13    14    1
    17    14    15    2
    18    15    16    1
    19    20    21   ar
    20    21    22   ar
    21    22    17   ar
    22     6     1    1
    23    16     8    1
    24    15    11    1
    25     3     7    1
@<TRIPOS>MOLECULE
*****
 22 25 0 0 0
SMALL
GASTEIGER

@<TRIPOS>ATOM
      1 C           2.1769   -0.4793   20.0649 C.3     1  UNL1        0.1109
      2 C           0.7084   -0.4570   20.3699 C.3     1  UNL1        0.0932
      3 N          -0.1456    0.6677   19.8643 N.3     1  UNL1       -0.2944
      4 C           0.4688    1.7701   19.0536 C.3     1  UNL1        0.0903
      5 C           1.9373    1.7478   18.7487 C.3     1  UNL1        0.1078
      6 N           2.7913    0.6232   19.2543 N.pl3   1  UNL1       -0.3057
      7 H          -0.5707    1.1051   20.6818 H       1  UNL1        0.1234
      8 C           4.2599    0.6008   18.9493 C.2     1  UNL1        0.0297
      9 C           4.7485    0.0202   17.6555 C.2     1  UNL1        0.0120
     10 C           6.2170   -0.0021   17.3506 C.2     1  UNL1        0.0216
     11 C           7.1969    0.5562   18.3395 C.2     1  UNL1        0.1008
     12 N           8.6923    0.6711   18.3152 N.2     1  UNL1       -0.1482
     13 N           9.1279    1.3228   19.5941 N.2     1  UNL1       -0.1467
     14 C           7.9017    1.6107   20.4088 C.2     1  UNL1        0.1198
     15 C           6.7083    1.1369   19.6334 C.2     1  UNL1        0.0238
     16 C           5.2398    1.1592   19.9383 C.3     1  UNL1        0.0705
     17 C           4.7389   -3.8534   21.5821 C.ar    1  UNL1       -0.0000
     18 C           4.4072   -2.7002   22.4822 C.ar    1  UNL1       -0.0003
     19 C           3.5532   -1.5755   21.9764 C.ar    1  UNL1       -0.0026
     20 C           3.0309   -1.6040   20.5706 C.ar    1  UNL1       -0.0030
     21 C           3.3626   -2.7572   19.6705 C.ar    1  UNL1       -0.0026
     22 C           4.2166   -3.8819   20.1763 C.ar    1  UNL1       -0.0003
@<TRIPOS>BOND
     1    17    18   ar
     2    18    19   ar
     3    19    20   ar
     4    20     1    1
     5     1     2    1
     6     2     3    1
     7     3     4    1
     8     4     5    1
     9     5     6    1
    10     6     8    1
    11     8     9    2
    12     9    10    1
    13    10    11    2
    14    11    12    1
    15    12    13    2
    16    13    14    1
    17    14    15    2
    18    15    16    1
    19    20    21   ar
    20    21    22   ar
    21    22    17   ar
    22     6     1    1
    23    16     8    1
    24    15    11    1
    25     3     7    1
