@<TRIPOS>MOLECULE
*****
 27 29 0 0 0
SMALL
GASTEIGER

@<TRIPOS>ATOM
      1 C          -8.5283  -17.7197   21.8434 C.ar    1  UNL1        0.1058
      2 N          -7.8980  -18.7755   20.9844 N.ar    1  UNL1       -0.3419
      3 C          -6.4402  -19.0945   21.1364 C.ar    1  UNL1        0.0637
      4 C          -5.8099  -20.1504   20.2774 C.ar    1  UNL1        0.0379
      5 C          -4.3522  -20.4693   20.4295 C.ar    1  UNL1        0.1037
      6 N          -3.5247  -19.7325   21.4405 N.ar    1  UNL1       -0.2062
      7 C          -4.1549  -18.6766   22.2995 C.ar    1  UNL1        0.2806
      8 O          -3.3274  -17.9398   23.3106 O.2     1  UNL1       -0.2651
      9 C          -5.6127  -18.3577   22.1475 C.ar    1  UNL1        0.0736
     10 C          -6.2430  -17.3018   23.0065 C.ar    1  UNL1        0.0109
     11 C          -5.4155  -16.5649   24.0176 C.ar    1  UNL1        0.0299
     12 C          -6.0458  -15.5091   24.8766 C.ar    1  UNL1        0.1401
     13 F          -5.2183  -14.7722   25.8877 F       1  UNL1       -0.2042
     14 C          -7.5036  -15.1901   24.7246 C.ar    1  UNL1        0.0297
     15 C          -8.3311  -15.9269   23.7135 C.ar    1  UNL1        0.0050
     16 C          -7.7008  -16.9828   22.8545 C.ar    1  UNL1        0.0298
     17 H          -8.4412  -19.2591   20.3208 H       1  UNL1        0.1671
     18 N          -9.9861  -17.4007   21.6914 N.pl3   1  UNL1       -0.3142
     19 H         -10.2864  -16.8022   20.9696 H       1  UNL1        0.1483
     20 C         -10.9864  -17.9936   22.6390 C.3     1  UNL1        0.1663
     21 C         -10.6984  -19.3036   23.3105 C.3     1  UNL1        0.4135
     22 F         -10.4104  -20.6136   23.9820 F       1  UNL1       -0.1682
     23 F         -10.2663  -18.5743   24.5479 F       1  UNL1       -0.1682
     24 F         -11.1305  -20.0330   22.0730 F       1  UNL1       -0.1682
     25 C         -13.3932  -17.9875   23.6172 C.3     1  UNL1        0.0020
     26 C         -12.2745  -17.2764   22.9151 C.3     1  UNL1        0.0264
     27 C         -12.4440  -15.8482   22.4892 C.3     1  UNL1        0.0020
@<TRIPOS>BOND
     1    25    26    1
     2    26    27    1
     3    26    20    1
     4    20    18    1
     5    18     1    1
     6     1     2   ar
     7     2     3   ar
     8     3     4   ar
     9     4     5   ar
    10     5     6   ar
    11     6     7   ar
    12     7     8    2
    13     7     9   ar
    14     9    10   ar
    15    10    11   ar
    16    11    12   ar
    17    12    13    1
    18    12    14   ar
    19    14    15   ar
    20    15    16   ar
    21    20    21    1
    22    21    22    1
    23    21    23    1
    24    21    24    1
    25    16     1   ar
    26     9     3    1
    27    16    10   ar
    28    18    19    1
    29     2    17    1
@<TRIPOS>MOLECULE
*****
 27 29 0 0 0
SMALL
GASTEIGER

@<TRIPOS>ATOM
      1 C          -8.0412  -17.7100   21.9210 C.ar    1  UNL1        0.1058
      2 N          -7.4053  -18.7708   21.0723 N.ar    1  UNL1       -0.3419
      3 C          -5.9466  -19.0832   21.2302 C.ar    1  UNL1        0.0637
      4 C          -5.3107  -20.1440   20.3814 C.ar    1  UNL1        0.0379
      5 C          -3.8522  -20.4564   20.5394 C.ar    1  UNL1        0.1037
      6 N          -3.0295  -19.7081   21.5460 N.ar    1  UNL1       -0.2062
      7 C          -3.6655  -18.6474   22.3947 C.ar    1  UNL1        0.2806
      8 O          -2.8428  -17.8990   23.4014 O.2     1  UNL1       -0.2651
      9 C          -5.1240  -18.3349   22.2368 C.ar    1  UNL1        0.0736
     10 C          -5.7600  -17.2741   23.0856 C.ar    1  UNL1        0.0109
     11 C          -4.9374  -16.5258   24.0922 C.ar    1  UNL1        0.0299
     12 C          -5.5733  -15.4651   24.9410 C.ar    1  UNL1        0.1401
     13 F          -4.7507  -14.7168   25.9476 F       1  UNL1       -0.2042
     14 C          -7.0320  -15.1526   24.7831 C.ar    1  UNL1        0.0297
     15 C          -7.8546  -15.9009   23.7764 C.ar    1  UNL1        0.0050
     16 C          -7.2186  -16.9617   22.9277 C.ar    1  UNL1        0.0298
     17 H          -7.9452  -19.2619   20.4116 H       1  UNL1        0.1671
     18 N          -9.4998  -17.3976   21.7631 N.pl3   1  UNL1       -0.3142
     19 H          -9.7867  -16.6848   21.1477 H       1  UNL1        0.1483
     20 C         -10.5212  -18.1712   22.5431 C.3     1  UNL1        0.1663
     21 C         -11.9671  -18.1150   22.1476 C.3     1  UNL1        0.4135
     22 F         -13.4130  -18.0587   21.7523 F       1  UNL1       -0.1682
     23 F         -12.1868  -16.9868   23.1114 F       1  UNL1       -0.1682
     24 F         -11.7475  -19.2431   21.1839 F       1  UNL1       -0.1682
     25 C         -10.0856  -18.4028   25.0938 C.3     1  UNL1        0.0020
     26 C         -10.0968  -19.0009   23.7183 C.3     1  UNL1        0.0264
     27 C          -9.6835  -20.4289   23.5181 C.3     1  UNL1        0.0020
@<TRIPOS>BOND
     1    25    26    1
     2    26    27    1
     3    26    20    1
     4    20    18    1
     5    18     1    1
     6     1     2   ar
     7     2     3   ar
     8     3     4   ar
     9     4     5   ar
    10     5     6   ar
    11     6     7   ar
    12     7     8    2
    13     7     9   ar
    14     9    10   ar
    15    10    11   ar
    16    11    12   ar
    17    12    13    1
    18    12    14   ar
    19    14    15   ar
    20    15    16   ar
    21    20    21    1
    22    21    22    1
    23    21    23    1
    24    21    24    1
    25    16     1   ar
    26     9     3    1
    27    16    10   ar
    28    18    19    1
    29     2    17    1
@<TRIPOS>MOLECULE
*****
 27 29 0 0 0
SMALL
GASTEIGER

@<TRIPOS>ATOM
      1 C          -8.5631  -17.6985   22.2581 C.ar    1  UNL1        0.1058
      2 N          -7.2555  -17.4504   22.9498 N.ar    1  UNL1       -0.3419
      3 C          -6.0119  -18.1405   22.4730 C.ar    1  UNL1        0.0637
      4 C          -4.7043  -17.8924   23.1647 C.ar    1  UNL1        0.0379
      5 C          -3.4608  -18.5825   22.6878 C.ar    1  UNL1        0.1037
      6 N          -3.5249  -19.5206   21.5192 N.ar    1  UNL1       -0.2062
      7 C          -4.8325  -19.7687   20.8274 C.ar    1  UNL1        0.2806
      8 O          -4.8966  -20.7068   19.6587 O.2     1  UNL1       -0.2651
      9 C          -6.0760  -19.0786   21.3043 C.ar    1  UNL1        0.0736
     10 C          -7.3837  -19.3267   20.6125 C.ar    1  UNL1        0.0109
     11 C          -7.4478  -20.2648   19.4439 C.ar    1  UNL1        0.0299
     12 C          -8.7554  -20.5129   18.7521 C.ar    1  UNL1        0.1401
     13 F          -8.8195  -21.4511   17.5834 F       1  UNL1       -0.2042
     14 C          -9.9990  -19.8228   19.2290 C.ar    1  UNL1        0.0297
     15 C          -9.9349  -18.8847   20.3976 C.ar    1  UNL1        0.0050
     16 C          -8.6272  -18.6366   21.0894 C.ar    1  UNL1        0.0298
     17 H          -7.2134  -16.8346   23.7169 H       1  UNL1        0.1671
     18 N          -9.8066  -17.0084   22.7349 N.pl3   1  UNL1       -0.3142
     19 H          -9.8862  -16.0300   22.6599 H       1  UNL1        0.1483
     20 C         -10.9289  -17.8090   23.3261 C.3     1  UNL1        0.1663
     21 C         -10.6313  -18.9219   24.2869 C.3     1  UNL1        0.4135
     22 F         -10.3337  -20.0346   25.2477 F       1  UNL1       -0.1682
     23 F         -10.1347  -17.9231   25.2898 F       1  UNL1       -0.1682
     24 F         -11.1279  -19.9206   23.2841 F       1  UNL1       -0.1682
     25 C         -13.4702  -17.9345   23.8512 C.3     1  UNL1        0.0020
     26 C         -12.3487  -17.4969   22.9564 C.3     1  UNL1        0.0264
     27 C         -12.6470  -16.7473   21.6919 C.3     1  UNL1        0.0020
@<TRIPOS>BOND
     1    25    26    1
     2    26    27    1
     3    26    20    1
     4    20    18    1
     5    18     1    1
     6     1     2   ar
     7     2     3   ar
     8     3     4   ar
     9     4     5   ar
    10     5     6   ar
    11     6     7   ar
    12     7     8    2
    13     7     9   ar
    14     9    10   ar
    15    10    11   ar
    16    11    12   ar
    17    12    13    1
    18    12    14   ar
    19    14    15   ar
    20    15    16   ar
    21    20    21    1
    22    21    22    1
    23    21    23    1
    24    21    24    1
    25    16     1   ar
    26     9     3    1
    27    16    10   ar
    28    18    19    1
    29     2    17    1
@<TRIPOS>MOLECULE
*****
 27 29 0 0 0
SMALL
GASTEIGER

@<TRIPOS>ATOM
      1 C          -8.7129  -17.2806   21.9760 C.ar    1  UNL1        0.1058
      2 N          -8.5048  -16.2744   23.0688 N.ar    1  UNL1       -0.3419
      3 C          -7.1769  -16.1819   23.7603 C.ar    1  UNL1        0.0637
      4 C          -6.9688  -15.1756   24.8531 C.ar    1  UNL1        0.0379
      5 C          -5.6410  -15.0832   25.5445 C.ar    1  UNL1        0.1037
      6 N          -4.5212  -15.9971   25.1433 N.ar    1  UNL1       -0.2062
      7 C          -4.7293  -17.0033   24.0506 C.ar    1  UNL1        0.2806
      8 O          -3.6095  -17.9172   23.6494 O.2     1  UNL1       -0.2651
      9 C          -6.0571  -17.0957   23.3591 C.ar    1  UNL1        0.0736
     10 C          -6.2653  -18.1020   22.2663 C.ar    1  UNL1        0.0109
     11 C          -5.1455  -19.0159   21.8651 C.ar    1  UNL1        0.0299
     12 C          -5.3535  -20.0221   20.7723 C.ar    1  UNL1        0.1401
     13 F          -4.2338  -20.9360   20.3711 F       1  UNL1       -0.2042
     14 C          -6.6815  -20.1146   20.0808 C.ar    1  UNL1        0.0297
     15 C          -7.8012  -19.2007   20.4820 C.ar    1  UNL1        0.0050
     16 C          -7.5931  -18.1944   21.5748 C.ar    1  UNL1        0.0298
     17 H          -9.2398  -15.6746   23.3321 H       1  UNL1        0.1671
     18 N         -10.0408  -17.3731   21.2845 N.pl3   1  UNL1       -0.3142
     19 H         -10.1609  -16.9714   20.3937 H       1  UNL1        0.1483
     20 C         -11.1856  -18.0775   21.9502 C.3     1  UNL1        0.1663
     21 C         -11.2309  -19.5766   21.9760 C.3     1  UNL1        0.4135
     22 F         -11.2761  -21.0757   22.0019 F       1  UNL1       -0.1682
     23 F         -10.7263  -19.5675   23.3885 F       1  UNL1       -0.1682
     24 F         -11.7354  -19.5858   20.5635 F       1  UNL1       -0.1682
     25 C         -13.3658  -17.9823   23.3601 C.3     1  UNL1        0.0020
     26 C         -12.2852  -17.2828   22.5900 C.3     1  UNL1        0.0264
     27 C         -12.3042  -15.7886   22.4597 C.3     1  UNL1        0.0020
@<TRIPOS>BOND
     1    25    26    1
     2    26    27    1
     3    26    20    1
     4    20    18    1
     5    18     1    1
     6     1     2   ar
     7     2     3   ar
     8     3     4   ar
     9     4     5   ar
    10     5     6   ar
    11     6     7   ar
    12     7     8    2
    13     7     9   ar
    14     9    10   ar
    15    10    11   ar
    16    11    12   ar
    17    12    13    1
    18    12    14   ar
    19    14    15   ar
    20    15    16   ar
    21    20    21    1
    22    21    22    1
    23    21    23    1
    24    21    24    1
    25    16     1   ar
    26     9     3    1
    27    16    10   ar
    28    18    19    1
    29     2    17    1
@<TRIPOS>MOLECULE
*****
 27 29 0 0 0
SMALL
GASTEIGER

@<TRIPOS>ATOM
      1 C          -8.4991  -18.1397   21.7909 C.ar    1  UNL1        0.1058
      2 N          -8.5439  -17.0406   22.8107 N.ar    1  UNL1       -0.3419
      3 C          -7.2844  -16.6038   23.4984 C.ar    1  UNL1        0.0637
      4 C          -7.3292  -15.5047   24.5182 C.ar    1  UNL1        0.0379
      5 C          -6.0697  -15.0679   25.2059 C.ar    1  UNL1        0.1037
      6 N          -4.7655  -15.7303   24.8738 N.ar    1  UNL1       -0.2062
      7 C          -4.7207  -16.8294   23.8541 C.ar    1  UNL1        0.2806
      8 O          -3.4165  -17.4918   23.5221 O.2     1  UNL1       -0.2651
      9 C          -5.9802  -17.2661   23.1664 C.ar    1  UNL1        0.0736
     10 C          -5.9354  -18.3653   22.1466 C.ar    1  UNL1        0.0109
     11 C          -4.6312  -19.0277   21.8145 C.ar    1  UNL1        0.0299
     12 C          -4.5864  -20.1268   20.7948 C.ar    1  UNL1        0.1401
     13 F          -3.2822  -20.7891   20.4628 F       1  UNL1       -0.2042
     14 C          -5.8459  -20.5636   20.1070 C.ar    1  UNL1        0.0297
     15 C          -7.1501  -19.9012   20.4391 C.ar    1  UNL1        0.0050
     16 C          -7.1949  -18.8021   21.4589 C.ar    1  UNL1        0.0298
     17 H          -9.3999  -16.6059   23.0286 H       1  UNL1        0.1671
     18 N          -9.7586  -18.5765   21.1032 N.pl3   1  UNL1       -0.3142
     19 H          -9.7405  -19.3390   20.4807 H       1  UNL1        0.1483
     20 C         -11.0456  -17.8515   21.3639 C.3     1  UNL1        0.1663
     21 C         -11.4689  -16.7278   20.4648 C.3     1  UNL1        0.4135
     22 F         -11.8921  -15.6042   19.5658 F       1  UNL1       -0.1682
     23 F         -11.7181  -17.7080   19.3571 F       1  UNL1       -0.1682
     24 F         -11.2196  -15.7476   21.5725 F       1  UNL1       -0.1682
     25 C         -11.3474  -19.1100   23.6167 C.3     1  UNL1        0.0020
     26 C         -11.9094  -18.2502   22.5236 C.3     1  UNL1        0.0264
     27 C         -13.3352  -17.7890   22.5902 C.3     1  UNL1        0.0020
@<TRIPOS>BOND
     1    25    26    1
     2    26    27    1
     3    26    20    1
     4    20    18    1
     5    18     1    1
     6     1     2   ar
     7     2     3   ar
     8     3     4   ar
     9     4     5   ar
    10     5     6   ar
    11     6     7   ar
    12     7     8    2
    13     7     9   ar
    14     9    10   ar
    15    10    11   ar
    16    11    12   ar
    17    12    13    1
    18    12    14   ar
    19    14    15   ar
    20    15    16   ar
    21    20    21    1
    22    21    22    1
    23    21    23    1
    24    21    24    1
    25    16     1   ar
    26     9     3    1
    27    16    10   ar
    28    18    19    1
    29     2    17    1
@<TRIPOS>MOLECULE
*****
 27 29 0 0 0
SMALL
GASTEIGER

@<TRIPOS>ATOM
      1 C          -5.4831  -18.1574   22.1269 C.ar    1  UNL1        0.1058
      2 N          -6.1440  -18.9320   21.0255 N.ar    1  UNL1       -0.3419
      3 C          -7.6296  -18.8469   20.8356 C.ar    1  UNL1        0.0637
      4 C          -8.2905  -19.6215   19.7342 C.ar    1  UNL1        0.0379
      5 C          -9.7759  -19.5364   19.5444 C.ar    1  UNL1        0.1037
      6 N         -10.6005  -18.6766   20.4559 N.ar    1  UNL1       -0.2062
      7 C          -9.9396  -17.9020   21.5573 C.ar    1  UNL1        0.2806
      8 O         -10.7642  -17.0422   22.4688 O.2     1  UNL1       -0.2651
      9 C          -8.4541  -17.9871   21.7472 C.ar    1  UNL1        0.0736
     10 C          -7.7932  -17.2125   22.8486 C.ar    1  UNL1        0.0109
     11 C          -8.6177  -16.3527   23.7601 C.ar    1  UNL1        0.0299
     12 C          -7.9568  -15.5781   24.8615 C.ar    1  UNL1        0.1401
     13 F          -8.7814  -14.7183   25.7731 F       1  UNL1       -0.2042
     14 C          -6.4713  -15.6632   25.0514 C.ar    1  UNL1        0.0297
     15 C          -5.6467  -16.5230   24.1399 C.ar    1  UNL1        0.0050
     16 C          -6.3077  -17.2976   23.0385 C.ar    1  UNL1        0.0298
     17 H          -5.6028  -19.4963   20.4273 H       1  UNL1        0.1671
     18 N          -3.9976  -18.2425   22.3168 N.pl3   1  UNL1       -0.3142
     19 H          -3.6184  -18.2743   23.2248 H       1  UNL1        0.1483
     20 C          -3.0898  -18.2792   21.1233 C.3     1  UNL1        0.1663
     21 C          -3.3189  -19.2886   20.0375 C.3     1  UNL1        0.4135
     22 F          -3.5479  -20.2979   18.9518 F       1  UNL1       -0.1682
     23 F          -3.7486  -18.1919   19.1087 F       1  UNL1       -0.1682
     24 F          -2.8891  -20.3852   20.9663 F       1  UNL1       -0.1682
     25 C          -0.7478  -17.6499   20.1910 C.3     1  UNL1        0.0020
     26 C          -1.9530  -17.3066   21.0154 C.3     1  UNL1        0.0264
     27 C          -2.0214  -15.9906   21.7319 C.3     1  UNL1        0.0020
@<TRIPOS>BOND
     1    25    26    1
     2    26    27    1
     3    26    20    1
     4    20    18    1
     5    18     1    1
     6     1     2   ar
     7     2     3   ar
     8     3     4   ar
     9     4     5   ar
    10     5     6   ar
    11     6     7   ar
    12     7     8    2
    13     7     9   ar
    14     9    10   ar
    15    10    11   ar
    16    11    12   ar
    17    12    13    1
    18    12    14   ar
    19    14    15   ar
    20    15    16   ar
    21    20    21    1
    22    21    22    1
    23    21    23    1
    24    21    24    1
    25    16     1   ar
    26     9     3    1
    27    16    10   ar
    28    18    19    1
    29     2    17    1
@<TRIPOS>MOLECULE
*****
 27 29 0 0 0
SMALL
GASTEIGER

@<TRIPOS>ATOM
      1 C          -8.1123  -16.3533   23.2566 C.ar    1  UNL1        0.1058
      2 N          -6.8939  -17.0813   22.7715 N.ar    1  UNL1       -0.3419
      3 C          -7.0324  -18.1952   21.7764 C.ar    1  UNL1        0.0637
      4 C          -5.8140  -18.9233   21.2913 C.ar    1  UNL1        0.0379
      5 C          -5.9526  -20.0372   20.2963 C.ar    1  UNL1        0.1037
      6 N          -7.3095  -20.4230   19.7864 N.ar    1  UNL1       -0.2062
      7 C          -8.5279  -19.6949   20.2716 C.ar    1  UNL1        0.2806
      8 O          -9.8848  -20.0807   19.7617 O.2     1  UNL1       -0.2651
      9 C          -8.3893  -18.5811   21.2666 C.ar    1  UNL1        0.0736
     10 C          -9.6077  -17.8529   21.7518 C.ar    1  UNL1        0.0109
     11 C         -10.9647  -18.2387   21.2420 C.ar    1  UNL1        0.0299
     12 C         -12.1830  -17.5107   21.7271 C.ar    1  UNL1        0.1401
     13 F         -13.5400  -17.8965   21.2173 F       1  UNL1       -0.2042
     14 C         -12.0445  -16.3967   22.7222 C.ar    1  UNL1        0.0297
     15 C         -10.6876  -16.0109   23.2320 C.ar    1  UNL1        0.0050
     16 C          -9.4692  -16.7391   22.7468 C.ar    1  UNL1        0.0298
     17 H          -6.0033  -16.8281   23.1061 H       1  UNL1        0.1671
     18 N          -7.9738  -15.2393   24.2517 N.pl3   1  UNL1       -0.3142
     19 H          -8.2564  -14.3272   24.0120 H       1  UNL1        0.1483
     20 C          -7.4048  -15.5152   25.6119 C.3     1  UNL1        0.1663
     21 C          -5.9245  -15.4265   25.8377 C.3     1  UNL1        0.4135
     22 F          -4.4442  -15.3378   26.0634 F       1  UNL1       -0.1682
     23 F          -5.7777  -14.6426   24.5673 F       1  UNL1       -0.1682
     24 F          -6.0712  -16.2104   27.1081 F       1  UNL1       -0.1682
     25 C          -8.6014  -14.8819   27.8293 C.3     1  UNL1        0.0020
     26 C          -8.3160  -15.8797   26.7462 C.3     1  UNL1        0.0264
     27 C          -8.9417  -17.2419   26.7975 C.3     1  UNL1        0.0020
@<TRIPOS>BOND
     1    25    26    1
     2    26    27    1
     3    26    20    1
     4    20    18    1
     5    18     1    1
     6     1     2   ar
     7     2     3   ar
     8     3     4   ar
     9     4     5   ar
    10     5     6   ar
    11     6     7   ar
    12     7     8    2
    13     7     9   ar
    14     9    10   ar
    15    10    11   ar
    16    11    12   ar
    17    12    13    1
    18    12    14   ar
    19    14    15   ar
    20    15    16   ar
    21    20    21    1
    22    21    22    1
    23    21    23    1
    24    21    24    1
    25    16     1   ar
    26     9     3    1
    27    16    10   ar
    28    18    19    1
    29     2    17    1
@<TRIPOS>MOLECULE
*****
 27 29 0 0 0
SMALL
GASTEIGER

@<TRIPOS>ATOM
      1 C          -5.5825  -18.5055   21.7938 C.ar    1  UNL1        0.1058
      2 N          -5.4815  -17.5599   22.9538 N.ar    1  UNL1       -0.3419
      3 C          -6.7084  -16.8625   23.4620 C.ar    1  UNL1        0.0637
      4 C          -6.6073  -15.9169   24.6221 C.ar    1  UNL1        0.0379
      5 C          -7.8342  -15.2195   25.1302 C.ar    1  UNL1        0.1037
      6 N          -9.1622  -15.4676   24.4784 N.ar    1  UNL1       -0.2062
      7 C          -9.2633  -16.4132   23.3183 C.ar    1  UNL1        0.2806
      8 O         -10.5912  -16.6613   22.6665 O.2     1  UNL1       -0.2651
      9 C          -8.0364  -17.1106   22.8102 C.ar    1  UNL1        0.0736
     10 C          -8.1374  -18.0562   21.6501 C.ar    1  UNL1        0.0109
     11 C          -9.4654  -18.3043   20.9982 C.ar    1  UNL1        0.0299
     12 C          -9.5664  -19.2498   19.8382 C.ar    1  UNL1        0.1401
     13 F         -10.8944  -19.4979   19.1863 F       1  UNL1       -0.2042
     14 C          -8.3395  -19.9473   19.3300 C.ar    1  UNL1        0.0297
     15 C          -7.0115  -19.6992   19.9818 C.ar    1  UNL1        0.0050
     16 C          -6.9105  -18.7536   21.1419 C.ar    1  UNL1        0.0298
     17 H          -4.6099  -17.3971   23.3817 H       1  UNL1        0.1671
     18 N          -4.3556  -19.2029   21.2856 N.pl3   1  UNL1       -0.3142
     19 H          -4.3508  -20.1827   21.1888 H       1  UNL1        0.1483
     20 C          -3.1360  -18.4076   20.9248 C.3     1  UNL1        0.1663
     21 C          -2.5812  -18.4753   19.5327 C.3     1  UNL1        0.4135
     22 F          -2.0264  -18.5430   18.1408 F       1  UNL1       -0.1682
     23 F          -1.2522  -18.9004   20.0831 F       1  UNL1       -0.1682
     24 F          -3.9102  -18.0502   18.9824 F       1  UNL1       -0.1682
     25 C          -2.1909  -18.0919   23.3242 C.3     1  UNL1        0.0020
     26 C          -2.4712  -17.5447   21.9560 C.3     1  UNL1        0.0264
     27 C          -2.0868  -16.1346   21.6189 C.3     1  UNL1        0.0020
@<TRIPOS>BOND
     1    25    26    1
     2    26    27    1
     3    26    20    1
     4    20    18    1
     5    18     1    1
     6     1     2   ar
     7     2     3   ar
     8     3     4   ar
     9     4     5   ar
    10     5     6   ar
    11     6     7   ar
    12     7     8    2
    13     7     9   ar
    14     9    10   ar
    15    10    11   ar
    16    11    12   ar
    17    12    13    1
    18    12    14   ar
    19    14    15   ar
    20    15    16   ar
    21    20    21    1
    22    21    22    1
    23    21    23    1
    24    21    24    1
    25    16     1   ar
    26     9     3    1
    27    16    10   ar
    28    18    19    1
    29     2    17    1
@<TRIPOS>MOLECULE
*****
 27 29 0 0 0
SMALL
GASTEIGER

@<TRIPOS>ATOM
      1 C          -7.5088  -17.6138   22.3959 C.ar    1  UNL1        0.1058
      2 N          -6.1089  -17.5000   22.9225 N.ar    1  UNL1       -0.3419
      3 C          -5.0134  -18.3339   22.3269 C.ar    1  UNL1        0.0637
      4 C          -3.6136  -18.2201   22.8536 C.ar    1  UNL1        0.0379
      5 C          -2.5182  -19.0540   22.2580 C.ar    1  UNL1        0.1037
      6 N          -2.8226  -20.0017   21.1359 N.ar    1  UNL1       -0.2062
      7 C          -4.2225  -20.1155   20.6093 C.ar    1  UNL1        0.2806
      8 O          -4.5270  -21.0631   19.4871 O.2     1  UNL1       -0.2651
      9 C          -5.3179  -19.2816   21.2048 C.ar    1  UNL1        0.0736
     10 C          -6.7179  -19.3953   20.6782 C.ar    1  UNL1        0.0109
     11 C          -7.0223  -20.3430   19.5560 C.ar    1  UNL1        0.0299
     12 C          -8.4222  -20.4568   19.0294 C.ar    1  UNL1        0.1401
     13 F          -8.7267  -21.4044   17.9072 F       1  UNL1       -0.2042
     14 C          -9.5177  -19.6228   19.6249 C.ar    1  UNL1        0.0297
     15 C          -9.2132  -18.6752   20.7471 C.ar    1  UNL1        0.0050
     16 C          -7.8133  -18.5614   21.2737 C.ar    1  UNL1        0.0298
     17 H          -5.9091  -16.8780   23.6590 H       1  UNL1        0.1671
     18 N          -8.6043  -16.7799   22.9914 N.pl3   1  UNL1       -0.3142
     19 H          -8.9092  -15.9654   22.5300 H       1  UNL1        0.1483
     20 C          -9.2352  -17.1869   24.2899 C.3     1  UNL1        0.1663
     21 C         -10.3268  -18.2156   24.3034 C.3     1  UNL1        0.4135
     22 F         -11.4185  -19.2442   24.3169 F       1  UNL1       -0.1682
     23 F         -11.3370  -17.1475   24.0056 F       1  UNL1       -0.1682
     24 F          -9.3167  -19.2838   24.6012 F       1  UNL1       -0.1682
     25 C          -8.9900  -17.2827   26.8746 C.3     1  UNL1        0.0020
     26 C          -8.7745  -16.5654   25.5750 C.3     1  UNL1        0.0264
     27 C          -8.0982  -15.2266   25.5604 C.3     1  UNL1        0.0020
@<TRIPOS>BOND
     1    25    26    1
     2    26    27    1
     3    26    20    1
     4    20    18    1
     5    18     1    1
     6     1     2   ar
     7     2     3   ar
     8     3     4   ar
     9     4     5   ar
    10     5     6   ar
    11     6     7   ar
    12     7     8    2
    13     7     9   ar
    14     9    10   ar
    15    10    11   ar
    16    11    12   ar
    17    12    13    1
    18    12    14   ar
    19    14    15   ar
    20    15    16   ar
    21    20    21    1
    22    21    22    1
    23    21    23    1
    24    21    24    1
    25    16     1   ar
    26     9     3    1
    27    16    10   ar
    28    18    19    1
    29     2    17    1
