@<TRIPOS>MOLECULE
*****
 28 31 0 0 0
SMALL
GASTEIGER

@<TRIPOS>ATOM
      1 C           4.2077   -4.0690   20.9802 C.3     1  UNL1        0.0230
      2 C           5.3868   -3.3029   21.5026 C.3     1  UNL1        0.0915
      3 C           6.3453   -3.9574   22.4527 C.3     1  UNL1        0.0924
      4 N           7.5243   -3.1912   22.9751 N.3     1  UNL1       -0.2660
      5 C           7.7448   -1.7706   22.5473 C.3     1  UNL1        0.0942
      6 C           6.7863   -1.1161   21.5972 C.3     1  UNL1        0.1108
      7 N           5.6073   -1.8822   21.0748 N.pl3   1  UNL1       -0.2783
      8 C           4.6488   -1.2276   20.1246 C.ar    1  UNL1        0.2035
      9 N           3.5429   -0.3625   20.6522 N.ar    1  UNL1       -0.2133
     10 C           2.5844    0.2921   19.7021 C.ar    1  UNL1        0.1065
     11 C           2.7318    0.0815   18.2242 C.ar    1  UNL1        0.0815
     12 C           3.8377   -0.7837   17.6966 C.ar    1  UNL1        0.2646
     13 O           3.9851   -0.9943   16.2188 O.2     1  UNL1       -0.2668
     14 N           4.7962   -1.4383   18.6468 N.ar    1  UNL1       -0.2667
     15 C           5.9021   -2.3034   18.1192 C.3     1  UNL1        0.1363
     16 C           1.4784    1.1573   20.2297 C.ar    1  UNL1        0.1024
     17 C           1.2618    1.2784   21.7090 C.ar    1  UNL1        0.0414
     18 C           0.1558    2.1436   22.2367 C.ar    1  UNL1        0.1023
     19 N          -0.7334    2.8876   21.2850 N.ar    1  UNL1       -0.2224
     20 C          -0.5168    2.7665   19.8056 C.ar    1  UNL1        0.1989
     21 N           0.5892    1.9013   19.2780 N.ar    1  UNL1       -0.2224
     22 C           8.4828   -3.8458   23.9253 C.3     1  UNL1        0.0992
     23 C           8.0827   -5.0955   24.6521 C.ar    1  UNL1       -0.0061
     24 C           8.5457   -6.4330   24.1551 C.ar    1  UNL1       -0.0029
     25 C           8.1455   -7.6827   24.8818 C.ar    1  UNL1       -0.0003
     26 C           7.2823   -7.5949   26.1055 C.ar    1  UNL1       -0.0000
     27 C           6.8193   -6.2575   26.6024 C.ar    1  UNL1       -0.0003
     28 C           7.2195   -5.0078   25.8757 C.ar    1  UNL1       -0.0029
@<TRIPOS>BOND
     1     2     1    1
     2     2     3    1
     3     3     4    1
     4     4    22    1
     5    22    23    1
     6    23    24   ar
     7    24    25   ar
     8    25    26   ar
     9    26    27   ar
    10    27    28   ar
    11     4     5    1
    12     5     6    1
    13     6     7    1
    14     7     8    1
    15     8     9   ar
    16     9    10   ar
    17    10    16    1
    18    16    17   ar
    19    17    18   ar
    20    18    19   ar
    21    19    20   ar
    22    20    21   ar
    23    10    11   ar
    24    11    12   ar
    25    12    13    2
    26    12    14   ar
    27    14    15    1
    28     7     2    1
    29    14     8   ar
    30    28    23   ar
    31    21    16   ar
@<TRIPOS>MOLECULE
*****
 28 31 0 0 0
SMALL
GASTEIGER

@<TRIPOS>ATOM
      1 C           6.3240    0.5089   21.5709 C.3     1  UNL1        0.0230
      2 C           5.8895   -0.8185   22.1180 C.3     1  UNL1        0.0915
      3 C           6.6079   -1.4180   23.2904 C.3     1  UNL1        0.0924
      4 N           6.1735   -2.7453   23.8375 N.3     1  UNL1       -0.2660
      5 C           5.0206   -3.4732   23.2122 C.3     1  UNL1        0.0942
      6 C           4.3022   -2.8738   22.0398 C.3     1  UNL1        0.1108
      7 N           4.7367   -1.5464   21.4927 N.pl3   1  UNL1       -0.2783
      8 C           4.0182   -0.9470   20.3203 C.ar    1  UNL1        0.2035
      9 N           2.8878    0.0132   20.5444 N.ar    1  UNL1       -0.2133
     10 C           2.1693    0.6126   19.3720 C.ar    1  UNL1        0.1065
     11 C           2.5813    0.2519   17.9755 C.ar    1  UNL1        0.0815
     12 C           3.7118   -0.7082   17.7514 C.ar    1  UNL1        0.2646
     13 O           4.1238   -1.0689   16.3549 O.2     1  UNL1       -0.2668
     14 N           4.4302   -1.3076   18.9238 N.ar    1  UNL1       -0.2667
     15 C           5.5607   -2.2678   18.6997 C.3     1  UNL1        0.1363
     16 C           1.0389    1.5727   19.5961 C.ar    1  UNL1        0.1024
     17 C           0.3873    1.6627   20.9442 C.ar    1  UNL1        0.0414
     18 C          -0.7431    2.6228   21.1683 C.ar    1  UNL1        0.1023
     19 N          -1.2221    3.4930   20.0443 N.ar    1  UNL1       -0.2224
     20 C          -0.5705    3.4031   18.6962 C.ar    1  UNL1        0.1989
     21 N           0.5600    2.4430   18.4721 N.ar    1  UNL1       -0.2224
     22 C           6.8919   -3.3448   25.0099 C.3     1  UNL1        0.0992
     23 C           7.2822   -4.7930   24.9899 C.ar    1  UNL1       -0.0061
     24 C           8.0179   -5.3552   23.8097 C.ar    1  UNL1       -0.0029
     25 C           8.4081   -6.8034   23.7897 C.ar    1  UNL1       -0.0003
     26 C           8.0626   -7.6894   24.9498 C.ar    1  UNL1       -0.0000
     27 C           7.3269   -7.1272   26.1298 C.ar    1  UNL1       -0.0003
     28 C           6.9367   -5.6790   26.1499 C.ar    1  UNL1       -0.0029
@<TRIPOS>BOND
     1     2     1    1
     2     2     3    1
     3     3     4    1
     4     4    22    1
     5    22    23    1
     6    23    24   ar
     7    24    25   ar
     8    25    26   ar
     9    26    27   ar
    10    27    28   ar
    11     4     5    1
    12     5     6    1
    13     6     7    1
    14     7     8    1
    15     8     9   ar
    16     9    10   ar
    17    10    16    1
    18    16    17   ar
    19    17    18   ar
    20    18    19   ar
    21    19    20   ar
    22    20    21   ar
    23    10    11   ar
    24    11    12   ar
    25    12    13    2
    26    12    14   ar
    27    14    15    1
    28     7     2    1
    29    14     8   ar
    30    28    23   ar
    31    21    16   ar
@<TRIPOS>MOLECULE
*****
 28 31 0 0 0
SMALL
GASTEIGER

@<TRIPOS>ATOM
      1 C         -14.2007   -3.1579   21.2178 C.3     1  UNL1        0.0230
      2 C         -13.8339   -2.9480   19.7786 C.3     1  UNL1        0.0915
      3 C         -12.5703   -3.5435   19.2321 C.3     1  UNL1        0.0924
      4 N         -12.2035   -3.3337   17.7928 N.3     1  UNL1       -0.2660
      5 C         -13.1003   -2.5283   16.9001 C.3     1  UNL1        0.0942
      6 C         -14.3639   -1.9328   17.4465 C.3     1  UNL1        0.1108
      7 N         -14.7307   -2.1427   18.8858 N.pl3   1  UNL1       -0.2783
      8 C         -15.9944   -1.5471   19.4322 C.ar    1  UNL1        0.2035
      9 N         -15.9582   -0.2172   20.1252 N.ar    1  UNL1       -0.2133
     10 C         -17.2218    0.3783   20.6716 C.ar    1  UNL1        0.1065
     11 C         -18.5216   -0.3560   20.5252 C.ar    1  UNL1        0.0815
     12 C         -18.5577   -1.6858   19.8322 C.ar    1  UNL1        0.2646
     13 O         -19.8574   -2.4201   19.6857 O.2     1  UNL1       -0.2668
     14 N         -17.2941   -2.2814   19.2858 N.ar    1  UNL1       -0.2667
     15 C         -17.3302   -3.6113   18.5928 C.3     1  UNL1        0.1363
     16 C         -17.1856    1.7082   21.3646 C.ar    1  UNL1        0.1024
     17 C         -16.6538    2.9134   20.6473 C.ar    1  UNL1        0.0414
     18 C         -16.6176    4.2433   21.3403 C.ar    1  UNL1        0.1023
     19 N         -17.1133    4.3679   22.7505 N.ar    1  UNL1       -0.2224
     20 C         -17.6452    3.1626   23.4678 C.ar    1  UNL1        0.1989
     21 N         -17.6813    1.8328   22.7749 N.ar    1  UNL1       -0.2224
     22 C         -10.9399   -3.9293   17.2464 C.3     1  UNL1        0.0992
     23 C         -10.5076   -5.2987   17.6797 C.ar    1  UNL1       -0.0061
     24 C          -9.5867   -5.4582   18.8530 C.ar    1  UNL1       -0.0029
     25 C          -9.1545   -6.8277   19.2864 C.ar    1  UNL1       -0.0003
     26 C          -9.6431   -8.0376   18.5464 C.ar    1  UNL1       -0.0000
     27 C         -10.5640   -7.8780   17.3732 C.ar    1  UNL1       -0.0003
     28 C         -10.9962   -6.5086   16.9398 C.ar    1  UNL1       -0.0029
@<TRIPOS>BOND
     1     2     1    1
     2     2     3    1
     3     3     4    1
     4     4    22    1
     5    22    23    1
     6    23    24   ar
     7    24    25   ar
     8    25    26   ar
     9    26    27   ar
    10    27    28   ar
    11     4     5    1
    12     5     6    1
    13     6     7    1
    14     7     8    1
    15     8     9   ar
    16     9    10   ar
    17    10    16    1
    18    16    17   ar
    19    17    18   ar
    20    18    19   ar
    21    19    20   ar
    22    20    21   ar
    23    10    11   ar
    24    11    12   ar
    25    12    13    2
    26    12    14   ar
    27    14    15    1
    28     7     2    1
    29    14     8   ar
    30    28    23   ar
    31    21    16   ar
@<TRIPOS>MOLECULE
*****
 28 31 0 0 0
SMALL
GASTEIGER

@<TRIPOS>ATOM
      1 C           2.8067    3.2737   22.1725 C.3     1  UNL1        0.0230
      2 C           2.1917    2.2079   21.3147 C.3     1  UNL1        0.0915
      3 C           2.8760    1.7733   20.0527 C.3     1  UNL1        0.0924
      4 N           2.2609    0.7075   19.1948 N.3     1  UNL1       -0.2660
      5 C           0.9617    0.0763   19.5991 C.3     1  UNL1        0.0942
      6 C           0.2774    0.5109   20.8611 C.3     1  UNL1        0.1108
      7 N           0.8924    1.5767   21.7190 N.pl3   1  UNL1       -0.2783
      8 C           0.2081    2.0113   22.9811 C.ar    1  UNL1        0.2035
      9 N           0.5447    1.3477   24.2835 N.ar    1  UNL1       -0.2133
     10 C          -0.1396    1.7822   25.5456 C.ar    1  UNL1        0.1065
     11 C          -1.1605    2.8805   25.5053 C.ar    1  UNL1        0.0815
     12 C          -1.4971    3.5442   24.2029 C.ar    1  UNL1        0.2646
     13 O          -2.5180    4.6424   24.1626 O.2     1  UNL1       -0.2668
     14 N          -0.8128    3.1096   22.9408 N.ar    1  UNL1       -0.2667
     15 C          -1.1494    3.7732   21.6384 C.3     1  UNL1        0.1363
     16 C           0.1970    1.1185   26.8480 C.ar    1  UNL1        0.1024
     17 C          -0.8811    0.8583   27.8578 C.ar    1  UNL1        0.0414
     18 C          -0.5445    0.1947   29.1602 C.ar    1  UNL1        0.1023
     19 N           0.8702   -0.2088   29.4527 N.ar    1  UNL1       -0.2224
     20 C           1.9484    0.0514   28.4429 C.ar    1  UNL1        0.1989
     21 N           1.6119    0.7150   27.1405 N.ar    1  UNL1       -0.2224
     22 C           2.9453    0.2729   17.9327 C.3     1  UNL1        0.0992
     23 C           4.1749   -0.5834   18.0029 C.ar    1  UNL1       -0.0061
     24 C           4.0587   -2.0343   18.3655 C.ar    1  UNL1       -0.0029
     25 C           5.2883   -2.8906   18.4357 C.ar    1  UNL1       -0.0003
     26 C           6.6340   -2.2959   18.1433 C.ar    1  UNL1       -0.0000
     27 C           6.7501   -0.8451   17.7807 C.ar    1  UNL1       -0.0003
     28 C           5.5205    0.0112   17.7105 C.ar    1  UNL1       -0.0029
@<TRIPOS>BOND
     1     2     1    1
     2     2     3    1
     3     3     4    1
     4     4    22    1
     5    22    23    1
     6    23    24   ar
     7    24    25   ar
     8    25    26   ar
     9    26    27   ar
    10    27    28   ar
    11     4     5    1
    12     5     6    1
    13     6     7    1
    14     7     8    1
    15     8     9   ar
    16     9    10   ar
    17    10    16    1
    18    16    17   ar
    19    17    18   ar
    20    18    19   ar
    21    19    20   ar
    22    20    21   ar
    23    10    11   ar
    24    11    12   ar
    25    12    13    2
    26    12    14   ar
    27    14    15    1
    28     7     2    1
    29    14     8   ar
    30    28    23   ar
    31    21    16   ar
@<TRIPOS>MOLECULE
*****
 28 31 0 0 0
SMALL
GASTEIGER

@<TRIPOS>ATOM
      1 C           1.3889    3.9792   21.4947 C.3     1  UNL1        0.0230
      2 C           1.4049    2.5222   21.1387 C.3     1  UNL1        0.0915
      3 C           2.6275    1.6970   21.4111 C.3     1  UNL1        0.0924
      4 N           2.6435    0.2399   21.0552 N.3     1  UNL1       -0.2660
      5 C           1.4369   -0.3920   20.4268 C.3     1  UNL1        0.0942
      6 C           0.2143    0.4333   20.1544 C.3     1  UNL1        0.1108
      7 N           0.1983    1.8903   20.5104 N.pl3   1  UNL1       -0.2783
      8 C          -1.0243    2.7156   20.2379 C.ar    1  UNL1        0.2035
      9 N          -2.0842    2.8558   21.2901 N.ar    1  UNL1       -0.2133
     10 C          -3.3068    3.6810   21.0177 C.ar    1  UNL1        0.1065
     11 C          -3.4696    4.3659   19.6931 C.ar    1  UNL1        0.0815
     12 C          -2.4098    4.2257   18.6410 C.ar    1  UNL1        0.2646
     13 O          -2.5725    4.9106   17.3165 O.2     1  UNL1       -0.2668
     14 N          -1.1871    3.4005   18.9134 N.ar    1  UNL1       -0.2667
     15 C          -0.1272    3.2602   17.8613 C.3     1  UNL1        0.1363
     16 C          -4.3667    3.8213   22.0698 C.ar    1  UNL1        0.1024
     17 C          -4.0276    3.5867   23.5120 C.ar    1  UNL1        0.0414
     18 C          -5.0875    3.7270   24.5641 C.ar    1  UNL1        0.1023
     19 N          -6.4865    4.1018   24.1741 N.ar    1  UNL1       -0.2224
     20 C          -6.8257    4.3364   22.7318 C.ar    1  UNL1        0.1989
     21 N          -5.7658    4.1961   21.6797 N.ar    1  UNL1       -0.2224
     22 C           3.8662   -0.5853   21.3276 C.3     1  UNL1        0.0992
     23 C           4.1794   -1.7701   20.4626 C.ar    1  UNL1       -0.0061
     24 C           4.7601   -1.5672   19.0945 C.ar    1  UNL1       -0.0029
     25 C           5.0734   -2.7520   18.2295 C.ar    1  UNL1       -0.0003
     26 C           4.8059   -4.1396   18.7326 C.ar    1  UNL1       -0.0000
     27 C           4.2252   -4.3424   20.1006 C.ar    1  UNL1       -0.0003
     28 C           3.9119   -3.1576   20.9656 C.ar    1  UNL1       -0.0029
@<TRIPOS>BOND
     1     2     1    1
     2     2     3    1
     3     3     4    1
     4     4    22    1
     5    22    23    1
     6    23    24   ar
     7    24    25   ar
     8    25    26   ar
     9    26    27   ar
    10    27    28   ar
    11     4     5    1
    12     5     6    1
    13     6     7    1
    14     7     8    1
    15     8     9   ar
    16     9    10   ar
    17    10    16    1
    18    16    17   ar
    19    17    18   ar
    20    18    19   ar
    21    19    20   ar
    22    20    21   ar
    23    10    11   ar
    24    11    12   ar
    25    12    13    2
    26    12    14   ar
    27    14    15    1
    28     7     2    1
    29    14     8   ar
    30    28    23   ar
    31    21    16   ar
@<TRIPOS>MOLECULE
*****
 28 31 0 0 0
SMALL
GASTEIGER

@<TRIPOS>ATOM
      1 C         -14.4140   -2.9820   16.1991 C.3     1  UNL1        0.0230
      2 C         -14.8181   -2.3099   17.4778 C.3     1  UNL1        0.0915
      3 C         -15.4443   -0.9473   17.4434 C.3     1  UNL1        0.0924
      4 N         -15.8484   -0.2752   18.7221 N.3     1  UNL1       -0.2660
      5 C         -15.6262   -0.9656   20.0351 C.3     1  UNL1        0.0942
      6 C         -15.0000   -2.3282   20.0694 C.3     1  UNL1        0.1108
      7 N         -14.5959   -3.0003   18.7907 N.pl3   1  UNL1       -0.2783
      8 C         -13.9697   -4.3629   18.8251 C.ar    1  UNL1        0.2035
      9 N         -14.8370   -5.5865   18.8487 N.ar    1  UNL1       -0.2133
     10 C         -14.2109   -6.9491   18.8831 C.ar    1  UNL1        0.1065
     11 C         -12.7173   -7.0882   18.8938 C.ar    1  UNL1        0.0815
     12 C         -11.8500   -5.8646   18.8701 C.ar    1  UNL1        0.2646
     13 O         -10.3565   -6.0036   18.8809 O.2     1  UNL1       -0.2668
     14 N         -12.4762   -4.5019   18.8358 N.ar    1  UNL1       -0.2667
     15 C         -11.6089   -3.2783   18.8121 C.3     1  UNL1        0.1363
     16 C         -15.0782   -8.1727   18.9067 C.ar    1  UNL1        0.1024
     17 C         -16.3559   -8.1713   19.6925 C.ar    1  UNL1        0.0414
     18 C         -17.2232   -9.3949   19.7162 C.ar    1  UNL1        0.1023
     19 N         -16.8128  -10.6199   18.9540 N.ar    1  UNL1       -0.2224
     20 C         -15.5351  -10.6214   18.1682 C.ar    1  UNL1        0.1989
     21 N         -14.6678   -9.3978   18.1446 N.ar    1  UNL1       -0.2224
     22 C         -16.4746    1.0875   18.6877 C.3     1  UNL1        0.0992
     23 C         -16.4834    1.9402   19.9218 C.ar    1  UNL1       -0.0061
     24 C         -17.3501    1.5643   21.0870 C.ar    1  UNL1       -0.0029
     25 C         -17.3590    2.4169   22.3210 C.ar    1  UNL1       -0.0003
     26 C         -16.5010    3.6455   22.3899 C.ar    1  UNL1       -0.0000
     27 C         -15.6344    4.0213   21.2247 C.ar    1  UNL1       -0.0003
     28 C         -15.6255    3.1687   19.9907 C.ar    1  UNL1       -0.0029
@<TRIPOS>BOND
     1     2     1    1
     2     2     3    1
     3     3     4    1
     4     4    22    1
     5    22    23    1
     6    23    24   ar
     7    24    25   ar
     8    25    26   ar
     9    26    27   ar
    10    27    28   ar
    11     4     5    1
    12     5     6    1
    13     6     7    1
    14     7     8    1
    15     8     9   ar
    16     9    10   ar
    17    10    16    1
    18    16    17   ar
    19    17    18   ar
    20    18    19   ar
    21    19    20   ar
    22    20    21   ar
    23    10    11   ar
    24    11    12   ar
    25    12    13    2
    26    12    14   ar
    27    14    15    1
    28     7     2    1
    29    14     8   ar
    30    28    23   ar
    31    21    16   ar
@<TRIPOS>MOLECULE
*****
 28 31 0 0 0
SMALL
GASTEIGER

@<TRIPOS>ATOM
      1 C           6.2347    1.0387   30.9972 C.3     1  UNL1        0.0230
      2 C           6.0797   -0.3568   31.5250 C.3     1  UNL1        0.0915
      3 C           7.2282   -1.3187   31.4503 C.3     1  UNL1        0.0924
      4 N           7.0733   -2.7142   31.9782 N.3     1  UNL1       -0.2660
      5 C           5.7698   -3.1478   32.5807 C.3     1  UNL1        0.0942
      6 C           4.6214   -2.1858   32.6554 C.3     1  UNL1        0.1108
      7 N           4.7763   -0.7903   32.1276 N.pl3   1  UNL1       -0.2783
      8 C           3.6277    0.1716   32.2023 C.ar    1  UNL1        0.2035
      9 N           2.7178    0.3463   31.0227 N.ar    1  UNL1       -0.2133
     10 C           1.5693    1.3082   31.0974 C.ar    1  UNL1        0.1065
     11 C           1.3307    2.0955   32.3517 C.ar    1  UNL1        0.0815
     12 C           2.2406    1.9208   33.5313 C.ar    1  UNL1        0.2646
     13 O           2.0020    2.7081   34.7856 O.2     1  UNL1       -0.2668
     14 N           3.3892    0.9589   33.4566 N.ar    1  UNL1       -0.2667
     15 C           4.2991    0.7842   34.6362 C.3     1  UNL1        0.1363
     16 C           0.6594    1.4829   29.9177 C.ar    1  UNL1        0.1024
     17 C           0.7959    2.6896   29.0374 C.ar    1  UNL1        0.0414
     18 C          -0.1140    2.8643   27.8578 C.ar    1  UNL1        0.1023
     19 N          -1.1605    1.8322   27.5585 N.ar    1  UNL1       -0.2224
     20 C          -1.2971    0.6254   28.4389 C.ar    1  UNL1        0.1989
     21 N          -0.3872    0.4507   29.6185 N.ar    1  UNL1       -0.2224
     22 C           8.2218   -3.6762   31.9034 C.3     1  UNL1        0.0992
     23 C           8.2342   -4.7495   30.8557 C.ar    1  UNL1       -0.0061
     24 C           9.2398   -5.8600   30.9314 C.ar    1  UNL1       -0.0029
     25 C           9.2521   -6.9334   29.8837 C.ar    1  UNL1       -0.0003
     26 C           8.2589   -6.8962   28.7602 C.ar    1  UNL1       -0.0000
     27 C           7.2534   -5.7857   28.6845 C.ar    1  UNL1       -0.0003
     28 C           7.2410   -4.7124   29.7322 C.ar    1  UNL1       -0.0029
@<TRIPOS>BOND
     1     2     1    1
     2     2     3    1
     3     3     4    1
     4     4    22    1
     5    22    23    1
     6    23    24   ar
     7    24    25   ar
     8    25    26   ar
     9    26    27   ar
    10    27    28   ar
    11     4     5    1
    12     5     6    1
    13     6     7    1
    14     7     8    1
    15     8     9   ar
    16     9    10   ar
    17    10    16    1
    18    16    17   ar
    19    17    18   ar
    20    18    19   ar
    21    19    20   ar
    22    20    21   ar
    23    10    11   ar
    24    11    12   ar
    25    12    13    2
    26    12    14   ar
    27    14    15    1
    28     7     2    1
    29    14     8   ar
    30    28    23   ar
    31    21    16   ar
@<TRIPOS>MOLECULE
*****
 28 31 0 0 0
SMALL
GASTEIGER

@<TRIPOS>ATOM
      1 C           0.8876    3.5863   32.4950 C.3     1  UNL1        0.0230
      2 C           1.4459    2.3131   31.9317 C.3     1  UNL1        0.0915
      3 C           0.9187    1.7715   30.6361 C.3     1  UNL1        0.0924
      4 N           1.4770    0.4983   30.0729 N.3     1  UNL1       -0.2660
      5 C           2.5625   -0.2333   30.8052 C.3     1  UNL1        0.0942
      6 C           3.0897    0.3083   32.1008 C.3     1  UNL1        0.1108
      7 N           2.5314    1.5815   32.6641 N.pl3   1  UNL1       -0.2783
      8 C           3.0587    2.1231   33.9598 C.ar    1  UNL1        0.2035
      9 N           2.3708    1.7853   35.2492 N.ar    1  UNL1       -0.2133
     10 C           2.8980    2.3268   36.5448 C.ar    1  UNL1        0.1065
     11 C           4.1132    3.2063   36.5511 C.ar    1  UNL1        0.0815
     12 C           4.8011    3.5441   35.2617 C.ar    1  UNL1        0.2646
     13 O           6.0162    4.4235   35.2679 O.2     1  UNL1       -0.2668
     14 N           4.2738    3.0025   33.9660 N.ar    1  UNL1       -0.2667
     15 C           4.9617    3.3403   32.6765 C.3     1  UNL1        0.1363
     16 C           2.2100    1.9890   37.8343 C.ar    1  UNL1        0.1024
     17 C           2.5826    0.7412   38.5786 C.ar    1  UNL1        0.0414
     18 C           1.8947    0.4033   39.8680 C.ar    1  UNL1        0.1023
     19 N           0.8342    1.3133   40.4131 N.ar    1  UNL1       -0.2224
     20 C           0.4616    2.5612   39.6688 C.ar    1  UNL1        0.1989
     21 N           1.1495    2.8991   38.3794 N.ar    1  UNL1       -0.2224
     22 C           0.9497   -0.0433   28.7772 C.3     1  UNL1        0.0992
     23 C           0.7187    0.8793   27.6172 C.ar    1  UNL1       -0.0061
     24 C          -0.6665    1.3668   27.3110 C.ar    1  UNL1       -0.0029
     25 C          -0.8975    2.2894   26.1510 C.ar    1  UNL1       -0.0003
     26 C           0.2567    2.7246   25.2974 C.ar    1  UNL1       -0.0000
     27 C           1.6418    2.2371   25.6037 C.ar    1  UNL1       -0.0003
     28 C           1.8728    1.3145   26.7636 C.ar    1  UNL1       -0.0029
@<TRIPOS>BOND
     1     2     1    1
     2     2     3    1
     3     3     4    1
     4     4    22    1
     5    22    23    1
     6    23    24   ar
     7    24    25   ar
     8    25    26   ar
     9    26    27   ar
    10    27    28   ar
    11     4     5    1
    12     5     6    1
    13     6     7    1
    14     7     8    1
    15     8     9   ar
    16     9    10   ar
    17    10    16    1
    18    16    17   ar
    19    17    18   ar
    20    18    19   ar
    21    19    20   ar
    22    20    21   ar
    23    10    11   ar
    24    11    12   ar
    25    12    13    2
    26    12    14   ar
    27    14    15    1
    28     7     2    1
    29    14     8   ar
    30    28    23   ar
    31    21    16   ar
@<TRIPOS>MOLECULE
*****
 28 31 0 0 0
SMALL
GASTEIGER

@<TRIPOS>ATOM
      1 C           2.4310    0.9838   32.1880 C.3     1  UNL1        0.0230
      2 C           3.4072    1.4337   33.2343 C.3     1  UNL1        0.0915
      3 C           2.9131    2.1003   34.4838 C.3     1  UNL1        0.0924
      4 N           3.8893    2.5502   35.5301 N.3     1  UNL1       -0.2660
      5 C           5.3596    2.3334   35.3268 C.3     1  UNL1        0.0942
      6 C           5.8536    1.6668   34.0773 C.3     1  UNL1        0.1108
      7 N           4.8774    1.2169   33.0310 N.pl3   1  UNL1       -0.2783
      8 C           5.3716    0.5503   31.7814 C.ar    1  UNL1        0.2035
      9 N           5.6525   -0.9232   31.7783 N.ar    1  UNL1       -0.2133
     10 C           6.1466   -1.5899   30.5287 C.ar    1  UNL1        0.1065
     11 C           6.3598   -0.7831   29.2822 C.ar    1  UNL1        0.0815
     12 C           6.0789    0.6904   29.2853 C.ar    1  UNL1        0.2646
     13 O           6.2920    1.4972   28.0389 O.2     1  UNL1       -0.2668
     14 N           5.5847    1.3570   30.5349 N.ar    1  UNL1       -0.2667
     15 C           5.3038    2.8305   30.5380 C.3     1  UNL1        0.1363
     16 C           6.4276   -3.0633   30.5256 C.ar    1  UNL1        0.1024
     17 C           6.5973   -3.7972   31.8228 C.ar    1  UNL1        0.0414
     18 C           6.8783   -5.2706   31.8197 C.ar    1  UNL1        0.1023
     19 N           6.9895   -6.0102   30.5194 N.ar    1  UNL1       -0.2224
     20 C           6.8198   -5.2763   29.2222 C.ar    1  UNL1        0.1989
     21 N           6.5388   -3.8029   29.2253 N.ar    1  UNL1       -0.2224
     22 C           3.3952    3.2169   36.7797 C.3     1  UNL1        0.0992
     23 C           2.5074    2.4676   37.7287 C.ar    1  UNL1       -0.0061
     24 C           2.8606    1.0690   38.1403 C.ar    1  UNL1       -0.0029
     25 C           1.9729    0.3198   39.0893 C.ar    1  UNL1       -0.0003
     26 C           0.7319    0.9691   39.6266 C.ar    1  UNL1       -0.0000
     27 C           0.3788    2.3676   39.2149 C.ar    1  UNL1       -0.0003
     28 C           1.2666    3.1168   38.2660 C.ar    1  UNL1       -0.0029
@<TRIPOS>BOND
     1     2     1    1
     2     2     3    1
     3     3     4    1
     4     4    22    1
     5    22    23    1
     6    23    24   ar
     7    24    25   ar
     8    25    26   ar
     9    26    27   ar
    10    27    28   ar
    11     4     5    1
    12     5     6    1
    13     6     7    1
    14     7     8    1
    15     8     9   ar
    16     9    10   ar
    17    10    16    1
    18    16    17   ar
    19    17    18   ar
    20    18    19   ar
    21    19    20   ar
    22    20    21   ar
    23    10    11   ar
    24    11    12   ar
    25    12    13    2
    26    12    14   ar
    27    14    15    1
    28     7     2    1
    29    14     8   ar
    30    28    23   ar
    31    21    16   ar
