@<TRIPOS>MOLECULE
*****
 26 29 0 0 0
SMALL
GASTEIGER

@<TRIPOS>ATOM
      1 C          -6.3150  -19.4302   22.0335 C.ar    1  UNL1        0.2595
      2 N          -6.0153  -18.0068   22.3995 N.ar    1  UNL1       -0.1932
      3 C          -4.5799  -17.9309   22.8283 C.ar    1  UNL1        0.1809
      4 N          -3.9925  -19.3074   22.7273 N.ar    1  UNL1       -0.0605
      5 O          -5.0649  -20.2340   22.2361 O.2     1  UNL1       -0.3353
      6 C          -7.6334  -19.9573   21.5499 C.3     1  UNL1        0.1984
      7 C         -12.3966  -16.5215   21.0021 C.3     1  UNL1        0.1322
      8 N         -12.2643  -17.3995   22.2110 N.ar    1  UNL1       -0.3020
      9 C         -13.2489  -17.5024   23.3379 C.ar    1  UNL1        0.1803
     10 N         -12.7174  -18.4954   24.3287 N.ar    1  UNL1       -0.2047
     11 C         -11.4043  -19.0062   23.8140 C.ar    1  UNL1        0.1861
     12 N         -10.4273  -20.0005   24.3681 N.ar    1  UNL1       -0.2046
     13 C          -9.1704  -20.3175   23.6133 C.ar    1  UNL1        0.1828
     14 N          -8.8904  -19.6402   22.3046 N.ar    1  UNL1       -0.2675
     15 C          -9.8674  -18.6459   21.7505 C.ar    1  UNL1        0.2814
     16 O          -9.5873  -17.9686   20.4417 O.2     1  UNL1       -0.2652
     17 C         -11.1243  -18.3289   22.5053 C.ar    1  UNL1        0.1543
     18 C          -3.8585  -16.6953   23.2790 C.3     1  UNL1        0.0739
     19 C          -4.6247  -15.4322   23.5389 C.3     1  UNL1        0.0344
     20 C          -5.6827  -15.4022   24.6018 C.ar    1  UNL1       -0.0217
     21 C          -5.3020  -15.5639   26.0436 C.ar    1  UNL1       -0.0034
     22 C          -6.3600  -15.5339   27.1066 C.ar    1  UNL1        0.0111
     23 C          -7.7986  -15.3422   26.7277 C.ar    1  UNL1        0.0577
     24 CL         -8.8566  -15.3121   27.7906 Cl      1  UNL1       -0.0822
     25 C          -8.1792  -15.1805   25.2858 C.ar    1  UNL1        0.0111
     26 C          -7.1213  -15.2105   24.2229 C.ar    1  UNL1       -0.0034
@<TRIPOS>BOND
     1     7     8    1
     2     8     9   ar
     3     9    10   ar
     4    10    11   ar
     5    11    12   ar
     6    12    13   ar
     7    13    14   ar
     8    14     6    1
     9     6     1    1
    10     1     2   ar
    11     2     3   ar
    12     3    18    1
    13    18    19    1
    14    19    20    1
    15    20    21   ar
    16    21    22   ar
    17    22    23   ar
    18    23    24    1
    19    23    25   ar
    20    25    26   ar
    21     3     4   ar
    22     4     5   ar
    23    14    15   ar
    24    15    16    2
    25    15    17   ar
    26    17     8   ar
    27    17    11   ar
    28     5     1   ar
    29    26    20   ar
@<TRIPOS>MOLECULE
*****
 26 29 0 0 0
SMALL
GASTEIGER

@<TRIPOS>ATOM
      1 C          -5.7328  -19.6665   21.4764 C.ar    1  UNL1        0.2595
      2 N          -5.7372  -18.4312   22.3271 N.ar    1  UNL1       -0.1932
      3 C          -4.3121  -18.0386   22.5818 C.ar    1  UNL1        0.1809
      4 N          -3.4269  -19.0314   21.8885 N.ar    1  UNL1       -0.0605
      5 O          -4.3049  -20.0375   21.2053 O.2     1  UNL1       -0.3353
      6 C          -6.9436  -20.4019   20.9834 C.3     1  UNL1        0.1984
      7 C         -11.4896  -18.8190   24.3923 C.3     1  UNL1        0.1322
      8 N         -11.5125  -18.4671   22.9343 N.ar    1  UNL1       -0.3020
      9 C         -12.6071  -17.7287   22.2226 C.ar    1  UNL1        0.1803
     10 N         -12.2159  -17.5971   20.7805 N.ar    1  UNL1       -0.2047
     11 C         -10.8795  -18.2542   20.6009 C.ar    1  UNL1        0.1861
     12 N         -10.0023  -18.4324   19.3973 N.ar    1  UNL1       -0.2046
     13 C          -8.6904  -19.1483   19.5248 C.ar    1  UNL1        0.1828
     14 N          -8.2556  -19.6860   20.8559 N.ar    1  UNL1       -0.2675
     15 C          -9.1329  -19.5078   22.0596 C.ar    1  UNL1        0.2814
     16 O          -8.6980  -20.0455   23.3907 O.2     1  UNL1       -0.2652
     17 C         -10.4448  -18.7919   21.9321 C.ar    1  UNL1        0.1543
     18 C          -3.8528  -16.8601   23.3882 C.3     1  UNL1        0.0739
     19 C          -4.7109  -15.6331   23.4790 C.3     1  UNL1        0.0344
     20 C          -5.7459  -15.5200   24.5587 C.ar    1  UNL1       -0.0217
     21 C          -7.2004  -15.4491   24.1989 C.ar    1  UNL1       -0.0034
     22 C          -8.2355  -15.3359   25.2787 C.ar    1  UNL1        0.0111
     23 C          -7.8160  -15.2937   26.7183 C.ar    1  UNL1        0.0577
     24 CL         -8.8510  -15.1805   27.7981 Cl      1  UNL1       -0.0822
     25 C          -6.3615  -15.3646   27.0780 C.ar    1  UNL1        0.0111
     26 C          -5.3264  -15.4777   25.9983 C.ar    1  UNL1       -0.0034
@<TRIPOS>BOND
     1     7     8    1
     2     8     9   ar
     3     9    10   ar
     4    10    11   ar
     5    11    12   ar
     6    12    13   ar
     7    13    14   ar
     8    14     6    1
     9     6     1    1
    10     1     2   ar
    11     2     3   ar
    12     3    18    1
    13    18    19    1
    14    19    20    1
    15    20    21   ar
    16    21    22   ar
    17    22    23   ar
    18    23    24    1
    19    23    25   ar
    20    25    26   ar
    21     3     4   ar
    22     4     5   ar
    23    14    15   ar
    24    15    16    2
    25    15    17   ar
    26    17     8   ar
    27    17    11   ar
    28     5     1   ar
    29    26    20   ar
@<TRIPOS>MOLECULE
*****
 26 29 0 0 0
SMALL
GASTEIGER

@<TRIPOS>ATOM
      1 C          -7.6150  -19.6166   21.3318 C.ar    1  UNL1        0.2595
      2 N          -8.9349  -19.7294   22.0352 N.ar    1  UNL1       -0.1932
      3 C          -9.9829  -19.1147   21.1555 C.ar    1  UNL1        0.1809
      4 N          -9.3106  -18.6220   19.9084 N.ar    1  UNL1       -0.0605
      5 O          -7.8471  -18.9322   20.0174 O.2     1  UNL1       -0.3353
      6 C          -6.2946  -20.1029   21.8516 C.3     1  UNL1        0.1984
      7 C          -2.0800  -15.9781   21.9789 C.3     1  UNL1        0.1322
      8 N          -1.9935  -17.0799   20.9647 N.ar    1  UNL1       -0.3020
      9 C          -0.9109  -17.2529   19.9410 C.ar    1  UNL1        0.1803
     10 N          -1.2227  -18.4820   19.1397 N.ar    1  UNL1       -0.2047
     11 C          -2.4981  -19.0686   19.6682 C.ar    1  UNL1        0.1861
     12 N          -3.2872  -20.2799   19.2681 N.ar    1  UNL1       -0.2046
     13 C          -4.5527  -20.6246   19.9959 C.ar    1  UNL1        0.1828
     14 N          -5.0290  -19.7581   21.1238 N.ar    1  UNL1       -0.2675
     15 C          -4.2399  -18.5468   21.5239 C.ar    1  UNL1        0.2814
     16 O          -4.7164  -17.6802   22.6518 O.2     1  UNL1       -0.2652
     17 C          -2.9745  -18.2020   20.7961 C.ar    1  UNL1        0.1543
     18 C         -11.4464  -19.0109   21.4680 C.3     1  UNL1        0.0739
     19 C         -11.9047  -18.2247   22.6605 C.3     1  UNL1        0.0344
     20 C         -10.9015  -17.7074   23.6483 C.ar    1  UNL1       -0.0217
     21 C         -10.5355  -18.5315   24.8470 C.ar    1  UNL1       -0.0034
     22 C          -9.5323  -18.0142   25.8350 C.ar    1  UNL1        0.0111
     23 C          -8.8951  -16.6727   25.6242 C.ar    1  UNL1        0.0577
     24 CL         -7.8919  -16.1553   26.6120 Cl      1  UNL1       -0.0822
     25 C          -9.2611  -15.8486   24.4254 C.ar    1  UNL1        0.0111
     26 C         -10.2643  -16.3659   23.4375 C.ar    1  UNL1       -0.0034
@<TRIPOS>BOND
     1     7     8    1
     2     8     9   ar
     3     9    10   ar
     4    10    11   ar
     5    11    12   ar
     6    12    13   ar
     7    13    14   ar
     8    14     6    1
     9     6     1    1
    10     1     2   ar
    11     2     3   ar
    12     3    18    1
    13    18    19    1
    14    19    20    1
    15    20    21   ar
    16    21    22   ar
    17    22    23   ar
    18    23    24    1
    19    23    25   ar
    20    25    26   ar
    21     3     4   ar
    22     4     5   ar
    23    14    15   ar
    24    15    16    2
    25    15    17   ar
    26    17     8   ar
    27    17    11   ar
    28     5     1   ar
    29    26    20   ar
@<TRIPOS>MOLECULE
*****
 26 29 0 0 0
SMALL
GASTEIGER

@<TRIPOS>ATOM
      1 C          -7.5180  -19.4904   21.6657 C.ar    1  UNL1        0.2595
      2 N          -8.4141  -19.0212   22.7733 N.ar    1  UNL1       -0.1932
      3 C          -9.5552  -18.2666   22.1581 C.ar    1  UNL1        0.1809
      4 N          -9.3643  -18.2695   20.6703 N.ar    1  UNL1       -0.0605
      5 O          -8.1053  -19.0258   20.3660 O.2     1  UNL1       -0.3353
      6 C          -6.2562  -20.2847   21.8292 C.3     1  UNL1        0.1984
      7 C          -2.1746  -16.0296   21.9937 C.3     1  UNL1        0.1322
      8 N          -2.0699  -17.1024   20.9505 N.ar    1  UNL1       -0.3020
      9 C          -0.9996  -17.2147   19.9056 C.ar    1  UNL1        0.1803
     10 N          -1.2853  -18.4330   19.0785 N.ar    1  UNL1       -0.2047
     11 C          -2.5321  -19.0737   19.6122 C.ar    1  UNL1        0.1861
     12 N          -3.2885  -20.2997   19.1942 N.ar    1  UNL1       -0.2046
     13 C          -4.5299  -20.7033   19.9332 C.ar    1  UNL1        0.1828
     14 N          -5.0148  -19.8810   21.0901 N.ar    1  UNL1       -0.2675
     15 C          -4.2583  -18.6550   21.5082 C.ar    1  UNL1        0.2814
     16 O          -4.7433  -17.8327   22.6652 O.2     1  UNL1       -0.2652
     17 C          -3.0170  -18.2514   20.7692 C.ar    1  UNL1        0.1543
     18 C         -10.6884  -17.6222   22.9004 C.3     1  UNL1        0.0739
     19 C         -10.4794  -16.3094   23.5953 C.3     1  UNL1        0.0344
     20 C          -9.1483  -15.9885   24.2076 C.ar    1  UNL1       -0.0217
     21 C          -8.0262  -15.4918   23.3449 C.ar    1  UNL1       -0.0034
     22 C          -6.6949  -15.1709   23.9572 C.ar    1  UNL1        0.0111
     23 C          -6.4858  -15.3467   25.4321 C.ar    1  UNL1        0.0577
     24 CL         -5.1546  -15.0258   26.0444 Cl      1  UNL1       -0.0822
     25 C          -7.6079  -15.8435   26.2947 C.ar    1  UNL1        0.0111
     26 C          -8.9391  -16.1644   25.6825 C.ar    1  UNL1       -0.0034
@<TRIPOS>BOND
     1     7     8    1
     2     8     9   ar
     3     9    10   ar
     4    10    11   ar
     5    11    12   ar
     6    12    13   ar
     7    13    14   ar
     8    14     6    1
     9     6     1    1
    10     1     2   ar
    11     2     3   ar
    12     3    18    1
    13    18    19    1
    14    19    20    1
    15    20    21   ar
    16    21    22   ar
    17    22    23   ar
    18    23    24    1
    19    23    25   ar
    20    25    26   ar
    21     3     4   ar
    22     4     5   ar
    23    14    15   ar
    24    15    16    2
    25    15    17   ar
    26    17     8   ar
    27    17    11   ar
    28     5     1   ar
    29    26    20   ar
@<TRIPOS>MOLECULE
*****
 26 29 0 0 0
SMALL
GASTEIGER

@<TRIPOS>ATOM
      1 C          -7.4134  -19.6333   21.1777 C.ar    1  UNL1        0.2595
      2 N          -8.7164  -19.8187   21.8971 N.ar    1  UNL1       -0.1932
      3 C          -9.8075  -19.2635   21.0304 C.ar    1  UNL1        0.1809
      4 N          -9.1787  -18.7348   19.7753 N.ar    1  UNL1       -0.0605
      5 O          -7.6991  -18.9634   19.8663 O.2     1  UNL1       -0.3353
      6 C          -6.0618  -20.0454   21.6811 C.3     1  UNL1        0.1984
      7 C          -1.4625  -18.1806   18.4934 C.3     1  UNL1        0.1322
      8 N          -1.7346  -17.5450   19.8245 N.ar    1  UNL1       -0.3020
      9 C          -0.9338  -16.4453   20.4566 C.ar    1  UNL1        0.1803
     10 N          -1.5595  -16.1180   21.7800 N.ar    1  UNL1       -0.2047
     11 C          -2.7469  -17.0154   21.9659 C.ar    1  UNL1        0.1861
     12 N          -3.7437  -17.1435   23.0795 N.ar    1  UNL1       -0.2046
     13 C          -4.8486  -18.1535   22.9845 C.ar    1  UNL1        0.1828
     14 N          -4.9568  -19.0353   21.7761 N.ar    1  UNL1       -0.2675
     15 C          -3.9601  -18.9073   20.6624 C.ar    1  UNL1        0.2814
     16 O          -4.0684  -19.7892   19.4539 O.2     1  UNL1       -0.2652
     17 C          -2.8551  -17.8973   20.7574 C.ar    1  UNL1        0.1543
     18 C         -11.2705  -19.2408   21.3608 C.3     1  UNL1        0.0739
     19 C         -11.7840  -18.3215   22.4291 C.3     1  UNL1        0.0344
     20 C         -10.8516  -17.8016   23.4828 C.ar    1  UNL1       -0.0217
     21 C         -10.2191  -16.4508   23.3241 C.ar    1  UNL1       -0.0034
     22 C          -9.2866  -15.9307   24.3777 C.ar    1  UNL1        0.0111
     23 C          -8.9867  -16.7615   25.5901 C.ar    1  UNL1        0.0577
     24 CL         -8.0543  -16.2416   26.6438 Cl      1  UNL1       -0.0822
     25 C          -9.6193  -18.1124   25.7488 C.ar    1  UNL1        0.0111
     26 C         -10.5517  -18.6324   24.6951 C.ar    1  UNL1       -0.0034
@<TRIPOS>BOND
     1     7     8    1
     2     8     9   ar
     3     9    10   ar
     4    10    11   ar
     5    11    12   ar
     6    12    13   ar
     7    13    14   ar
     8    14     6    1
     9     6     1    1
    10     1     2   ar
    11     2     3   ar
    12     3    18    1
    13    18    19    1
    14    19    20    1
    15    20    21   ar
    16    21    22   ar
    17    22    23   ar
    18    23    24    1
    19    23    25   ar
    20    25    26   ar
    21     3     4   ar
    22     4     5   ar
    23    14    15   ar
    24    15    16    2
    25    15    17   ar
    26    17     8   ar
    27    17    11   ar
    28     5     1   ar
    29    26    20   ar
@<TRIPOS>MOLECULE
*****
 26 29 0 0 0
SMALL
GASTEIGER

@<TRIPOS>ATOM
      1 C          -7.4128  -19.8803   22.2982 C.ar    1  UNL1        0.2595
      2 N          -8.2344  -18.6648   21.9864 N.ar    1  UNL1       -0.1932
      3 C          -9.5153  -18.7598   22.7611 C.ar    1  UNL1        0.1809
      4 N          -9.4854  -20.0342   23.5518 N.ar    1  UNL1       -0.0605
      5 O          -8.1859  -20.7267   23.2657 O.2     1  UNL1       -0.3353
      6 C          -6.0563  -20.1945   21.7405 C.3     1  UNL1        0.1984
      7 C          -1.5954  -18.1718   18.4539 C.3     1  UNL1        0.1322
      8 N          -1.8192  -17.5911   19.8187 N.ar    1  UNL1       -0.3020
      9 C          -1.0009  -16.5112   20.4624 C.ar    1  UNL1        0.1803
     10 N          -1.5765  -16.2409   21.8209 N.ar    1  UNL1       -0.2047
     11 C          -2.7506  -17.1537   22.0168 C.ar    1  UNL1        0.1861
     12 N          -3.7025  -17.3329   23.1622 N.ar    1  UNL1       -0.2046
     13 C          -4.8044  -18.3465   23.0700 C.ar    1  UNL1        0.1828
     14 N          -4.9543  -19.1808   21.8327 N.ar    1  UNL1       -0.2675
     15 C          -4.0024  -19.0017   20.6873 C.ar    1  UNL1        0.2814
     16 O          -4.1524  -19.8362   19.4498 O.2     1  UNL1       -0.2652
     17 C          -2.9005  -17.9881   20.7794 C.ar    1  UNL1        0.1543
     18 C         -10.6305  -17.7566   22.7476 C.3     1  UNL1        0.0739
     19 C         -10.4140  -16.3869   23.3195 C.3     1  UNL1        0.0344
     20 C          -9.1221  -16.0565   24.0062 C.ar    1  UNL1       -0.0217
     21 C          -8.9840  -16.2661   25.4851 C.ar    1  UNL1       -0.0034
     22 C          -7.6919  -15.9357   26.1720 C.ar    1  UNL1        0.0111
     23 C          -6.5382  -15.3958   25.3800 C.ar    1  UNL1        0.0577
     24 CL         -5.2462  -15.0655   26.0668 Cl      1  UNL1       -0.0822
     25 C          -6.6764  -15.1863   23.9011 C.ar    1  UNL1        0.0111
     26 C          -7.9683  -15.5166   23.2142 C.ar    1  UNL1       -0.0034
@<TRIPOS>BOND
     1     7     8    1
     2     8     9   ar
     3     9    10   ar
     4    10    11   ar
     5    11    12   ar
     6    12    13   ar
     7    13    14   ar
     8    14     6    1
     9     6     1    1
    10     1     2   ar
    11     2     3   ar
    12     3    18    1
    13    18    19    1
    14    19    20    1
    15    20    21   ar
    16    21    22   ar
    17    22    23   ar
    18    23    24    1
    19    23    25   ar
    20    25    26   ar
    21     3     4   ar
    22     4     5   ar
    23    14    15   ar
    24    15    16    2
    25    15    17   ar
    26    17     8   ar
    27    17    11   ar
    28     5     1   ar
    29    26    20   ar
@<TRIPOS>MOLECULE
*****
 26 29 0 0 0
SMALL
GASTEIGER

@<TRIPOS>ATOM
      1 C          -8.7277  -19.8505   22.2446 C.ar    1  UNL1        0.2595
      2 N         -10.0006  -19.1334   22.5841 N.ar    1  UNL1       -0.1932
      3 C         -10.4168  -19.5551   23.9621 C.ar    1  UNL1        0.1809
      4 N          -9.4011  -20.5328   24.4743 N.ar    1  UNL1       -0.0605
      5 O          -8.3571  -20.7154   23.4128 O.2     1  UNL1       -0.3353
      6 C          -7.9600  -19.7248   20.9621 C.3     1  UNL1        0.1984
      7 C          -3.3405  -16.7895   23.1616 C.3     1  UNL1        0.1322
      8 N          -3.0997  -18.0232   22.3431 N.ar    1  UNL1       -0.3020
      9 C          -1.7614  -18.6136   22.0108 C.ar    1  UNL1        0.1803
     10 N          -1.9895  -19.8384   21.1755 N.ar    1  UNL1       -0.2047
     11 C          -3.4688  -20.0051   20.9915 C.ar    1  UNL1        0.1861
     12 N          -4.2797  -21.0335   20.2601 N.ar    1  UNL1       -0.2046
     13 C          -5.7767  -20.9400   20.2504 C.ar    1  UNL1        0.1828
     14 N          -6.4628  -19.8182   20.9719 N.ar    1  UNL1       -0.2675
     15 C          -5.6520  -18.7898   21.7033 C.ar    1  UNL1        0.2814
     16 O          -6.3382  -17.6680   22.4249 O.2     1  UNL1       -0.2652
     17 C          -4.1549  -18.8833   21.7131 C.ar    1  UNL1        0.1543
     18 C         -11.6350  -19.0821   24.6987 C.3     1  UNL1        0.0739
     19 C         -12.6093  -18.1625   24.0242 C.3     1  UNL1        0.0344
     20 C         -12.2092  -17.4291   22.7784 C.ar    1  UNL1       -0.0217
     21 C         -12.8224  -17.7993   21.4605 C.ar    1  UNL1       -0.0034
     22 C         -12.4223  -17.0658   20.2147 C.ar    1  UNL1        0.0111
     23 C         -11.4089  -15.9622   20.2868 C.ar    1  UNL1        0.0577
     24 CL        -11.0088  -15.2288   19.0410 Cl      1  UNL1       -0.0822
     25 C         -10.7958  -15.5921   21.6047 C.ar    1  UNL1        0.0111
     26 C         -11.1959  -16.3255   22.8506 C.ar    1  UNL1       -0.0034
@<TRIPOS>BOND
     1     7     8    1
     2     8     9   ar
     3     9    10   ar
     4    10    11   ar
     5    11    12   ar
     6    12    13   ar
     7    13    14   ar
     8    14     6    1
     9     6     1    1
    10     1     2   ar
    11     2     3   ar
    12     3    18    1
    13    18    19    1
    14    19    20    1
    15    20    21   ar
    16    21    22   ar
    17    22    23   ar
    18    23    24    1
    19    23    25   ar
    20    25    26   ar
    21     3     4   ar
    22     4     5   ar
    23    14    15   ar
    24    15    16    2
    25    15    17   ar
    26    17     8   ar
    27    17    11   ar
    28     5     1   ar
    29    26    20   ar
@<TRIPOS>MOLECULE
*****
 26 29 0 0 0
SMALL
GASTEIGER

@<TRIPOS>ATOM
      1 C          -8.0211  -16.9831   24.1478 C.ar    1  UNL1        0.2595
      2 N          -8.8224  -18.1248   23.5961 N.ar    1  UNL1       -0.1932
      3 C          -9.7874  -18.5683   24.6552 C.ar    1  UNL1        0.1809
      4 N          -9.5826  -17.7008   25.8616 N.ar    1  UNL1       -0.0605
      5 O          -8.4909  -16.7211   25.5480 O.2     1  UNL1       -0.3353
      6 C          -6.9399  -16.2349   23.4261 C.3     1  UNL1        0.1984
      7 C          -4.7761  -20.4928   19.9648 C.3     1  UNL1        0.1322
      8 N          -3.8509  -19.7688   20.8975 N.ar    1  UNL1       -0.3020
      9 C          -2.3801  -20.0197   21.0512 C.ar    1  UNL1        0.1803
     10 N          -1.8542  -19.0728   22.0890 N.ar    1  UNL1       -0.2047
     11 C          -3.0002  -18.2367   22.5767 C.ar    1  UNL1        0.1861
     12 N          -3.0794  -17.1393   23.5961 N.ar    1  UNL1       -0.2046
     13 C          -4.3926  -16.4720   23.8793 C.ar    1  UNL1        0.1828
     14 N          -5.6266  -16.9022   23.1430 N.ar    1  UNL1       -0.2675
     15 C          -5.5474  -17.9997   22.1234 C.ar    1  UNL1        0.2814
     16 O          -6.7815  -18.4298   21.3871 O.2     1  UNL1       -0.2652
     17 C          -4.2342  -18.6669   21.8403 C.ar    1  UNL1        0.1543
     18 C         -10.7827  -19.6837   24.5300 C.3     1  UNL1        0.0739
     19 C         -11.4237  -19.9717   23.2048 C.3     1  UNL1        0.0344
     20 C         -11.5423  -18.8853   22.1773 C.ar    1  UNL1       -0.0217
     21 C         -12.3437  -17.6534   22.4776 C.ar    1  UNL1       -0.0034
     22 C         -12.4624  -16.5669   21.4501 C.ar    1  UNL1        0.0111
     23 C         -11.7797  -16.7125   20.1224 C.ar    1  UNL1        0.0577
     24 CL        -11.8984  -15.6261   19.0949 Cl      1  UNL1       -0.0822
     25 C         -10.9784  -17.9445   19.8222 C.ar    1  UNL1        0.0111
     26 C         -10.8597  -19.0309   20.8496 C.ar    1  UNL1       -0.0034
@<TRIPOS>BOND
     1     7     8    1
     2     8     9   ar
     3     9    10   ar
     4    10    11   ar
     5    11    12   ar
     6    12    13   ar
     7    13    14   ar
     8    14     6    1
     9     6     1    1
    10     1     2   ar
    11     2     3   ar
    12     3    18    1
    13    18    19    1
    14    19    20    1
    15    20    21   ar
    16    21    22   ar
    17    22    23   ar
    18    23    24    1
    19    23    25   ar
    20    25    26   ar
    21     3     4   ar
    22     4     5   ar
    23    14    15   ar
    24    15    16    2
    25    15    17   ar
    26    17     8   ar
    27    17    11   ar
    28     5     1   ar
    29    26    20   ar
@<TRIPOS>MOLECULE
*****
 26 29 0 0 0
SMALL
GASTEIGER

@<TRIPOS>ATOM
      1 C         -15.0254   -4.0571   19.5013 C.ar    1  UNL1        0.2595
      2 N         -14.0974   -3.3122   18.5883 N.ar    1  UNL1       -0.1932
      3 C         -13.0843   -2.6017   19.4361 C.ar    1  UNL1        0.1809
      4 N         -13.3862   -2.9076   20.8732 N.ar    1  UNL1       -0.0605
      5 O         -14.5858   -3.8071   20.9135 O.2     1  UNL1       -0.3353
      6 C         -16.1887   -4.9036   19.0768 C.3     1  UNL1        0.1984
      7 C         -19.5114   -9.7692   18.7980 C.3     1  UNL1        0.1322
      8 N         -18.0227   -9.8924   18.6617 N.ar    1  UNL1       -0.3020
      9 C         -17.2588  -11.1665   18.4544 C.ar    1  UNL1        0.1803
     10 N         -15.8005  -10.8247   18.3733 N.ar    1  UNL1       -0.2047
     11 C         -15.6631   -9.3393   18.5305 C.ar    1  UNL1        0.1861
     12 N         -14.4649   -8.4369   18.5344 N.ar    1  UNL1       -0.2046
     13 C         -14.6402   -6.9584   18.7165 C.ar    1  UNL1        0.1828
     14 N         -16.0135   -6.3822   18.8947 N.ar    1  UNL1       -0.2675
     15 C         -17.2118   -7.2846   18.8909 C.ar    1  UNL1        0.2814
     16 O         -18.5852   -6.7083   19.0691 O.2     1  UNL1       -0.2652
     17 C         -17.0366   -8.7631   18.7087 C.ar    1  UNL1        0.1543
     18 C         -11.9657   -1.7371   18.9348 C.3     1  UNL1        0.0739
     19 C         -10.9382   -2.3061   18.0019 C.3     1  UNL1        0.0344
     20 C         -10.6632   -3.7807   17.9984 C.ar    1  UNL1       -0.0217
     21 C         -11.1877   -4.6387   16.8855 C.ar    1  UNL1       -0.0034
     22 C         -10.9128   -6.1134   16.8820 C.ar    1  UNL1        0.0111
     23 C         -10.1134   -6.7299   17.9914 C.ar    1  UNL1        0.0577
     24 CL         -9.8385   -8.2045   17.9880 Cl      1  UNL1       -0.0822
     25 C          -9.5890   -5.8718   19.1044 C.ar    1  UNL1        0.0111
     26 C          -9.8639   -4.3972   19.1079 C.ar    1  UNL1       -0.0034
@<TRIPOS>BOND
     1     7     8    1
     2     8     9   ar
     3     9    10   ar
     4    10    11   ar
     5    11    12   ar
     6    12    13   ar
     7    13    14   ar
     8    14     6    1
     9     6     1    1
    10     1     2   ar
    11     2     3   ar
    12     3    18    1
    13    18    19    1
    14    19    20    1
    15    20    21   ar
    16    21    22   ar
    17    22    23   ar
    18    23    24    1
    19    23    25   ar
    20    25    26   ar
    21     3     4   ar
    22     4     5   ar
    23    14    15   ar
    24    15    16    2
    25    15    17   ar
    26    17     8   ar
    27    17    11   ar
    28     5     1   ar
    29    26    20   ar
