@<TRIPOS>MOLECULE
*****
 33 36 0 0 0
SMALL
GASTEIGER

@<TRIPOS>ATOM
      1 C          -8.0522  -19.7608   20.3874 C.ar    1  UNL1        0.1626
      2 N          -8.4528  -19.2728   21.7480 N.ar    1  UNL1       -0.2096
      3 C          -9.7640  -18.5690   21.9363 C.ar    1  UNL1        0.1646
      4 C         -10.6746  -18.3533   20.7639 C.ar    1  UNL1        0.1194
      5 C         -10.2739  -18.8413   19.4033 C.ar    1  UNL1        0.0547
      6 C          -8.9626  -19.5451   19.2151 C.ar    1  UNL1        0.1732
      7 F          -8.5619  -20.0332   17.8544 F       1  UNL1       -0.2012
      8 N         -11.8959  -17.6322   21.2521 N.ar    1  UNL1       -0.2222
      9 C         -11.7402  -17.4023   22.7262 C.ar    1  UNL1        0.1800
     10 N         -10.4226  -17.9813   23.1490 N.ar    1  UNL1       -0.2884
     11 N          -6.7409  -20.4646   20.1992 N.pl3   1  UNL1       -0.2800
     12 H          -6.7179  -21.3643   19.8000 H       1  UNL1        0.1551
     13 C          -3.1133  -19.2289   20.8151 C.ar    1  UNL1        0.2214
     14 C          -4.0876  -20.1461   20.1372 C.ar    1  UNL1        0.0932
     15 C          -5.4647  -19.7976   20.6192 C.ar    1  UNL1        0.1575
     16 N          -5.3415  -18.6651   21.5950 N.ar    1  UNL1       -0.1550
     17 N          -3.8883  -18.3136   21.7160 N.ar    1  UNL1       -0.2446
     18 H          -3.5096  -17.6063   22.2866 H       1  UNL1        0.1920
     19 O          -1.6254  -19.2273   20.6253 O.3     1  UNL1       -0.4643
     20 C          -1.7326  -17.7094   18.5194 C.3     1  UNL1        0.0473
     21 C          -0.9864  -18.2194   19.7165 C.3     1  UNL1        0.1678
     22 C           0.3989  -17.7215   20.0049 C.3     1  UNL1        0.0473
     23 C          -9.8621  -17.9738   24.5403 C.3     1  UNL1        0.1575
     24 C          -8.7221  -17.0618   24.8848 C.ar    1  UNL1        0.0823
     25 C          -8.5255  -16.6091   26.3012 C.ar    1  UNL1        0.0190
     26 C          -7.3854  -15.6971   26.6457 C.ar    1  UNL1        0.0325
     27 C          -6.4420  -15.2380   25.5736 C.ar    1  UNL1        0.1592
     28 F          -5.3020  -14.3260   25.9180 F       1  UNL1       -0.2025
     29 C          -6.6387  -15.6908   24.1572 C.ar    1  UNL1        0.1280
     30 N          -7.7787  -16.6027   23.8128 N.ar    1  UNL1       -0.2438
     31 C         -10.4417  -18.8783   25.5872 C.3     1  UNL1        0.1658
     32 O         -10.2134  -20.3588   25.5091 O.3     1  UNL1       -0.3796
     33 H         -10.6585  -20.7136   24.7237 H       1  UNL1        0.2105
@<TRIPOS>BOND
     1    20    21    1
     2    21    22    1
     3    21    19    1
     4    19    13    1
     5    13    14   ar
     6    14    15   ar
     7    15    11    1
     8    11     1    1
     9     1     2   ar
    10     2     3   ar
    11     3     4   ar
    12     4     5   ar
    13     5     6   ar
    14     6     7    1
    15     4     8   ar
    16     8     9   ar
    17     9    10   ar
    18    10    23    1
    19    23    31    1
    20    31    32    1
    21    23    24    1
    22    24    25   ar
    23    25    26   ar
    24    26    27   ar
    25    27    28    1
    26    27    29   ar
    27    29    30   ar
    28    15    16   ar
    29    16    17   ar
    30    17    13   ar
    31     6     1   ar
    32    30    24   ar
    33    10     3   ar
    34    11    12    1
    35    32    33    1
    36    17    18    1
@<TRIPOS>MOLECULE
*****
 33 36 0 0 0
SMALL
GASTEIGER

@<TRIPOS>ATOM
      1 C          -7.1162  -19.8005   21.6114 C.ar    1  UNL1        0.1626
      2 N          -8.3107  -19.2404   22.3252 N.ar    1  UNL1       -0.2096
      3 C          -9.5462  -18.8832   21.5533 C.ar    1  UNL1        0.1646
      4 C          -9.5873  -19.0861   20.0676 C.ar    1  UNL1        0.1194
      5 C          -8.3928  -19.6462   19.3539 C.ar    1  UNL1        0.0547
      6 C          -7.1572  -20.0034   20.1259 C.ar    1  UNL1        0.1732
      7 F          -5.9627  -20.5636   19.4121 F       1  UNL1       -0.2012
      8 N         -10.9343  -18.6452   19.5766 N.ar    1  UNL1       -0.2222
      9 C         -11.7257  -18.1697   20.7588 C.ar    1  UNL1        0.1800
     10 N         -10.8679  -18.3168   21.9804 N.ar    1  UNL1       -0.2884
     11 N          -5.8806  -20.1577   22.3834 N.pl3   1  UNL1       -0.2800
     12 H          -5.8854  -20.9347   22.9881 H       1  UNL1        0.1551
     13 C          -2.3696  -18.6481   21.7057 C.ar    1  UNL1        0.2214
     14 C          -3.3316  -19.7982   21.6633 C.ar    1  UNL1        0.0932
     15 C          -4.6379  -19.3312   22.2340 C.ar    1  UNL1        0.1575
     16 N          -4.4831  -17.8924   22.6291 N.ar    1  UNL1       -0.1550
     17 N          -3.0812  -17.4703   22.3025 N.ar    1  UNL1       -0.2446
     18 H          -2.6959  -16.5770   22.4535 H       1  UNL1        0.1920
     19 O          -0.9459  -18.6718   21.2340 O.3     1  UNL1       -0.4643
     20 C           0.7910  -17.2451   19.9309 C.3     1  UNL1        0.0473
     21 C          -0.5510  -17.9113   20.0028 C.3     1  UNL1        0.1678
     22 C          -1.4982  -17.8171   18.8434 C.3     1  UNL1        0.0473
     23 C         -11.2624  -17.9602   23.3830 C.3     1  UNL1        0.1575
     24 C         -10.2553  -17.3527   24.3140 C.ar    1  UNL1        0.0823
     25 C          -9.6322  -16.0287   23.9843 C.ar    1  UNL1        0.0190
     26 C          -8.6251  -15.4212   24.9152 C.ar    1  UNL1        0.0325
     27 C          -8.2411  -16.1378   26.1759 C.ar    1  UNL1        0.1592
     28 F          -7.2340  -15.5304   27.1069 F       1  UNL1       -0.2025
     29 C          -8.8643  -17.4618   26.5055 C.ar    1  UNL1        0.1280
     30 N          -9.8713  -18.0693   25.5745 N.ar    1  UNL1       -0.2438
     31 C         -12.6641  -18.2110   23.8545 C.3     1  UNL1        0.1658
     32 O         -12.9058  -18.7640   25.2278 O.3     1  UNL1       -0.3796
     33 H         -12.5532  -19.6661   25.2798 H       1  UNL1        0.2105
@<TRIPOS>BOND
     1    20    21    1
     2    21    22    1
     3    21    19    1
     4    19    13    1
     5    13    14   ar
     6    14    15   ar
     7    15    11    1
     8    11     1    1
     9     1     2   ar
    10     2     3   ar
    11     3     4   ar
    12     4     5   ar
    13     5     6   ar
    14     6     7    1
    15     4     8   ar
    16     8     9   ar
    17     9    10   ar
    18    10    23    1
    19    23    31    1
    20    31    32    1
    21    23    24    1
    22    24    25   ar
    23    25    26   ar
    24    26    27   ar
    25    27    28    1
    26    27    29   ar
    27    29    30   ar
    28    15    16   ar
    29    16    17   ar
    30    17    13   ar
    31     6     1   ar
    32    30    24   ar
    33    10     3   ar
    34    11    12    1
    35    32    33    1
    36    17    18    1
@<TRIPOS>MOLECULE
*****
 33 36 0 0 0
SMALL
GASTEIGER

@<TRIPOS>ATOM
      1 C          -6.5188  -16.3236   24.4107 C.ar    1  UNL1        0.1626
      2 N          -7.0828  -17.1083   23.2635 N.ar    1  UNL1       -0.2096
      3 C          -8.5554  -17.0700   22.9808 C.ar    1  UNL1        0.1646
      4 C          -9.4640  -16.2470   23.8452 C.ar    1  UNL1        0.1194
      5 C          -8.8999  -15.4623   24.9924 C.ar    1  UNL1        0.0547
      6 C          -7.4272  -15.5006   25.2751 C.ar    1  UNL1        0.1732
      7 F          -6.8631  -14.7159   26.4224 F       1  UNL1       -0.2012
      8 N         -10.8631  -16.4025   23.3272 N.ar    1  UNL1       -0.2222
      9 C         -10.8192  -17.3217   22.1426 C.ar    1  UNL1        0.1800
     10 N          -9.3930  -17.7342   21.9285 N.ar    1  UNL1       -0.2884
     11 N          -5.0461  -16.3619   24.6934 N.pl3   1  UNL1       -0.2800
     12 H          -4.7207  -16.2920   25.6200 H       1  UNL1        0.1551
     13 C          -2.4307  -17.4373   22.0347 C.ar    1  UNL1        0.2214
     14 C          -3.2761  -17.7371   23.2369 C.ar    1  UNL1        0.0932
     15 C          -4.0693  -16.5067   23.5644 C.ar    1  UNL1        0.1575
     16 N          -3.7140  -15.4465   22.5645 N.ar    1  UNL1       -0.1550
     17 N          -2.7013  -16.0217   21.6191 N.ar    1  UNL1       -0.2446
     18 H          -2.2870  -15.5525   20.8592 H       1  UNL1        0.1920
     19 O          -1.4814  -18.3866   21.3656 O.3     1  UNL1       -0.4643
     20 C           0.5736  -17.6438   19.9601 C.3     1  UNL1        0.0473
     21 C          -0.8735  -18.0303   20.0414 C.3     1  UNL1        0.1678
     22 C          -1.7127  -18.0605   18.7984 C.3     1  UNL1        0.0473
     23 C          -8.8924  -18.6500   20.8512 C.3     1  UNL1        0.1575
     24 C          -7.4695  -19.1245   20.8715 C.ar    1  UNL1        0.0823
     25 C          -7.0211  -20.1061   21.9131 C.ar    1  UNL1        0.0190
     26 C          -5.5982  -20.5806   21.9335 C.ar    1  UNL1        0.0325
     27 C          -4.6238  -20.0733   20.9120 C.ar    1  UNL1        0.1592
     28 F          -3.2010  -20.5477   20.9323 F       1  UNL1       -0.2025
     29 C          -5.0724  -19.0915   19.8704 C.ar    1  UNL1        0.1280
     30 N          -6.4951  -18.6172   19.8501 N.ar    1  UNL1       -0.2438
     31 C          -9.8146  -19.0915   19.7537 C.3     1  UNL1        0.1658
     32 O          -9.3795  -20.1570   18.7916 O.3     1  UNL1       -0.3796
     33 H          -8.6386  -19.8284   18.2587 H       1  UNL1        0.2105
@<TRIPOS>BOND
     1    20    21    1
     2    21    22    1
     3    21    19    1
     4    19    13    1
     5    13    14   ar
     6    14    15   ar
     7    15    11    1
     8    11     1    1
     9     1     2   ar
    10     2     3   ar
    11     3     4   ar
    12     4     5   ar
    13     5     6   ar
    14     6     7    1
    15     4     8   ar
    16     8     9   ar
    17     9    10   ar
    18    10    23    1
    19    23    31    1
    20    31    32    1
    21    23    24    1
    22    24    25   ar
    23    25    26   ar
    24    26    27   ar
    25    27    28    1
    26    27    29   ar
    27    29    30   ar
    28    15    16   ar
    29    16    17   ar
    30    17    13   ar
    31     6     1   ar
    32    30    24   ar
    33    10     3   ar
    34    11    12    1
    35    32    33    1
    36    17    18    1
@<TRIPOS>MOLECULE
*****
 33 36 0 0 0
SMALL
GASTEIGER

@<TRIPOS>ATOM
      1 C          -6.3679  -19.6202   21.5351 C.ar    1  UNL1        0.1626
      2 N          -7.6289  -18.8189   21.6678 N.ar    1  UNL1       -0.2096
      3 C          -8.7425  -19.0038   20.6801 C.ar    1  UNL1        0.1646
      4 C          -8.5951  -19.9901   19.5596 C.ar    1  UNL1        0.1194
      5 C          -7.3341  -20.7914   19.4268 C.ar    1  UNL1        0.0547
      6 C          -6.2205  -20.6064   20.4146 C.ar    1  UNL1        0.1732
      7 F          -4.9593  -21.4078   20.2819 F       1  UNL1       -0.2012
      8 N          -9.8534  -19.9564   18.7438 N.ar    1  UNL1       -0.2222
      9 C         -10.7786  -18.9493   19.3602 C.ar    1  UNL1        0.1800
     10 N         -10.0920  -18.3606   20.5568 N.ar    1  UNL1       -0.2884
     11 N          -5.2543  -19.4352   22.5229 N.pl3   1  UNL1       -0.2800
     12 H          -5.1346  -20.0809   23.2564 H       1  UNL1        0.1551
     13 C          -2.4539  -16.8667   21.7315 C.ar    1  UNL1        0.2214
     14 C          -3.0699  -18.2247   21.5696 C.ar    1  UNL1        0.0932
     15 C          -4.3231  -18.2664   22.3931 C.ar    1  UNL1        0.1575
     16 N          -4.4815  -16.9342   23.0638 N.ar    1  UNL1       -0.1550
     17 N          -3.3263  -16.0691   22.6549 N.ar    1  UNL1       -0.2446
     18 H          -3.1684  -15.1408   22.9422 H       1  UNL1        0.1920
     19 O          -1.1878  -16.3901   21.0836 O.3     1  UNL1       -0.4643
     20 C           0.9081  -17.5954   20.1326 C.3     1  UNL1        0.0473
     21 C          -0.5376  -17.2138   20.0119 C.3     1  UNL1        0.1678
     22 C          -1.3329  -17.6559   18.8194 C.3     1  UNL1        0.0473
     23 C         -10.6559  -17.3126   21.4699 C.3     1  UNL1        0.1575
     24 C         -11.5419  -17.7115   22.6128 C.ar    1  UNL1        0.0823
     25 C         -13.0062  -17.3892   22.5744 C.ar    1  UNL1        0.0190
     26 C         -13.8922  -17.7881   23.7171 C.ar    1  UNL1        0.0325
     27 C         -13.3137  -18.5093   24.8983 C.ar    1  UNL1        0.1592
     28 F         -14.1996  -18.9082   26.0412 F       1  UNL1       -0.2025
     29 C         -11.8492  -18.8316   24.9366 C.ar    1  UNL1        0.1280
     30 N         -10.9633  -18.4327   23.7939 N.ar    1  UNL1       -0.2438
     31 C         -10.3339  -15.8657   21.2402 C.3     1  UNL1        0.1658
     32 O          -8.9382  -15.3634   21.4632 O.3     1  UNL1       -0.3796
     33 H          -8.7167  -15.4314   22.4051 H       1  UNL1        0.2105
@<TRIPOS>BOND
     1    20    21    1
     2    21    22    1
     3    21    19    1
     4    19    13    1
     5    13    14   ar
     6    14    15   ar
     7    15    11    1
     8    11     1    1
     9     1     2   ar
    10     2     3   ar
    11     3     4   ar
    12     4     5   ar
    13     5     6   ar
    14     6     7    1
    15     4     8   ar
    16     8     9   ar
    17     9    10   ar
    18    10    23    1
    19    23    31    1
    20    31    32    1
    21    23    24    1
    22    24    25   ar
    23    25    26   ar
    24    26    27   ar
    25    27    28    1
    26    27    29   ar
    27    29    30   ar
    28    15    16   ar
    29    16    17   ar
    30    17    13   ar
    31     6     1   ar
    32    30    24   ar
    33    10     3   ar
    34    11    12    1
    35    32    33    1
    36    17    18    1
@<TRIPOS>MOLECULE
*****
 33 36 0 0 0
SMALL
GASTEIGER

@<TRIPOS>ATOM
      1 C          -5.1614  -18.7602   21.5837 C.ar    1  UNL1        0.1626
      2 N          -6.5532  -18.2115   21.6914 N.ar    1  UNL1       -0.2096
      3 C          -7.6592  -18.8055   20.8704 C.ar    1  UNL1        0.1646
      4 C          -7.3733  -19.9482   19.9418 C.ar    1  UNL1        0.1194
      5 C          -5.9814  -20.4969   19.8340 C.ar    1  UNL1        0.0547
      6 C          -4.8754  -19.9028   20.6551 C.ar    1  UNL1        0.1732
      7 F          -3.4835  -20.4515   20.5473 F       1  UNL1       -0.2012
      8 N          -8.6564  -20.3262   19.2631 N.ar    1  UNL1       -0.2222
      9 C          -9.7354  -19.4171   19.7724 C.ar    1  UNL1        0.1800
     10 N          -9.1191  -18.4772   20.7658 N.ar    1  UNL1       -0.2884
     11 N          -4.0554  -18.1661   22.4047 N.pl3   1  UNL1       -0.2800
     12 H          -3.1229  -18.2325   22.0961 H       1  UNL1        0.1551
     13 C          -5.3845  -15.9980   25.3371 C.ar    1  UNL1        0.2214
     14 C          -5.4122  -16.4102   23.8951 C.ar    1  UNL1        0.0932
     15 C          -4.3703  -17.4709   23.6960 C.ar    1  UNL1        0.1575
     16 N          -3.6987  -17.7141   25.0150 N.ar    1  UNL1       -0.1550
     17 N          -4.3255  -16.8039   26.0292 N.ar    1  UNL1       -0.2446
     18 H          -4.0842  -16.7456   26.9819 H       1  UNL1        0.1920
     19 O          -6.2618  -14.9619   25.9749 O.3     1  UNL1       -0.4643
     20 C          -8.6463  -15.4040   25.0426 C.3     1  UNL1        0.0473
     21 C          -7.7151  -15.2506   26.2086 C.3     1  UNL1        0.1678
     22 C          -8.2372  -15.3858   27.6083 C.3     1  UNL1        0.0473
     23 C          -9.8367  -17.3986   21.5217 C.3     1  UNL1        0.1575
     24 C         -10.8782  -17.7610   22.5385 C.ar    1  UNL1        0.0823
     25 C         -12.3076  -17.3603   22.3235 C.ar    1  UNL1        0.0190
     26 C         -13.3492  -17.7228   23.3403 C.ar    1  UNL1        0.0325
     27 C         -12.9612  -18.4860   24.5720 C.ar    1  UNL1        0.1592
     28 F         -14.0028  -18.8485   25.5888 F       1  UNL1       -0.2025
     29 C         -11.5318  -18.8867   24.7869 C.ar    1  UNL1        0.1280
     30 N         -10.4903  -18.5242   23.7702 N.ar    1  UNL1       -0.2438
     31 C          -9.5127  -15.9574   21.2609 C.3     1  UNL1        0.1658
     32 O          -8.1198  -15.4489   21.4873 O.3     1  UNL1       -0.3796
     33 H          -7.9088  -15.4940   22.4330 H       1  UNL1        0.2105
@<TRIPOS>BOND
     1    20    21    1
     2    21    22    1
     3    21    19    1
     4    19    13    1
     5    13    14   ar
     6    14    15   ar
     7    15    11    1
     8    11     1    1
     9     1     2   ar
    10     2     3   ar
    11     3     4   ar
    12     4     5   ar
    13     5     6   ar
    14     6     7    1
    15     4     8   ar
    16     8     9   ar
    17     9    10   ar
    18    10    23    1
    19    23    31    1
    20    31    32    1
    21    23    24    1
    22    24    25   ar
    23    25    26   ar
    24    26    27   ar
    25    27    28    1
    26    27    29   ar
    27    29    30   ar
    28    15    16   ar
    29    16    17   ar
    30    17    13   ar
    31     6     1   ar
    32    30    24   ar
    33    10     3   ar
    34    11    12    1
    35    32    33    1
    36    17    18    1
@<TRIPOS>MOLECULE
*****
 33 36 0 0 0
SMALL
GASTEIGER

@<TRIPOS>ATOM
      1 C          -7.6805  -15.6044   23.0386 C.ar    1  UNL1        0.1626
      2 N          -6.4219  -16.3627   22.7370 N.ar    1  UNL1       -0.2096
      3 C          -5.4331  -16.6399   23.8302 C.ar    1  UNL1        0.1646
      4 C          -5.7027  -16.1588   25.2252 C.ar    1  UNL1        0.1194
      5 C          -6.9612  -15.4004   25.5268 C.ar    1  UNL1        0.0547
      6 C          -7.9501  -15.1233   24.4335 C.ar    1  UNL1        0.1732
      7 F          -9.2087  -14.3649   24.7351 F       1  UNL1       -0.2012
      8 N          -4.5520  -16.5787   26.0909 N.ar    1  UNL1       -0.2222
      9 C          -3.5712  -17.3194   25.2310 C.ar    1  UNL1        0.1800
     10 N          -4.1157  -17.3572   23.8339 N.ar    1  UNL1       -0.2884
     11 N          -8.6694  -15.3272   21.9453 N.pl3   1  UNL1       -0.2800
     12 H          -8.5278  -14.5684   21.3342 H       1  UNL1        0.1551
     13 C         -12.0145  -17.2830   22.1692 C.ar    1  UNL1        0.2214
     14 C         -11.0462  -16.2766   22.7164 C.ar    1  UNL1        0.0932
     15 C          -9.8739  -16.2062   21.7830 C.ar    1  UNL1        0.1575
     16 N         -10.1179  -17.1691   20.6591 N.ar    1  UNL1       -0.1550
     17 N         -11.4408  -17.8346   20.8978 N.ar    1  UNL1       -0.2446
     18 H         -11.8591  -18.5141   20.3211 H       1  UNL1        0.1920
     19 O         -13.3263  -17.6699   22.7853 O.3     1  UNL1       -0.4643
     20 C         -12.1059  -18.9039   24.7188 C.3     1  UNL1        0.0473
     21 C         -13.3577  -18.3144   24.1395 C.3     1  UNL1        0.1678
     22 C         -14.6409  -18.3693   24.9143 C.3     1  UNL1        0.0473
     23 C          -3.4582  -17.9996   22.6485 C.3     1  UNL1        0.1575
     24 C          -4.1993  -19.0269   21.8451 C.ar    1  UNL1        0.0823
     25 C          -3.6082  -19.5513   20.5702 C.ar    1  UNL1        0.0190
     26 C          -4.3492  -20.5786   19.7667 C.ar    1  UNL1        0.0325
     27 C          -5.6814  -21.0815   20.2383 C.ar    1  UNL1        0.1592
     28 F          -6.4225  -22.1088   19.4349 F       1  UNL1       -0.2025
     29 C          -6.2726  -20.5570   21.5132 C.ar    1  UNL1        0.1280
     30 N          -5.5315  -19.5298   22.3166 N.ar    1  UNL1       -0.2438
     31 C          -2.0597  -17.6147   22.2665 C.3     1  UNL1        0.1658
     32 O          -1.7436  -16.1916   21.9127 O.3     1  UNL1       -0.3796
     33 H          -2.2071  -15.9511   21.0953 H       1  UNL1        0.2105
@<TRIPOS>BOND
     1    20    21    1
     2    21    22    1
     3    21    19    1
     4    19    13    1
     5    13    14   ar
     6    14    15   ar
     7    15    11    1
     8    11     1    1
     9     1     2   ar
    10     2     3   ar
    11     3     4   ar
    12     4     5   ar
    13     5     6   ar
    14     6     7    1
    15     4     8   ar
    16     8     9   ar
    17     9    10   ar
    18    10    23    1
    19    23    31    1
    20    31    32    1
    21    23    24    1
    22    24    25   ar
    23    25    26   ar
    24    26    27   ar
    25    27    28    1
    26    27    29   ar
    27    29    30   ar
    28    15    16   ar
    29    16    17   ar
    30    17    13   ar
    31     6     1   ar
    32    30    24   ar
    33    10     3   ar
    34    11    12    1
    35    32    33    1
    36    17    18    1
@<TRIPOS>MOLECULE
*****
 33 36 0 0 0
SMALL
GASTEIGER

@<TRIPOS>ATOM
      1 C          -8.7511  -16.2234   23.7030 C.ar    1  UNL1        0.1626
      2 N          -7.6631  -17.0577   23.0946 N.ar    1  UNL1       -0.2096
      3 C          -6.2760  -17.0124   23.6637 C.ar    1  UNL1        0.1646
      4 C          -5.9769  -16.1327   24.8413 C.ar    1  UNL1        0.1194
      5 C          -7.0649  -15.2983   25.4497 C.ar    1  UNL1        0.0547
      6 C          -8.4520  -15.3438   24.8805 C.ar    1  UNL1        0.1732
      7 F          -9.5401  -14.5094   25.4890 F       1  UNL1       -0.2012
      8 N          -4.5255  -16.2940   25.1837 N.ar    1  UNL1       -0.2222
      9 C          -3.9275  -17.2734   24.2177 C.ar    1  UNL1        0.1800
     10 N          -5.0094  -17.7174   23.2783 N.ar    1  UNL1       -0.2884
     11 N         -10.1382  -16.2688   23.1338 N.pl3   1  UNL1       -0.2800
     12 H         -10.8946  -15.9091   23.6512 H       1  UNL1        0.1551
     13 C         -10.5338  -18.4500   19.9476 C.ar    1  UNL1        0.2214
     14 C         -10.1873  -18.3024   21.3996 C.ar    1  UNL1        0.0932
     15 C         -10.3727  -16.8623   21.7763 C.ar    1  UNL1        0.1575
     16 N         -10.8337  -16.1199   20.5571 N.ar    1  UNL1       -0.1550
     17 N         -10.9332  -17.1012   19.4270 N.ar    1  UNL1       -0.2446
     18 H         -11.2118  -16.8959   18.5053 H       1  UNL1        0.1920
     19 O         -10.4886  -19.7229   19.1555 O.3     1  UNL1       -0.4643
     20 C          -7.8926  -19.6317   19.1041 C.3     1  UNL1        0.0473
     21 C          -9.1815  -20.2265   18.6191 C.3     1  UNL1        0.1678
     22 C          -9.1631  -21.3249   17.5977 C.3     1  UNL1        0.0473
     23 C          -4.8522  -18.6948   22.1514 C.3     1  UNL1        0.1575
     24 C          -3.8353  -18.4442   21.0775 C.ar    1  UNL1        0.0823
     25 C          -3.8497  -19.2680   19.8241 C.ar    1  UNL1        0.0190
     26 C          -2.8328  -19.0175   18.7502 C.ar    1  UNL1        0.0325
     27 C          -1.8015  -17.9431   18.9299 C.ar    1  UNL1        0.1592
     28 F          -0.7846  -17.6925   17.8561 F       1  UNL1       -0.2025
     29 C          -1.7872  -17.1193   20.1834 C.ar    1  UNL1        0.1280
     30 N          -2.8040  -17.3699   21.2572 N.ar    1  UNL1       -0.2438
     31 C          -5.7120  -19.9228   22.0983 C.3     1  UNL1        0.1658
     32 O          -7.1708  -19.8322   22.4359 O.3     1  UNL1       -0.3796
     33 H          -7.2721  -19.6035   23.3731 H       1  UNL1        0.2105
@<TRIPOS>BOND
     1    20    21    1
     2    21    22    1
     3    21    19    1
     4    19    13    1
     5    13    14   ar
     6    14    15   ar
     7    15    11    1
     8    11     1    1
     9     1     2   ar
    10     2     3   ar
    11     3     4   ar
    12     4     5   ar
    13     5     6   ar
    14     6     7    1
    15     4     8   ar
    16     8     9   ar
    17     9    10   ar
    18    10    23    1
    19    23    31    1
    20    31    32    1
    21    23    24    1
    22    24    25   ar
    23    25    26   ar
    24    26    27   ar
    25    27    28    1
    26    27    29   ar
    27    29    30   ar
    28    15    16   ar
    29    16    17   ar
    30    17    13   ar
    31     6     1   ar
    32    30    24   ar
    33    10     3   ar
    34    11    12    1
    35    32    33    1
    36    17    18    1
@<TRIPOS>MOLECULE
*****
 33 36 0 0 0
SMALL
GASTEIGER

@<TRIPOS>ATOM
      1 C           4.9706   -1.4635   23.3429 C.ar    1  UNL1        0.1626
      2 N           4.5061   -1.1662   21.9480 N.ar    1  UNL1       -0.2096
      3 C           4.3780   -2.2765   20.9476 C.ar    1  UNL1        0.1646
      4 C           4.7144   -3.6840   21.3421 C.ar    1  UNL1        0.1194
      5 C           5.1789   -3.9813   22.7370 C.ar    1  UNL1        0.0547
      6 C           5.3070   -2.8710   23.7374 C.ar    1  UNL1        0.1732
      7 F           5.7715   -3.1682   25.1325 F       1  UNL1       -0.2012
      8 N           4.4930   -4.5654   20.1487 N.ar    1  UNL1       -0.2222
      9 C           4.0197   -3.7026   19.0167 C.ar    1  UNL1        0.1800
     10 N           3.9487   -2.2880   19.5104 N.ar    1  UNL1       -0.2884
     11 N           5.0987   -0.3531   24.3434 N.pl3   1  UNL1       -0.2800
     12 H           5.8520    0.2780   24.2846 H       1  UNL1        0.1551
     13 C           2.3436    0.7121   26.8613 C.ar    1  UNL1        0.2214
     14 C           3.2107    0.9956   25.6707 C.ar    1  UNL1        0.0932
     15 C           4.0790   -0.2044   25.4333 C.ar    1  UNL1        0.1575
     16 N           3.7484   -1.2295   26.4773 N.ar    1  UNL1       -0.1550
     17 N           2.6759   -0.6630   27.3598 N.ar    1  UNL1       -0.2446
     18 H           2.2626   -1.1146   28.1309 H       1  UNL1        0.1920
     19 O           1.3233    1.6407   27.4500 O.3     1  UNL1       -0.4643
     20 C          -0.6598    1.8405   25.7834 C.3     1  UNL1        0.0473
     21 C          -0.1311    1.4551   27.1333 C.3     1  UNL1        0.1678
     22 C          -1.0567    0.8840   28.1663 C.3     1  UNL1        0.0473
     23 C           3.5230   -1.0944   18.7078 C.3     1  UNL1        0.1575
     24 C           2.3999   -0.2263   19.1927 C.ar    1  UNL1        0.0823
     25 C           1.3783   -0.7814   20.1403 C.ar    1  UNL1        0.0190
     26 C           0.2552    0.0866   20.6252 C.ar    1  UNL1        0.0325
     27 C           0.1538    1.5099   20.1624 C.ar    1  UNL1        0.1592
     28 F          -0.9693    2.3780   20.6472 F       1  UNL1       -0.2025
     29 C           1.1755    2.0650   19.2147 C.ar    1  UNL1        0.1280
     30 N           2.2985    1.1969   18.7299 N.ar    1  UNL1       -0.2438
     31 C           4.2205   -0.7689   17.4203 C.3     1  UNL1        0.1658
     32 O           3.7249   -1.3527   16.1304 O.3     1  UNL1       -0.3796
     33 H           3.8475   -2.3148   16.1427 H       1  UNL1        0.2105
@<TRIPOS>BOND
     1    20    21    1
     2    21    22    1
     3    21    19    1
     4    19    13    1
     5    13    14   ar
     6    14    15   ar
     7    15    11    1
     8    11     1    1
     9     1     2   ar
    10     2     3   ar
    11     3     4   ar
    12     4     5   ar
    13     5     6   ar
    14     6     7    1
    15     4     8   ar
    16     8     9   ar
    17     9    10   ar
    18    10    23    1
    19    23    31    1
    20    31    32    1
    21    23    24    1
    22    24    25   ar
    23    25    26   ar
    24    26    27   ar
    25    27    28    1
    26    27    29   ar
    27    29    30   ar
    28    15    16   ar
    29    16    17   ar
    30    17    13   ar
    31     6     1   ar
    32    30    24   ar
    33    10     3   ar
    34    11    12    1
    35    32    33    1
    36    17    18    1
@<TRIPOS>MOLECULE
*****
 33 36 0 0 0
SMALL
GASTEIGER

@<TRIPOS>ATOM
      1 C           4.8711   -1.3705   23.3884 C.ar    1  UNL1        0.1626
      2 N           4.4595   -1.1369   21.9650 N.ar    1  UNL1       -0.2096
      3 C           4.4277   -2.2814   20.9960 C.ar    1  UNL1        0.1646
      4 C           4.8076   -3.6596   21.4503 C.ar    1  UNL1        0.1194
      5 C           5.2192   -3.8932   22.8737 C.ar    1  UNL1        0.0547
      6 C           5.2509   -2.7486   23.8427 C.ar    1  UNL1        0.1732
      7 F           5.6626   -2.9822   25.2662 F       1  UNL1       -0.2012
      8 N           4.6815   -4.5857   20.2771 N.ar    1  UNL1       -0.2222
      9 C           4.2237   -3.7799   19.0977 C.ar    1  UNL1        0.1800
     10 N           4.0669   -2.3558   19.5419 N.ar    1  UNL1       -0.2884
     11 N           4.9028   -0.2259   24.3574 N.pl3   1  UNL1       -0.2800
     12 H           5.6730    0.3873   24.3699 H       1  UNL1        0.1551
     13 C           2.3610   -0.0995   27.2880 C.ar    1  UNL1        0.2214
     14 C           3.6672   -0.5513   26.7053 C.ar    1  UNL1        0.0932
     15 C           3.7612   -0.0156   25.3073 C.ar    1  UNL1        0.1575
     16 N           2.5130    0.7673   25.0261 N.ar    1  UNL1       -0.1550
     17 N           1.6476    0.7154   26.2502 N.ar    1  UNL1       -0.2446
     18 H           0.7662    1.1415   26.3543 H       1  UNL1        0.1920
     19 O           1.8567   -0.4085   28.6665 O.3     1  UNL1       -0.4643
     20 C          -0.7373   -0.3724   28.8097 C.3     1  UNL1        0.0473
     21 C           0.5918    0.2273   29.1623 C.3     1  UNL1        0.1678
     22 C           0.6558    1.4627   30.0106 C.3     1  UNL1        0.0473
     23 C           3.6265   -1.2077   18.6830 C.3     1  UNL1        0.1575
     24 C           2.4792   -0.3438   19.1160 C.ar    1  UNL1        0.0823
     25 C           2.3382    1.0455   18.5685 C.ar    1  UNL1        0.0190
     26 C           1.1909    1.9094   19.0016 C.ar    1  UNL1        0.0325
     27 C           0.1847    1.3838   19.9822 C.ar    1  UNL1        0.1592
     28 F          -0.9625    2.2477   20.4153 F       1  UNL1       -0.2025
     29 C           0.3259   -0.0055   20.5297 C.ar    1  UNL1        0.1280
     30 N           1.4731   -0.8693   20.0966 N.ar    1  UNL1       -0.2438
     31 C           4.3334   -0.9234   17.3909 C.3     1  UNL1        0.1658
     32 O           3.7158   -1.3432   16.0899 O.3     1  UNL1       -0.3796
     33 H           3.6809   -2.3116   16.0462 H       1  UNL1        0.2105
@<TRIPOS>BOND
     1    20    21    1
     2    21    22    1
     3    21    19    1
     4    19    13    1
     5    13    14   ar
     6    14    15   ar
     7    15    11    1
     8    11     1    1
     9     1     2   ar
    10     2     3   ar
    11     3     4   ar
    12     4     5   ar
    13     5     6   ar
    14     6     7    1
    15     4     8   ar
    16     8     9   ar
    17     9    10   ar
    18    10    23    1
    19    23    31    1
    20    31    32    1
    21    23    24    1
    22    24    25   ar
    23    25    26   ar
    24    26    27   ar
    25    27    28    1
    26    27    29   ar
    27    29    30   ar
    28    15    16   ar
    29    16    17   ar
    30    17    13   ar
    31     6     1   ar
    32    30    24   ar
    33    10     3   ar
    34    11    12    1
    35    32    33    1
    36    17    18    1
