@<TRIPOS>MOLECULE
*****
 31 33 0 0 0
SMALL
GASTEIGER

@<TRIPOS>ATOM
      1 N         -13.8504   -7.3714   18.1270 N.am    1  UNL1       -0.2475
      2 C         -14.8787   -8.4536   18.2728 C.2     1  UNL1        0.2560
      3 O         -14.5130   -9.8794   17.9845 O.2     1  UNL1       -0.2695
      4 C         -16.2729   -8.1099   18.7068 C.ar    1  UNL1        0.0877
      5 C         -17.1189   -7.2030   17.8632 C.ar    1  UNL1        0.0107
      6 C         -18.5130   -6.8594   18.2972 C.ar    1  UNL1        0.0370
      7 C         -19.0611   -7.4226   19.5749 C.ar    1  UNL1        0.1367
      8 O         -20.4552   -7.0789   20.0089 O.3     1  UNL1       -0.5054
      9 C         -18.2150   -8.3294   20.4186 C.ar    1  UNL1        0.0733
     10 C         -16.8209   -8.6731   19.9845 C.ar    1  UNL1        0.1410
     11 O         -15.9748   -9.5799   20.8282 O.3     1  UNL1       -0.5053
     12 H         -20.9837   -6.5124   19.4819 H       1  UNL1        0.2922
     13 H         -16.3171   -9.9318   21.6263 H       1  UNL1        0.2922
     14 C         -14.9475   -3.0937   18.9919 C.ar    1  UNL1        0.0537
     15 C         -14.5784   -4.0154   20.1163 C.ar    1  UNL1        0.0058
     16 C         -14.2127   -5.4412   19.8280 C.ar    1  UNL1        0.0151
     17 C         -14.2161   -5.9455   18.4153 C.ar    1  UNL1        0.0546
     18 C         -14.5851   -5.0238   17.2909 C.ar    1  UNL1        0.0151
     19 C         -14.9508   -3.5979   17.5792 C.ar    1  UNL1        0.0058
     20 C         -17.0727    0.1016   20.0035 C.3     1  UNL1        0.1152
     21 N         -16.7070   -1.3243   19.7152 N.am    1  UNL1       -0.2726
     22 C         -17.7351   -2.4066   19.8620 C.3     1  UNL1        0.1152
     23 C         -15.3132   -1.6678   19.2802 C.2     1  UNL1        0.2491
     24 O         -14.2851   -0.5855   19.1334 O.2     1  UNL1       -0.2699
     25 C         -12.4563   -7.7150   17.6930 C.3     1  UNL1        0.1628
     26 C         -11.3769   -6.6748   17.7443 C.ar    1  UNL1        0.1440
     27 C         -10.5709   -6.2993   18.9523 C.ar    1  UNL1        0.0384
     28 C          -9.6098   -5.2197   18.5512 C.ar    1  UNL1        0.0473
     29 C          -9.8218   -4.9280   17.0952 C.ar    1  UNL1        0.1787
     30 BR         -9.0731   -3.9150   16.2808 Br      1  UNL1       -0.0078
     31 O         -10.9139   -5.8273   16.5964 O.2     1  UNL1       -0.4495
@<TRIPOS>BOND
     1    20    21    1
     2    21    22    1
     3    21    23   am
     4    23    24    2
     5    23    14    1
     6    14    15   ar
     7    15    16   ar
     8    16    17   ar
     9    17     1    1
    10     1    25    1
    11    25    26    1
    12    26    27   ar
    13    27    28   ar
    14    28    29   ar
    15    29    30    1
    16    29    31   ar
    17     1     2   am
    18     2     3    2
    19     2     4    1
    20     4     5   ar
    21     5     6   ar
    22     6     7   ar
    23     7     8    1
    24     7     9   ar
    25     9    10   ar
    26    10    11    1
    27    17    18   ar
    28    18    19   ar
    29    19    14   ar
    30    31    26   ar
    31    10     4   ar
    32     8    12    1
    33    11    13    1
@<TRIPOS>MOLECULE
*****
 31 33 0 0 0
SMALL
GASTEIGER

@<TRIPOS>ATOM
      1 N         -13.8741   -7.6307   17.9544 N.am    1  UNL1       -0.2475
      2 C         -14.8753   -8.7339   18.1294 C.2     1  UNL1        0.2560
      3 O         -14.4794  -10.1556   17.8611 O.2     1  UNL1       -0.2695
      4 C         -16.2725   -8.4153   18.5728 C.ar    1  UNL1        0.0877
      5 C         -16.6295   -8.4757   20.0284 C.ar    1  UNL1        0.0107
      6 C         -18.0266   -8.1571   20.4718 C.ar    1  UNL1        0.0370
      7 C         -19.0667   -7.7783   19.4595 C.ar    1  UNL1        0.1367
      8 O         -20.4638   -7.4598   19.9029 O.3     1  UNL1       -0.5054
      9 C         -18.7097   -7.7179   18.0039 C.ar    1  UNL1        0.0733
     10 C         -17.3125   -8.0365   17.5605 C.ar    1  UNL1        0.1410
     11 O         -16.9555   -7.9762   16.1049 O.3     1  UNL1       -0.5053
     12 H         -20.6868   -7.4974   20.8122 H       1  UNL1        0.2922
     13 H         -17.6052   -7.7395   15.4726 H       1  UNL1        0.2922
     14 C         -15.0619   -3.3656   18.7592 C.ar    1  UNL1        0.0537
     15 C         -15.2067   -3.9369   17.3799 C.ar    1  UNL1        0.0058
     16 C         -14.8108   -5.3586   17.1116 C.ar    1  UNL1        0.0151
     17 C         -14.2700   -6.2090   18.2226 C.ar    1  UNL1        0.0546
     18 C         -14.1252   -5.6377   19.6020 C.ar    1  UNL1        0.0151
     19 C         -14.5212   -4.2160   19.8703 C.ar    1  UNL1        0.0058
     20 C         -14.8825    0.5897   19.0304 C.3     1  UNL1        0.1152
     21 N         -14.4866   -0.8320   18.7621 N.am    1  UNL1       -0.2726
     22 C         -13.1194   -1.1419   18.2283 C.3     1  UNL1        0.1152
     23 C         -15.4578   -1.9439   19.0275 C.2     1  UNL1        0.2491
     24 O         -16.8249   -1.6340   19.5612 O.2     1  UNL1       -0.2699
     25 C         -12.4770   -7.9493   17.5110 C.3     1  UNL1        0.1628
     26 C         -11.3958   -6.9175   17.6393 C.ar    1  UNL1        0.1440
     27 C         -10.5198   -6.7027   18.8377 C.ar    1  UNL1        0.0384
     28 C          -9.5833   -5.5718   18.5307 C.ar    1  UNL1        0.0473
     29 C          -9.8806   -5.0877   17.1425 C.ar    1  UNL1        0.1787
     30 BR         -9.1807   -3.9685   16.4302 Br      1  UNL1       -0.0078
     31 O         -11.0008   -5.9194   16.5914 O.2     1  UNL1       -0.4495
@<TRIPOS>BOND
     1    20    21    1
     2    21    22    1
     3    21    23   am
     4    23    24    2
     5    23    14    1
     6    14    15   ar
     7    15    16   ar
     8    16    17   ar
     9    17     1    1
    10     1    25    1
    11    25    26    1
    12    26    27   ar
    13    27    28   ar
    14    28    29   ar
    15    29    30    1
    16    29    31   ar
    17     1     2   am
    18     2     3    2
    19     2     4    1
    20     4     5   ar
    21     5     6   ar
    22     6     7   ar
    23     7     8    1
    24     7     9   ar
    25     9    10   ar
    26    10    11    1
    27    17    18   ar
    28    18    19   ar
    29    19    14   ar
    30    31    26   ar
    31    10     4   ar
    32     8    12    1
    33    11    13    1
@<TRIPOS>MOLECULE
*****
 31 33 0 0 0
SMALL
GASTEIGER

@<TRIPOS>ATOM
      1 N         -13.6411   -7.1565   18.1598 N.am    1  UNL1       -0.2475
      2 C         -12.2545   -6.8809   17.6585 C.2     1  UNL1        0.2560
      3 O         -11.3756   -8.0153   17.2217 O.2     1  UNL1       -0.2695
      4 C         -11.7467   -5.4709   17.5938 C.ar    1  UNL1        0.0877
      5 C         -12.4225   -4.4705   16.7037 C.ar    1  UNL1        0.0107
      6 C         -11.9148   -3.0605   16.6390 C.ar    1  UNL1        0.0370
      7 C         -10.7312   -2.6510   17.4645 C.ar    1  UNL1        0.1367
      8 O         -10.2235   -1.2410   17.3999 O.3     1  UNL1       -0.5054
      9 C         -10.0554   -3.6514   18.3547 C.ar    1  UNL1        0.0733
     10 C         -10.5632   -5.0614   18.4193 C.ar    1  UNL1        0.1410
     11 O          -9.8874   -6.0618   19.3095 O.3     1  UNL1       -0.5053
     12 H         -10.6457   -0.6161   16.8438 H       1  UNL1        0.2922
     13 H          -9.1480   -5.8060   19.8252 H       1  UNL1        0.2922
     14 C         -16.2777   -3.7534   19.4700 C.ar    1  UNL1        0.0537
     15 C         -15.2184   -4.2795   20.3925 C.ar    1  UNL1        0.0058
     16 C         -14.3395   -5.4139   19.9557 C.ar    1  UNL1        0.0151
     17 C         -14.5199   -6.0221   18.5966 C.ar    1  UNL1        0.0546
     18 C         -15.5793   -5.4960   17.6741 C.ar    1  UNL1        0.0151
     19 C         -16.4582   -4.3616   18.1109 C.ar    1  UNL1        0.0058
     20 C         -17.5559   -0.0697   20.2094 C.3     1  UNL1        0.1152
     21 N         -16.6770   -1.2041   19.7726 N.am    1  UNL1       -0.2726
     22 C         -15.3186   -0.9235   19.2017 C.3     1  UNL1        0.1152
     23 C         -17.1566   -2.6190   19.9068 C.2     1  UNL1        0.2491
     24 O         -18.5150   -2.8995   20.4777 O.2     1  UNL1       -0.2699
     25 C         -14.1488   -8.5665   18.2245 C.3     1  UNL1        0.1628
     26 C         -15.5937   -8.8301   18.5289 C.ar    1  UNL1        0.1440
     27 C         -16.2218   -8.8312   19.8911 C.ar    1  UNL1        0.0384
     28 C         -17.6805   -9.1407   19.7287 C.ar    1  UNL1        0.0473
     29 C         -17.9539   -9.3310   18.2662 C.ar    1  UNL1        0.1787
     30 BR        -19.2836   -9.6561   17.6528 Br      1  UNL1       -0.0078
     31 O         -16.6642   -9.1390   17.5246 O.2     1  UNL1       -0.4495
@<TRIPOS>BOND
     1    20    21    1
     2    21    22    1
     3    21    23   am
     4    23    24    2
     5    23    14    1
     6    14    15   ar
     7    15    16   ar
     8    16    17   ar
     9    17     1    1
    10     1    25    1
    11    25    26    1
    12    26    27   ar
    13    27    28   ar
    14    28    29   ar
    15    29    30    1
    16    29    31   ar
    17     1     2   am
    18     2     3    2
    19     2     4    1
    20     4     5   ar
    21     5     6   ar
    22     6     7   ar
    23     7     8    1
    24     7     9   ar
    25     9    10   ar
    26    10    11    1
    27    17    18   ar
    28    18    19   ar
    29    19    14   ar
    30    31    26   ar
    31    10     4   ar
    32     8    12    1
    33    11    13    1
@<TRIPOS>MOLECULE
*****
 31 33 0 0 0
SMALL
GASTEIGER

@<TRIPOS>ATOM
      1 N         -18.1466   -4.5050   19.2674 N.am    1  UNL1       -0.2475
      2 C         -18.7222   -5.8811   19.1097 C.2     1  UNL1        0.2560
      3 O         -20.2078   -6.0827   19.1577 O.2     1  UNL1       -0.2695
      4 C         -17.8122   -7.0557   18.9038 C.ar    1  UNL1        0.0877
      5 C         -17.3193   -7.8385   20.0846 C.ar    1  UNL1        0.0107
      6 C         -16.4093   -9.0131   19.8788 C.ar    1  UNL1        0.0370
      7 C         -15.9922   -9.4048   18.4921 C.ar    1  UNL1        0.1367
      8 O         -15.0823  -10.5793   18.2863 O.3     1  UNL1       -0.5054
      9 C         -16.4851   -8.6219   17.3114 C.ar    1  UNL1        0.0733
     10 C         -17.3951   -7.4474   17.5172 C.ar    1  UNL1        0.1410
     11 O         -17.8880   -6.6645   16.3365 O.3     1  UNL1       -0.5053
     12 H         -14.7744  -11.0683   19.0239 H       1  UNL1        0.2922
     13 H         -17.6275   -6.9092   15.4703 H       1  UNL1        0.2922
     14 C         -13.6898   -3.9001   19.1233 C.ar    1  UNL1        0.0537
     15 C         -14.4824   -3.9432   17.8505 C.ar    1  UNL1        0.0058
     16 C         -15.9680   -4.1448   17.8986 C.ar    1  UNL1        0.0151
     17 C         -16.6610   -4.3034   19.2194 C.ar    1  UNL1        0.0546
     18 C         -15.8684   -4.2603   20.4921 C.ar    1  UNL1        0.0151
     19 C         -14.3828   -4.0587   20.4441 C.ar    1  UNL1        0.0058
     20 C          -9.8022   -4.6830   18.9693 C.3     1  UNL1        0.1152
     21 N         -11.2878   -4.8846   19.0174 N.am    1  UNL1       -0.2726
     22 C         -11.8570   -6.2724   19.0076 C.3     1  UNL1        0.1152
     23 C         -12.2042   -3.6985   19.0752 C.2     1  UNL1        0.2491
     24 O         -11.6349   -2.3108   19.0850 O.2     1  UNL1       -0.2699
     25 C         -19.0566   -3.3305   19.4733 C.3     1  UNL1        0.1628
     26 C         -18.4926   -1.9409   19.5036 C.ar    1  UNL1        0.1440
     27 C         -17.9796   -1.1716   18.3226 C.ar    1  UNL1        0.0384
     28 C         -17.5124    0.1681   18.8094 C.ar    1  UNL1        0.0473
     29 C         -17.7367    0.2268   20.2913 C.ar    1  UNL1        0.1787
     30 BR        -17.4122    1.3854   21.1870 Br      1  UNL1       -0.0078
     31 O         -18.3425   -1.0767   20.7205 O.2     1  UNL1       -0.4495
@<TRIPOS>BOND
     1    20    21    1
     2    21    22    1
     3    21    23   am
     4    23    24    2
     5    23    14    1
     6    14    15   ar
     7    15    16   ar
     8    16    17   ar
     9    17     1    1
    10     1    25    1
    11    25    26    1
    12    26    27   ar
    13    27    28   ar
    14    28    29   ar
    15    29    30    1
    16    29    31   ar
    17     1     2   am
    18     2     3    2
    19     2     4    1
    20     4     5   ar
    21     5     6   ar
    22     6     7   ar
    23     7     8    1
    24     7     9   ar
    25     9    10   ar
    26    10    11    1
    27    17    18   ar
    28    18    19   ar
    29    19    14   ar
    30    31    26   ar
    31    10     4   ar
    32     8    12    1
    33    11    13    1
@<TRIPOS>MOLECULE
*****
 31 33 0 0 0
SMALL
GASTEIGER

@<TRIPOS>ATOM
      1 N          -9.1144  -18.8088   20.8224 N.am    1  UNL1       -0.2475
      2 C          -8.0608  -19.5579   20.0617 C.2     1  UNL1        0.2560
      3 O          -8.4391  -20.3704   18.8589 O.2     1  UNL1       -0.2695
      4 C          -6.6288  -19.4946   20.5038 C.ar    1  UNL1        0.0877
      5 C          -5.6121  -18.7910   19.6545 C.ar    1  UNL1        0.0107
      6 C          -4.1801  -18.7277   20.0966 C.ar    1  UNL1        0.0370
      7 C          -3.7648  -19.3680   21.3879 C.ar    1  UNL1        0.1367
      8 O          -2.3329  -19.3046   21.8300 O.3     1  UNL1       -0.5054
      9 C          -4.7815  -20.0716   22.2372 C.ar    1  UNL1        0.0733
     10 C          -6.2135  -20.1349   21.7951 C.ar    1  UNL1        0.1410
     11 O          -7.2302  -20.8386   22.6444 O.3     1  UNL1       -0.5053
     12 H          -1.6978  -18.8651   21.2995 H       1  UNL1        0.2922
     13 H          -6.9708  -21.2385   23.4510 H       1  UNL1        0.2922
     14 C          -7.9794  -16.3713   24.4308 C.ar    1  UNL1        0.0537
     15 C          -8.6832  -17.6845   24.6039 C.ar    1  UNL1        0.0058
     16 C          -9.0616  -18.4970   23.4011 C.ar    1  UNL1        0.0151
     17 C          -8.7361  -17.9963   22.0252 C.ar    1  UNL1        0.0546
     18 C          -8.0322  -16.6831   21.8520 C.ar    1  UNL1        0.0151
     19 C          -7.6539  -15.8706   23.0548 C.ar    1  UNL1        0.0058
     20 C          -5.7835  -14.4089   27.0910 C.3     1  UNL1        0.1152
     21 N          -6.1619  -15.2214   25.8882 N.am    1  UNL1       -0.2726
     22 C          -5.1010  -15.6964   24.9401 C.3     1  UNL1        0.1152
     23 C          -7.6010  -15.5588   25.6336 C.2     1  UNL1        0.2491
     24 O          -8.6618  -15.0838   26.5817 O.2     1  UNL1       -0.2699
     25 C         -10.5463  -18.8721   20.3803 C.3     1  UNL1        0.1628
     26 C         -11.6207  -18.2570   21.2272 C.ar    1  UNL1        0.1440
     27 C         -12.2971  -16.9421   20.9756 C.ar    1  UNL1        0.0384
     28 C         -13.3018  -16.7212   22.0674 C.ar    1  UNL1        0.0473
     29 C         -13.2462  -17.8996   22.9937 C.ar    1  UNL1        0.1787
     30 BR        -14.0828  -18.0947   24.2235 Br      1  UNL1       -0.0078
     31 O         -12.2073  -18.8489   22.4745 O.2     1  UNL1       -0.4495
@<TRIPOS>BOND
     1    20    21    1
     2    21    22    1
     3    21    23   am
     4    23    24    2
     5    23    14    1
     6    14    15   ar
     7    15    16   ar
     8    16    17   ar
     9    17     1    1
    10     1    25    1
    11    25    26    1
    12    26    27   ar
    13    27    28   ar
    14    28    29   ar
    15    29    30    1
    16    29    31   ar
    17     1     2   am
    18     2     3    2
    19     2     4    1
    20     4     5   ar
    21     5     6   ar
    22     6     7   ar
    23     7     8    1
    24     7     9   ar
    25     9    10   ar
    26    10    11    1
    27    17    18   ar
    28    18    19   ar
    29    19    14   ar
    30    31    26   ar
    31    10     4   ar
    32     8    12    1
    33    11    13    1
@<TRIPOS>MOLECULE
*****
 31 33 0 0 0
SMALL
GASTEIGER

@<TRIPOS>ATOM
      1 N         -17.8375   -4.4088   18.2696 N.am    1  UNL1       -0.2475
      2 C         -18.2699   -2.9726   18.2828 C.2     1  UNL1        0.2560
      3 O         -19.7187   -2.6239   18.1114 O.2     1  UNL1       -0.2695
      4 C         -17.2535   -1.8850   18.4673 C.ar    1  UNL1        0.0877
      5 C         -16.2358   -1.6202   17.3977 C.ar    1  UNL1        0.0107
      6 C         -15.2194   -0.5326   17.5822 C.ar    1  UNL1        0.0370
      7 C         -15.2206    0.2902   18.8364 C.ar    1  UNL1        0.1367
      8 O         -14.2043    1.3778   19.0210 O.3     1  UNL1       -0.5054
      9 C         -16.2384    0.0254   19.9061 C.ar    1  UNL1        0.0733
     10 C         -17.2548   -1.0622   19.7215 C.ar    1  UNL1        0.1410
     11 O         -18.2725   -1.3270   20.7912 O.3     1  UNL1       -0.5053
     12 H         -13.5685    1.5432   18.3528 H       1  UNL1        0.2922
     13 H         -18.2733   -0.8130   21.5746 H       1  UNL1        0.2922
     14 C         -13.4911   -5.4549   18.7838 C.ar    1  UNL1        0.0537
     15 C         -14.3288   -5.1204   19.9822 C.ar    1  UNL1        0.0058
     16 C         -15.7777   -4.7717   19.8108 C.ar    1  UNL1        0.0151
     17 C         -16.3887   -4.7575   18.4410 C.ar    1  UNL1        0.0546
     18 C         -15.5509   -5.0920   17.2426 C.ar    1  UNL1        0.0151
     19 C         -14.1021   -5.4407   17.4140 C.ar    1  UNL1        0.0058
     20 C          -9.5583   -5.0670   19.1483 C.3     1  UNL1        0.1152
     21 N         -11.0071   -4.7183   18.9769 N.am    1  UNL1       -0.2726
     22 C         -11.4208   -3.2842   18.8273 C.3     1  UNL1        0.1152
     23 C         -12.0423   -5.8036   18.9552 C.2     1  UNL1        0.2491
     24 O         -11.6286   -7.2376   19.1048 O.2     1  UNL1       -0.2699
     25 C         -18.8539   -5.4964   18.0850 C.3     1  UNL1        0.1628
     26 C         -18.5910   -6.8690   18.6298 C.ar    1  UNL1        0.1440
     27 C         -19.0223   -7.3826   19.9715 C.ar    1  UNL1        0.0384
     28 C         -18.5485   -8.8001   20.0995 C.ar    1  UNL1        0.0473
     29 C         -17.8243   -9.1625   18.8368 C.ar    1  UNL1        0.1787
     30 BR        -17.1860  -10.4860   18.5353 Br      1  UNL1       -0.0078
     31 O         -17.8506   -7.9690   17.9284 O.2     1  UNL1       -0.4495
@<TRIPOS>BOND
     1    20    21    1
     2    21    22    1
     3    21    23   am
     4    23    24    2
     5    23    14    1
     6    14    15   ar
     7    15    16   ar
     8    16    17   ar
     9    17     1    1
    10     1    25    1
    11    25    26    1
    12    26    27   ar
    13    27    28   ar
    14    28    29   ar
    15    29    30    1
    16    29    31   ar
    17     1     2   am
    18     2     3    2
    19     2     4    1
    20     4     5   ar
    21     5     6   ar
    22     6     7   ar
    23     7     8    1
    24     7     9   ar
    25     9    10   ar
    26    10    11    1
    27    17    18   ar
    28    18    19   ar
    29    19    14   ar
    30    31    26   ar
    31    10     4   ar
    32     8    12    1
    33    11    13    1
@<TRIPOS>MOLECULE
*****
 31 33 0 0 0
SMALL
GASTEIGER

@<TRIPOS>ATOM
      1 N           3.8455    0.3469   32.9365 N.am    1  UNL1       -0.2475
      2 C           4.0070   -0.6623   31.8386 C.2     1  UNL1        0.2560
      3 O           2.9861   -0.7487   30.7431 O.2     1  UNL1       -0.2695
      4 C           5.1896   -1.5852   31.8363 C.ar    1  UNL1        0.0877
      5 C           6.4320   -1.2103   31.0841 C.ar    1  UNL1        0.0107
      6 C           7.6145   -2.1332   31.0817 C.ar    1  UNL1        0.0370
      7 C           7.5546   -3.4310   31.8316 C.ar    1  UNL1        0.1367
      8 O           8.7371   -4.3538   31.8292 O.3     1  UNL1       -0.5054
      9 C           6.3122   -3.8058   32.5838 C.ar    1  UNL1        0.0733
     10 C           5.1296   -2.8829   32.5861 C.ar    1  UNL1        0.1410
     11 O           3.8872   -3.2578   33.3384 O.3     1  UNL1       -0.5053
     12 H           9.5132   -4.1196   31.3593 H       1  UNL1        0.2922
     13 H           3.8498   -4.0685   33.8068 H       1  UNL1        0.2922
     14 C           6.9083    0.6060   36.2232 C.ar    1  UNL1        0.0537
     15 C           7.0926    1.3970   34.9621 C.ar    1  UNL1        0.0058
     16 C           6.0717    1.3106   33.8665 C.ar    1  UNL1        0.0151
     17 C           4.8664    0.4333   34.0321 C.ar    1  UNL1        0.0546
     18 C           4.6820   -0.3577   35.2931 C.ar    1  UNL1        0.0151
     19 C           5.7030   -0.2713   36.3887 C.ar    1  UNL1        0.0058
     20 C           8.8040    1.8073   39.4962 C.3     1  UNL1        0.1152
     21 N           7.7830    1.7209   38.4007 N.am    1  UNL1       -0.2726
     22 C           6.6159    2.6631   38.3872 C.3     1  UNL1        0.1152
     23 C           7.9292    0.6924   37.3187 C.2     1  UNL1        0.2491
     24 O           9.0963   -0.2497   37.3323 O.2     1  UNL1       -0.2699
     25 C           2.6630    1.2697   32.9388 C.3     1  UNL1        0.1628
     26 C           2.5940    2.3980   33.9249 C.ar    1  UNL1        0.1440
     27 C           2.9905    3.8212   33.6654 C.ar    1  UNL1        0.0384
     28 C           2.7580    4.6039   34.9237 C.ar    1  UNL1        0.0473
     29 C           2.2178    3.6645   35.9608 C.ar    1  UNL1        0.1787
     30 BR          1.8445    4.0250   37.3682 Br      1  UNL1       -0.0078
     31 O           2.1164    2.3011   35.3436 O.2     1  UNL1       -0.4495
@<TRIPOS>BOND
     1    20    21    1
     2    21    22    1
     3    21    23   am
     4    23    24    2
     5    23    14    1
     6    14    15   ar
     7    15    16   ar
     8    16    17   ar
     9    17     1    1
    10     1    25    1
    11    25    26    1
    12    26    27   ar
    13    27    28   ar
    14    28    29   ar
    15    29    30    1
    16    29    31   ar
    17     1     2   am
    18     2     3    2
    19     2     4    1
    20     4     5   ar
    21     5     6   ar
    22     6     7   ar
    23     7     8    1
    24     7     9   ar
    25     9    10   ar
    26    10    11    1
    27    17    18   ar
    28    18    19   ar
    29    19    14   ar
    30    31    26   ar
    31    10     4   ar
    32     8    12    1
    33    11    13    1
@<TRIPOS>MOLECULE
*****
 31 33 0 0 0
SMALL
GASTEIGER

@<TRIPOS>ATOM
      1 N           4.4547   -1.3719   18.7914 N.am    1  UNL1       -0.2475
      2 C           3.7851   -0.5662   17.7179 C.2     1  UNL1        0.2560
      3 O           3.9122   -0.9784   16.2812 O.2     1  UNL1       -0.2695
      4 C           2.9882    0.6517   18.0810 C.ar    1  UNL1        0.0877
      5 C           1.5115    0.5384   18.3185 C.ar    1  UNL1        0.0107
      6 C           0.7147    1.7563   18.6815 C.ar    1  UNL1        0.0370
      7 C           1.3946    3.0875   18.8071 C.ar    1  UNL1        0.1367
      8 O           0.5977    4.3053   19.1702 O.3     1  UNL1       -0.5054
      9 C           2.8713    3.2008   18.5696 C.ar    1  UNL1        0.0733
     10 C           3.6681    1.9828   18.2065 C.ar    1  UNL1        0.1410
     11 O           5.1449    2.0961   17.9690 O.3     1  UNL1       -0.5053
     12 H          -0.3247    4.2346   19.3186 H       1  UNL1        0.2922
     13 H           5.5696    2.9276   18.0475 H       1  UNL1        0.2922
     14 C           4.0731   -0.1353   23.1013 C.ar    1  UNL1        0.0537
     15 C           5.2174    0.3711   22.2742 C.ar    1  UNL1        0.0058
     16 C           5.3446   -0.0411   20.8376 C.ar    1  UNL1        0.0151
     17 C           4.3275   -0.9597   20.2280 C.ar    1  UNL1        0.0546
     18 C           3.1832   -1.4661   21.0551 C.ar    1  UNL1        0.0151
     19 C           3.0560   -1.0539   22.4917 C.ar    1  UNL1        0.0058
     20 C           4.4149   -0.1636   27.0551 C.3     1  UNL1        0.1152
     21 N           4.5421   -0.5758   25.6184 N.am    1  UNL1       -0.2726
     22 C           5.2655   -1.8407   25.2623 C.3     1  UNL1        0.1152
     23 C           3.9459    0.2769   24.5379 C.2     1  UNL1        0.2491
     24 O           3.2226    1.5417   24.8941 O.2     1  UNL1       -0.2699
     25 C           5.2514   -2.5898   18.4283 C.3     1  UNL1        0.1628
     26 C           6.4859   -2.9378   19.2061 C.ar    1  UNL1        0.1440
     27 C           7.8410   -2.3183   19.0329 C.ar    1  UNL1        0.0384
     28 C           8.7746   -2.9640   20.0134 C.ar    1  UNL1        0.0473
     29 C           7.9966   -3.9826   20.7926 C.ar    1  UNL1        0.1787
     30 BR          8.5379   -4.8629   21.8798 Br      1  UNL1       -0.0078
     31 O           6.5820   -3.9665   20.2936 O.2     1  UNL1       -0.4495
@<TRIPOS>BOND
     1    20    21    1
     2    21    22    1
     3    21    23   am
     4    23    24    2
     5    23    14    1
     6    14    15   ar
     7    15    16   ar
     8    16    17   ar
     9    17     1    1
    10     1    25    1
    11    25    26    1
    12    26    27   ar
    13    27    28   ar
    14    28    29   ar
    15    29    30    1
    16    29    31   ar
    17     1     2   am
    18     2     3    2
    19     2     4    1
    20     4     5   ar
    21     5     6   ar
    22     6     7   ar
    23     7     8    1
    24     7     9   ar
    25     9    10   ar
    26    10    11    1
    27    17    18   ar
    28    18    19   ar
    29    19    14   ar
    30    31    26   ar
    31    10     4   ar
    32     8    12    1
    33    11    13    1
@<TRIPOS>MOLECULE
*****
 31 33 0 0 0
SMALL
GASTEIGER

@<TRIPOS>ATOM
      1 N           4.5273    1.4479   35.1029 N.am    1  UNL1       -0.2475
      2 C           5.3228    0.2178   35.4253 C.2     1  UNL1        0.2560
      3 O           5.8877    0.0295   36.8021 O.2     1  UNL1       -0.2695
      4 C           5.5535   -0.8240   34.3710 C.ar    1  UNL1        0.0877
      5 C           4.4560   -1.7802   34.0087 C.ar    1  UNL1        0.0107
      6 C           4.6867   -2.8220   32.9545 C.ar    1  UNL1        0.0370
      7 C           6.0148   -2.9076   32.2624 C.ar    1  UNL1        0.1367
      8 O           6.2454   -3.9494   31.2082 O.3     1  UNL1       -0.5054
      9 C           7.1122   -1.9514   32.6247 C.ar    1  UNL1        0.0733
     10 C           6.8816   -0.9096   33.6790 C.ar    1  UNL1        0.1410
     11 O           7.9790    0.0467   34.0413 O.3     1  UNL1       -0.5053
     12 H           5.5599   -4.5467   30.9819 H       1  UNL1        0.2922
     13 H           8.8086   -0.0068   33.6090 H       1  UNL1        0.2922
     14 C           2.8326    2.0129   30.9726 C.ar    1  UNL1        0.0537
     15 C           4.3150    2.0815   31.1909 C.ar    1  UNL1        0.0058
     16 C           4.8799    1.8932   32.5677 C.ar    1  UNL1        0.0151
     17 C           3.9624    1.6362   33.7261 C.ar    1  UNL1        0.0546
     18 C           2.4800    1.5676   33.5078 C.ar    1  UNL1        0.0151
     19 C           1.9151    1.7559   32.1311 C.ar    1  UNL1        0.0058
     20 C           1.3976    1.1957   27.3639 C.3     1  UNL1        0.1152
     21 N           1.9625    1.0073   28.7406 N.am    1  UNL1       -0.2726
     22 C           2.2222   -0.3750   29.2621 C.3     1  UNL1        0.1152
     23 C           2.2677    2.2012   29.5959 C.2     1  UNL1        0.2491
     24 O           2.0080    3.5834   29.0744 O.2     1  UNL1       -0.2699
     25 C           4.2966    2.4896   36.1571 C.3     1  UNL1        0.1628
     26 C           3.2399    2.2793   37.2008 C.ar    1  UNL1        0.1440
     27 C           2.3353    3.3346   37.7646 C.ar    1  UNL1        0.0384
     28 C           1.4386    2.6844   38.7762 C.ar    1  UNL1        0.0473
     29 C           1.7891    1.2272   38.8375 C.ar    1  UNL1        0.1787
     30 BR          1.1402    0.2006   39.7178 Br      1  UNL1       -0.0078
     31 O           2.9024    0.9768   37.8639 O.2     1  UNL1       -0.4495
@<TRIPOS>BOND
     1    20    21    1
     2    21    22    1
     3    21    23   am
     4    23    24    2
     5    23    14    1
     6    14    15   ar
     7    15    16   ar
     8    16    17   ar
     9    17     1    1
    10     1    25    1
    11    25    26    1
    12    26    27   ar
    13    27    28   ar
    14    28    29   ar
    15    29    30    1
    16    29    31   ar
    17     1     2   am
    18     2     3    2
    19     2     4    1
    20     4     5   ar
    21     5     6   ar
    22     6     7   ar
    23     7     8    1
    24     7     9   ar
    25     9    10   ar
    26    10    11    1
    27    17    18   ar
    28    18    19   ar
    29    19    14   ar
    30    31    26   ar
    31    10     4   ar
    32     8    12    1
    33    11    13    1
