@<TRIPOS>MOLECULE
*****
 37 41 0 0 0
SMALL
GASTEIGER

@<TRIPOS>ATOM
      1 N           5.4286   -0.9273   27.8549 N.ar    1  UNL1       -0.2508
      2 N           5.2044   -0.6758   26.3933 N.ar    1  UNL1       -0.1678
      3 C           3.7674   -0.2892   26.2046 C.ar    1  UNL1        0.1194
      4 C           3.1036   -0.3017   27.5497 C.ar    1  UNL1        0.0411
      5 C           1.6968   -0.0049   27.9774 C.ar    1  UNL1        0.0402
      6 C           1.3168   -0.1026   29.4252 C.ar    1  UNL1        0.1444
      7 C           2.3435   -0.4969   30.4451 C.ar    1  UNL1        0.0386
      8 C           3.7502   -0.7937   30.0174 C.ar    1  UNL1        0.0219
      9 C           4.1303   -0.6961   28.5696 C.ar    1  UNL1        0.0796
     10 C           3.1097    0.0503   24.8999 C.ar    1  UNL1        0.0957
     11 C           2.1745    1.2198   24.8134 C.ar    1  UNL1        0.1191
     12 N           1.5168    1.5593   23.5088 N.ar    1  UNL1       -0.2223
     13 C           1.7944    0.7294   22.2905 C.ar    1  UNL1        0.1784
     14 N           1.2967    0.8214   20.8785 N.ar    1  UNL1       -0.2236
     15 C           1.9244   -0.2911   20.0923 C.ar    1  UNL1        0.1066
     16 C           2.8100   -1.0708   21.0184 C.ar    1  UNL1        0.0910
     17 C           2.7297   -0.4401   22.3770 C.ar    1  UNL1        0.0988
     18 N           3.3874   -0.7797   23.6816 N.ar    1  UNL1       -0.3481
     19 H           4.0013   -1.5473   23.7384 H       1  UNL1        0.1661
     20 C           3.6318   -2.2706   20.6505 C.2     1  UNL1        0.2488
     21 O           4.6751   -2.7842   21.5979 O.2     1  UNL1       -0.2700
     22 N           3.4102   -2.9567   19.3352 N.am    1  UNL1       -0.3039
     23 H           2.7254   -2.6196   18.7133 H       1  UNL1        0.1496
     24 C           4.2319   -4.1565   18.9673 C.3     1  UNL1        0.0572
     25 C           3.2156   -5.0507   19.6135 C.3     1  UNL1        0.0196
     26 C           5.2482   -3.2623   18.3211 C.3     1  UNL1        0.0196
     27 C           5.0536   -5.3563   18.5994 C.3     1  UNL1        0.0196
     28 C           6.7239   -1.3379   28.4904 C.3     1  UNL1        0.1302
     29 C           7.0090   -5.7235   31.1200 C.3     1  UNL1        0.0896
     30 N           6.9255   -4.4389   30.3498 N.3     1  UNL1       -0.2713
     31 C           6.9410   -4.0712   28.8956 C.3     1  UNL1        0.0755
     32 C           6.8074   -2.6225   29.2606 C.3     1  UNL1        0.0563
     33 C           6.7919   -2.9902   30.7148 C.3     1  UNL1        0.0755
     34 O          -0.0900    0.1942   29.8530 O.3     1  UNL1       -0.4236
     35 C          -1.2132    0.0850   28.8649 C.3     1  UNL1        0.5087
     36 F          -1.7186    1.3119   28.1654 F       1  UNL1       -0.1550
     37 F          -1.8310   -1.2511   28.5763 F       1  UNL1       -0.1550
@<TRIPOS>BOND
     1    29    30    1
     2    30    31    1
     3    31    32    1
     4    32    28    1
     5    28     1    1
     6     1     2   ar
     7     2     3   ar
     8     3    10    1
     9    10    11   ar
    10    11    12   ar
    11    12    13   ar
    12    13    14   ar
    13    14    15   ar
    14    15    16   ar
    15    16    20    1
    16    20    21    2
    17    20    22   am
    18    22    24    1
    19    24    25    1
    20    24    26    1
    21    24    27    1
    22    16    17   ar
    23    17    18   ar
    24     3     4   ar
    25     4     5   ar
    26     5     6   ar
    27     6    34    1
    28    34    35    1
    29    35    36    1
    30    35    37    1
    31     6     7   ar
    32     7     8   ar
    33     8     9   ar
    34    32    33    1
    35    33    30    1
    36     9     1   ar
    37    18    10   ar
    38     9     4   ar
    39    17    13    1
    40    22    23    1
    41    18    19    1
@<TRIPOS>MOLECULE
*****
 37 41 0 0 0
SMALL
GASTEIGER

@<TRIPOS>ATOM
      1 N           6.2869   -3.1127   25.4601 N.ar    1  UNL1       -0.2508
      2 N           5.4023   -2.1261   26.1630 N.ar    1  UNL1       -0.1678
      3 C           4.4133   -1.5982   25.1665 C.ar    1  UNL1        0.1194
      4 C           4.6867   -2.2584   23.8476 C.ar    1  UNL1        0.0411
      5 C           4.0308   -2.1283   22.5050 C.ar    1  UNL1        0.0402
      6 C           4.5329   -2.9341   21.3437 C.ar    1  UNL1        0.1444
      7 C           5.6908   -3.8701   21.5252 C.ar    1  UNL1        0.0386
      8 C           6.3467   -4.0003   22.8679 C.ar    1  UNL1        0.0219
      9 C           5.8447   -3.1945   24.0291 C.ar    1  UNL1        0.0796
     10 C           3.3395   -0.5874   25.4406 C.ar    1  UNL1        0.0957
     11 C           3.0654   -0.1472   26.8480 C.ar    1  UNL1        0.1191
     12 N           1.9915    0.8636   27.1222 N.ar    1  UNL1       -0.2223
     13 C           1.1917    1.4342   25.9888 C.ar    1  UNL1        0.1784
     14 N           0.0782    2.4385   25.9519 N.ar    1  UNL1       -0.2236
     15 C          -0.3361    2.6190   24.5216 C.ar    1  UNL1        0.1066
     16 C           0.5215    1.7263   23.6745 C.ar    1  UNL1        0.0910
     17 C           1.4657    0.9940   24.5813 C.ar    1  UNL1        0.0988
     18 N           2.5395   -0.0168   24.3071 N.ar    1  UNL1       -0.3481
     19 H           2.7194   -0.3057   23.3833 H       1  UNL1        0.1661
     20 C           0.4478    1.5898   22.1825 C.2     1  UNL1        0.2488
     21 O          -0.7820    2.0358   21.4484 O.2     1  UNL1       -0.2700
     22 N           1.6037    1.0073   21.4246 N.am    1  UNL1       -0.3039
     23 H           2.4108    0.7145   21.9064 H       1  UNL1        0.1496
     24 C           1.5300    0.8708   19.9327 C.3     1  UNL1        0.0572
     25 C           2.0394    2.2732   19.7792 C.3     1  UNL1        0.0196
     26 C           1.0205   -0.5317   20.0861 C.3     1  UNL1        0.0196
     27 C           1.4562    0.7343   18.4407 C.3     1  UNL1        0.0196
     28 C           7.4157   -3.8824   26.0794 C.3     1  UNL1        0.1302
     29 C           6.9716   -5.6832   30.8531 C.3     1  UNL1        0.0896
     30 N           7.1017   -5.1557   29.4549 N.3     1  UNL1       -0.2713
     31 C           6.3416   -5.3436   28.1754 C.3     1  UNL1        0.0755
     32 C           7.2856   -4.4098   27.4776 C.3     1  UNL1        0.0563
     33 C           8.0457   -4.2220   28.7571 C.3     1  UNL1        0.0755
     34 O           3.8770   -2.8039   20.0010 O.3     1  UNL1       -0.4236
     35 C           3.7722   -3.9976   19.0986 C.3     1  UNL1        0.5087
     36 F           4.9512   -4.4194   18.2729 F       1  UNL1       -0.1550
     37 F           2.4882   -4.7694   19.0220 F       1  UNL1       -0.1550
@<TRIPOS>BOND
     1    29    30    1
     2    30    31    1
     3    31    32    1
     4    32    28    1
     5    28     1    1
     6     1     2   ar
     7     2     3   ar
     8     3    10    1
     9    10    11   ar
    10    11    12   ar
    11    12    13   ar
    12    13    14   ar
    13    14    15   ar
    14    15    16   ar
    15    16    20    1
    16    20    21    2
    17    20    22   am
    18    22    24    1
    19    24    25    1
    20    24    26    1
    21    24    27    1
    22    16    17   ar
    23    17    18   ar
    24     3     4   ar
    25     4     5   ar
    26     5     6   ar
    27     6    34    1
    28    34    35    1
    29    35    36    1
    30    35    37    1
    31     6     7   ar
    32     7     8   ar
    33     8     9   ar
    34    32    33    1
    35    33    30    1
    36     9     1   ar
    37    18    10   ar
    38     9     4   ar
    39    17    13    1
    40    22    23    1
    41    18    19    1
@<TRIPOS>MOLECULE
*****
 37 41 0 0 0
SMALL
GASTEIGER

@<TRIPOS>ATOM
      1 N           2.7971    0.1634   23.8494 N.ar    1  UNL1       -0.2508
      2 N           1.8999    1.2149   23.2668 N.ar    1  UNL1       -0.1678
      3 C           1.6905    0.8939   21.8166 C.ar    1  UNL1        0.1194
      4 C           2.4583   -0.3560   21.5029 C.ar    1  UNL1        0.0411
      5 C           2.6230   -1.1413   20.2356 C.ar    1  UNL1        0.0402
      6 C           3.4716   -2.3781   20.2247 C.ar    1  UNL1        0.1444
      7 C           4.1555   -2.8296   21.4810 C.ar    1  UNL1        0.0386
      8 C           3.9908   -2.0443   22.7484 C.ar    1  UNL1        0.0219
      9 C           3.1422   -0.8075   22.7593 C.ar    1  UNL1        0.0796
     10 C           0.8593    1.6840   20.8498 C.ar    1  UNL1        0.0957
     11 C           1.3931    1.9977   19.4836 C.ar    1  UNL1        0.1191
     12 N           0.5619    2.7878   18.5168 N.ar    1  UNL1       -0.2223
     13 C          -0.8032    3.2643   18.9162 C.ar    1  UNL1        0.1784
     14 N          -1.8442    4.0567   18.1825 N.ar    1  UNL1       -0.2236
     15 C          -3.0214    4.2328   19.0952 C.ar    1  UNL1        0.1066
     16 C          -2.7079    3.5492   20.3931 C.ar    1  UNL1        0.0910
     17 C          -1.3370    2.9507   20.2824 C.ar    1  UNL1        0.0988
     18 N          -0.5058    2.1605   21.2492 N.ar    1  UNL1       -0.3481
     19 H          -0.8562    1.9547   22.1460 H       1  UNL1        0.1661
     20 C          -3.6076    3.4769   21.5912 C.2     1  UNL1        0.2488
     21 O          -4.7014    2.4521   21.6470 O.2     1  UNL1       -0.2700
     22 N          -3.4132    4.4294   22.7336 N.am    1  UNL1       -0.3039
     23 H          -2.6953    5.1021   22.6969 H       1  UNL1        0.1496
     24 C          -4.3128    4.3571   23.9316 C.3     1  UNL1        0.0572
     25 C          -5.2945    5.2630   23.2493 C.3     1  UNL1        0.0196
     26 C          -3.3312    3.4511   24.6141 C.3     1  UNL1        0.0196
     27 C          -5.2125    4.2848   25.1298 C.3     1  UNL1        0.0196
     28 C           3.2667    0.0947   25.2724 C.3     1  UNL1        0.1302
     29 C           0.1483    1.5364   29.0705 C.3     1  UNL1        0.0896
     30 N           1.0617    1.1141   27.9581 N.3     1  UNL1       -0.2713
     31 C           1.1590    1.4181   26.4924 C.3     1  UNL1        0.0755
     32 C           2.3533    0.5170   26.3849 C.3     1  UNL1        0.0563
     33 C           2.2560    0.2130   27.8505 C.3     1  UNL1        0.0755
     34 O           3.6364   -3.1635   18.9573 O.3     1  UNL1       -0.4236
     35 C           3.7581   -4.6575   19.0113 C.3     1  UNL1        0.5087
     36 F           4.8752   -5.3458   18.2845 F       1  UNL1       -0.1550
     37 F           2.7625   -5.4633   19.7922 F       1  UNL1       -0.1550
@<TRIPOS>BOND
     1    29    30    1
     2    30    31    1
     3    31    32    1
     4    32    28    1
     5    28     1    1
     6     1     2   ar
     7     2     3   ar
     8     3    10    1
     9    10    11   ar
    10    11    12   ar
    11    12    13   ar
    12    13    14   ar
    13    14    15   ar
    14    15    16   ar
    15    16    20    1
    16    20    21    2
    17    20    22   am
    18    22    24    1
    19    24    25    1
    20    24    26    1
    21    24    27    1
    22    16    17   ar
    23    17    18   ar
    24     3     4   ar
    25     4     5   ar
    26     5     6   ar
    27     6    34    1
    28    34    35    1
    29    35    36    1
    30    35    37    1
    31     6     7   ar
    32     7     8   ar
    33     8     9   ar
    34    32    33    1
    35    33    30    1
    36     9     1   ar
    37    18    10   ar
    38     9     4   ar
    39    17    13    1
    40    22    23    1
    41    18    19    1
@<TRIPOS>MOLECULE
*****
 37 41 0 0 0
SMALL
GASTEIGER

@<TRIPOS>ATOM
      1 N           3.5623   -0.4377   24.3095 N.ar    1  UNL1       -0.2508
      2 N           4.5465   -1.3080   25.0334 N.ar    1  UNL1       -0.1678
      3 C           4.9900   -2.3883   24.0921 C.ar    1  UNL1        0.1194
      4 C           4.2800   -2.1858   22.7864 C.ar    1  UNL1        0.0411
      5 C           4.3229   -2.9434   21.4926 C.ar    1  UNL1        0.0402
      6 C           3.4835   -2.4955   20.3330 C.ar    1  UNL1        0.1444
      7 C           2.6011   -1.2899   20.4673 C.ar    1  UNL1        0.0386
      8 C           2.5582   -0.5323   21.7612 C.ar    1  UNL1        0.0219
      9 C           3.3976   -0.9803   22.9208 C.ar    1  UNL1        0.0796
     10 C           5.9713   -3.4797   24.4021 C.ar    1  UNL1        0.0957
     11 C           6.6007   -4.2612   23.2873 C.ar    1  UNL1        0.1191
     12 N           7.5820   -5.3526   23.5973 N.ar    1  UNL1       -0.2223
     13 C           7.9339   -5.6624   25.0221 C.ar    1  UNL1        0.1784
     14 N           8.8604   -6.6732   25.6302 N.ar    1  UNL1       -0.2236
     15 C           8.8036   -6.5164   27.1209 C.ar    1  UNL1        0.1066
     16 C           7.8419   -5.4086   27.4341 C.ar    1  UNL1        0.0910
     17 C           7.3044   -4.8808   26.1370 C.ar    1  UNL1        0.0988
     18 N           6.3231   -3.7895   25.8270 N.ar    1  UNL1       -0.3481
     19 H           5.9100   -3.2765   26.5588 H       1  UNL1        0.1661
     20 C           7.4811   -4.9153   28.8040 C.2     1  UNL1        0.2488
     21 O           6.5753   -5.7293   29.6798 O.2     1  UNL1       -0.2700
     22 N           8.0262   -3.6081   29.2981 N.am    1  UNL1       -0.3039
     23 H           8.6207   -3.0739   28.7233 H       1  UNL1        0.1496
     24 C           7.6653   -3.1149   30.6679 C.3     1  UNL1        0.0572
     25 C           6.4708   -2.4084   30.0989 C.3     1  UNL1        0.0196
     26 C           8.8600   -3.8214   31.2370 C.3     1  UNL1        0.0196
     27 C           7.3045   -2.6216   32.0378 C.3     1  UNL1        0.0196
     28 C           2.8652    0.7641   24.8749 C.3     1  UNL1        0.1302
     29 C           1.1212    0.6831   29.6895 C.3     1  UNL1        0.0896
     30 N           1.6320    0.7068   28.2793 N.3     1  UNL1       -0.2713
     31 C           1.1839    1.3483   26.9995 C.3     1  UNL1        0.0755
     32 C           2.3544    0.7404   26.2851 C.3     1  UNL1        0.0563
     33 C           2.8025    0.0990   27.5649 C.3     1  UNL1        0.0755
     34 O           3.5264   -3.2531   19.0390 O.3     1  UNL1       -0.4236
     35 C           3.7698   -4.7332   19.0443 C.3     1  UNL1        0.5087
     36 F           4.8165   -5.3243   18.1472 F       1  UNL1       -0.1550
     37 F           2.9663   -5.6222   19.9467 F       1  UNL1       -0.1550
@<TRIPOS>BOND
     1    29    30    1
     2    30    31    1
     3    31    32    1
     4    32    28    1
     5    28     1    1
     6     1     2   ar
     7     2     3   ar
     8     3    10    1
     9    10    11   ar
    10    11    12   ar
    11    12    13   ar
    12    13    14   ar
    13    14    15   ar
    14    15    16   ar
    15    16    20    1
    16    20    21    2
    17    20    22   am
    18    22    24    1
    19    24    25    1
    20    24    26    1
    21    24    27    1
    22    16    17   ar
    23    17    18   ar
    24     3     4   ar
    25     4     5   ar
    26     5     6   ar
    27     6    34    1
    28    34    35    1
    29    35    36    1
    30    35    37    1
    31     6     7   ar
    32     7     8   ar
    33     8     9   ar
    34    32    33    1
    35    33    30    1
    36     9     1   ar
    37    18    10   ar
    38     9     4   ar
    39    17    13    1
    40    22    23    1
    41    18    19    1
@<TRIPOS>MOLECULE
*****
 37 41 0 0 0
SMALL
GASTEIGER

@<TRIPOS>ATOM
      1 N           2.4626    0.1348   23.8703 N.ar    1  UNL1       -0.2508
      2 N           2.9182    0.0223   25.2950 N.ar    1  UNL1       -0.1678
      3 C           3.9130   -1.0975   25.3764 C.ar    1  UNL1        0.1194
      4 C           4.0722   -1.6770   24.0021 C.ar    1  UNL1        0.0411
      5 C           4.9175   -2.7998   23.4780 C.ar    1  UNL1        0.0402
      6 C           4.8664   -3.1609   22.0230 C.ar    1  UNL1        0.1444
      7 C           3.9701   -2.3993   21.0922 C.ar    1  UNL1        0.0386
      8 C           3.1247   -1.2765   21.6163 C.ar    1  UNL1        0.0219
      9 C           3.1758   -0.9154   23.0712 C.ar    1  UNL1        0.0796
     10 C           4.6238   -1.5570   26.6148 C.ar    1  UNL1        0.0957
     11 C           4.3009   -0.9333   27.9401 C.ar    1  UNL1        0.1191
     12 N           5.0117   -1.3929   29.1785 N.ar    1  UNL1       -0.2223
     13 C           6.0455   -2.4763   29.0915 C.ar    1  UNL1        0.1784
     14 N           6.9036   -3.1308   30.1332 N.ar    1  UNL1       -0.2236
     15 C           7.7568   -4.1591   29.4517 C.ar    1  UNL1        0.1066
     16 C           7.4260   -4.1402   27.9888 C.ar    1  UNL1        0.0910
     17 C           6.3684   -3.1001   27.7661 C.ar    1  UNL1        0.0988
     18 N           5.6576   -2.6405   26.5278 N.ar    1  UNL1       -0.3481
     19 H           5.8695   -3.0500   25.6579 H       1  UNL1        0.1661
     20 C           8.0444   -5.0088   26.9337 C.2     1  UNL1        0.2488
     21 O           9.5347   -5.0387   26.7655 O.2     1  UNL1       -0.2700
     22 N           7.1726   -5.8475   26.0469 N.am    1  UNL1       -0.3039
     23 H           6.1945   -5.8279   26.1573 H       1  UNL1        0.1496
     24 C           7.7910   -6.7161   24.9919 C.3     1  UNL1        0.0572
     25 C           7.8170   -7.8664   25.9542 C.3     1  UNL1        0.0196
     26 C           7.7650   -5.5657   24.0295 C.3     1  UNL1        0.0196
     27 C           8.4094   -7.5848   23.9368 C.3     1  UNL1        0.0196
     28 C           1.4684    1.1239   23.3381 C.3     1  UNL1        0.1302
     29 C          -1.9477    3.2708   26.4925 C.3     1  UNL1        0.0896
     30 N          -0.9471    2.6419   25.5685 N.3     1  UNL1       -0.2713
     31 C          -0.2813    3.0520   24.2885 C.3     1  UNL1        0.0755
     32 C           0.4678    1.7527   24.2620 C.3     1  UNL1        0.0563
     33 C          -0.1980    1.3427   25.5421 C.3     1  UNL1        0.0755
     34 O           5.7118   -4.2838   21.4988 O.3     1  UNL1       -0.4236
     35 C           6.9639   -3.9837   20.7293 C.3     1  UNL1        0.5087
     36 F           8.1265   -4.9296   20.7903 F       1  UNL1       -0.1550
     37 F           7.0535   -2.7378   19.8988 F       1  UNL1       -0.1550
@<TRIPOS>BOND
     1    29    30    1
     2    30    31    1
     3    31    32    1
     4    32    28    1
     5    28     1    1
     6     1     2   ar
     7     2     3   ar
     8     3    10    1
     9    10    11   ar
    10    11    12   ar
    11    12    13   ar
    12    13    14   ar
    13    14    15   ar
    14    15    16   ar
    15    16    20    1
    16    20    21    2
    17    20    22   am
    18    22    24    1
    19    24    25    1
    20    24    26    1
    21    24    27    1
    22    16    17   ar
    23    17    18   ar
    24     3     4   ar
    25     4     5   ar
    26     5     6   ar
    27     6    34    1
    28    34    35    1
    29    35    36    1
    30    35    37    1
    31     6     7   ar
    32     7     8   ar
    33     8     9   ar
    34    32    33    1
    35    33    30    1
    36     9     1   ar
    37    18    10   ar
    38     9     4   ar
    39    17    13    1
    40    22    23    1
    41    18    19    1
@<TRIPOS>MOLECULE
*****
 37 41 0 0 0
SMALL
GASTEIGER

@<TRIPOS>ATOM
      1 N           2.4152   -1.1859   20.1570 N.ar    1  UNL1       -0.2508
      2 N           1.5441   -0.3187   19.2973 N.ar    1  UNL1       -0.1678
      3 C           1.0200    0.8000   20.1480 C.ar    1  UNL1        0.1194
      4 C           1.5673    0.6243   21.5335 C.ar    1  UNL1        0.0411
      5 C           1.3918    1.4233   22.7908 C.ar    1  UNL1        0.0402
      6 C           2.0786    0.9949   24.0536 C.ar    1  UNL1        0.1444
      7 C           2.9409   -0.2324   24.0592 C.ar    1  UNL1        0.0386
      8 C           3.1164   -1.0314   22.8019 C.ar    1  UNL1        0.0219
      9 C           2.4296   -0.6031   21.5391 C.ar    1  UNL1        0.0796
     10 C           0.1087    1.9012   19.6932 C.ar    1  UNL1        0.0957
     11 C           0.3289    2.5549   18.3613 C.ar    1  UNL1        0.1191
     12 N          -0.5825    3.6561   17.9064 N.ar    1  UNL1       -0.2223
     13 C          -1.7141    4.1035   18.7835 C.ar    1  UNL1        0.1784
     14 N          -2.7677    5.1558   18.6038 N.ar    1  UNL1       -0.2236
     15 C          -3.6392    5.1525   19.8246 C.ar    1  UNL1        0.1066
     16 C          -3.1241    4.0981   20.7589 C.ar    1  UNL1        0.0910
     17 C          -1.9343    3.4498   20.1154 C.ar    1  UNL1        0.0988
     18 N          -1.0230    2.3486   20.5703 N.ar    1  UNL1       -0.3481
     19 H          -1.1675    1.9195   21.4445 H       1  UNL1        0.1661
     20 C          -3.6981    3.7526   22.1010 C.2     1  UNL1        0.2488
     21 O          -4.6172    2.5757   22.2432 O.2     1  UNL1       -0.2700
     22 N          -3.3531    4.5840   23.3008 N.am    1  UNL1       -0.3039
     23 H          -2.7498    5.3564   23.2075 H       1  UNL1        0.1496
     24 C          -3.9270    4.2385   24.6429 C.3     1  UNL1        0.0572
     25 C          -5.1302    5.0835   24.3458 C.3     1  UNL1        0.0196
     26 C          -2.7238    3.3935   24.9400 C.3     1  UNL1        0.0196
     27 C          -4.5011    3.8930   25.9850 C.3     1  UNL1        0.0196
     28 C           3.1441   -2.4193   19.7127 C.3     1  UNL1        0.1302
     29 C           8.1999   -2.2571   18.9114 C.3     1  UNL1        0.0896
     30 N           6.7190   -2.3046   19.1461 N.3     1  UNL1       -0.2713
     31 C           5.5659   -3.0182   18.5049 C.3     1  UNL1        0.0755
     32 C           4.6250   -2.3718   19.4780 C.3     1  UNL1        0.0563
     33 C           5.7781   -1.6582   20.1191 C.3     1  UNL1        0.0755
     34 O           1.9032    1.7939   25.3110 O.3     1  UNL1       -0.4236
     35 C           0.5413    1.9408   25.9224 C.3     1  UNL1        0.5087
     36 F          -0.4844    0.8622   25.7367 F       1  UNL1       -0.1550
     37 F           0.2052    3.1663   26.7194 F       1  UNL1       -0.1550
@<TRIPOS>BOND
     1    29    30    1
     2    30    31    1
     3    31    32    1
     4    32    28    1
     5    28     1    1
     6     1     2   ar
     7     2     3   ar
     8     3    10    1
     9    10    11   ar
    10    11    12   ar
    11    12    13   ar
    12    13    14   ar
    13    14    15   ar
    14    15    16   ar
    15    16    20    1
    16    20    21    2
    17    20    22   am
    18    22    24    1
    19    24    25    1
    20    24    26    1
    21    24    27    1
    22    16    17   ar
    23    17    18   ar
    24     3     4   ar
    25     4     5   ar
    26     5     6   ar
    27     6    34    1
    28    34    35    1
    29    35    36    1
    30    35    37    1
    31     6     7   ar
    32     7     8   ar
    33     8     9   ar
    34    32    33    1
    35    33    30    1
    36     9     1   ar
    37    18    10   ar
    38     9     4   ar
    39    17    13    1
    40    22    23    1
    41    18    19    1
@<TRIPOS>MOLECULE
*****
 37 41 0 0 0
SMALL
GASTEIGER

@<TRIPOS>ATOM
      1 N           5.8542   -2.3672   25.2549 N.ar    1  UNL1       -0.2508
      2 N           4.8440   -1.4057   25.8072 N.ar    1  UNL1       -0.1678
      3 C           3.8733   -1.0740   24.7128 C.ar    1  UNL1        0.1194
      4 C           4.2835   -1.8305   23.4842 C.ar    1  UNL1        0.0411
      5 C           3.7004   -1.8948   22.1037 C.ar    1  UNL1        0.0402
      6 C           4.3417   -2.7584   21.0583 C.ar    1  UNL1        0.1444
      7 C           5.5660   -3.5576   21.3933 C.ar    1  UNL1        0.0386
      8 C           6.1491   -3.4933   22.7738 C.ar    1  UNL1        0.0219
      9 C           5.5078   -2.6298   23.8193 C.ar    1  UNL1        0.0796
     10 C           2.6985   -0.1484   24.8270 C.ar    1  UNL1        0.0957
     11 C           2.0661    0.4171   23.5900 C.ar    1  UNL1        0.1191
     12 N           0.8914    1.3428   23.7042 N.ar    1  UNL1       -0.2223
     13 C           0.3489    1.7030   25.0554 C.ar    1  UNL1        0.1784
     14 N          -0.7894    2.5838   25.4779 N.ar    1  UNL1       -0.2236
     15 C          -0.8606    2.5627   26.9760 C.ar    1  UNL1        0.1066
     16 C           0.2337    1.6689   27.4795 C.ar    1  UNL1        0.0910
     17 C           0.9812    1.1375   26.2925 C.ar    1  UNL1        0.0988
     18 N           2.1560    0.2119   26.1784 N.ar    1  UNL1       -0.3481
     19 H           2.5710   -0.1592   26.9903 H       1  UNL1        0.1661
     20 C           0.5287    1.3605   28.9176 C.2     1  UNL1        0.2488
     21 O          -0.0713    0.1465   29.5626 O.2     1  UNL1       -0.2700
     22 N           1.4236    2.2662   29.7105 N.am    1  UNL1       -0.3039
     23 H           1.8174    3.0630   29.2871 H       1  UNL1        0.1496
     24 C           1.7186    1.9578   31.1485 C.3     1  UNL1        0.0572
     25 C           0.5139    2.7484   31.5651 C.3     1  UNL1        0.0196
     26 C           2.9234    1.1672   30.7319 C.3     1  UNL1        0.0196
     27 C           2.0135    1.6494   32.5866 C.3     1  UNL1        0.0196
     28 C           7.0083   -2.9618   26.0064 C.3     1  UNL1        0.1302
     29 C           7.4668   -8.0483   26.3890 C.3     1  UNL1        0.0896
     30 N           7.3325   -6.5584   26.2769 N.3     1  UNL1       -0.2713
     31 C           6.5641   -5.5041   27.0172 C.3     1  UNL1        0.0755
     32 C           7.1425   -4.4517   26.1184 C.3     1  UNL1        0.0563
     33 C           7.9109   -5.5060   25.3781 C.3     1  UNL1        0.0755
     34 O           3.7586   -2.8227   19.6777 O.3     1  UNL1       -0.4236
     35 C           3.6398   -4.1423   18.9745 C.3     1  UNL1        0.5087
     36 F           2.3232   -4.8604   18.9444 F       1  UNL1       -0.1550
     37 F           4.8378   -4.7439   18.3013 F       1  UNL1       -0.1550
@<TRIPOS>BOND
     1    29    30    1
     2    30    31    1
     3    31    32    1
     4    32    28    1
     5    28     1    1
     6     1     2   ar
     7     2     3   ar
     8     3    10    1
     9    10    11   ar
    10    11    12   ar
    11    12    13   ar
    12    13    14   ar
    13    14    15   ar
    14    15    16   ar
    15    16    20    1
    16    20    21    2
    17    20    22   am
    18    22    24    1
    19    24    25    1
    20    24    26    1
    21    24    27    1
    22    16    17   ar
    23    17    18   ar
    24     3     4   ar
    25     4     5   ar
    26     5     6   ar
    27     6    34    1
    28    34    35    1
    29    35    36    1
    30    35    37    1
    31     6     7   ar
    32     7     8   ar
    33     8     9   ar
    34    32    33    1
    35    33    30    1
    36     9     1   ar
    37    18    10   ar
    38     9     4   ar
    39    17    13    1
    40    22    23    1
    41    18    19    1
@<TRIPOS>MOLECULE
*****
 37 41 0 0 0
SMALL
GASTEIGER

@<TRIPOS>ATOM
      1 N           6.6451   -3.1122   29.4855 N.ar    1  UNL1       -0.2508
      2 N           5.6754   -2.1283   28.9010 N.ar    1  UNL1       -0.1678
      3 C           5.6742   -2.3076   27.4117 C.ar    1  UNL1        0.1194
      4 C           6.6433   -3.4022   27.0758 C.ar    1  UNL1        0.0411
      5 C           7.0567   -4.0103   25.7685 C.ar    1  UNL1        0.0402
      6 C           8.0703   -5.1157   25.7428 C.ar    1  UNL1        0.1444
      7 C           8.6703   -5.6130   27.0245 C.ar    1  UNL1        0.0386
      8 C           8.2568   -5.0049   28.3318 C.ar    1  UNL1        0.0219
      9 C           7.2433   -3.8995   28.3575 C.ar    1  UNL1        0.0796
     10 C           4.8490   -1.5289   26.4306 C.ar    1  UNL1        0.0957
     11 C           4.1875   -0.2511   26.8544 C.ar    1  UNL1        0.1191
     12 N           3.3623    0.5276   25.8732 N.ar    1  UNL1       -0.2223
     13 C           3.1984    0.0284   24.4682 C.ar    1  UNL1        0.1784
     14 N           2.4510    0.5767   23.2890 N.ar    1  UNL1       -0.2236
     15 C           2.6504   -0.3622   22.1364 C.ar    1  UNL1        0.1066
     16 C           3.5212   -1.4908   22.6032 C.ar    1  UNL1        0.0910
     17 C           3.8599   -1.2494   24.0444 C.ar    1  UNL1        0.0988
     18 N           4.6851   -2.0281   25.0255 N.ar    1  UNL1       -0.3481
     19 H           5.1193   -2.8668   24.7473 H       1  UNL1        0.1661
     20 C           3.9738   -2.6563   21.7744 C.2     1  UNL1        0.2488
     21 O           4.3163   -3.9585   22.4352 O.2     1  UNL1       -0.2700
     22 N           4.0839   -2.5194   20.2847 N.am    1  UNL1       -0.3039
     23 H           3.8591   -1.6647   19.8510 H       1  UNL1        0.1496
     24 C           4.5365   -3.6848   19.4559 C.3     1  UNL1        0.0572
     25 C           3.1074   -4.0854   19.2389 C.3     1  UNL1        0.0196
     26 C           5.9656   -3.2842   19.6730 C.3     1  UNL1        0.0196
     27 C           4.9890   -4.8503   18.6271 C.3     1  UNL1        0.0196
     28 C           6.9612   -3.2794   30.9422 C.3     1  UNL1        0.1302
     29 C           4.3996   -0.5617   34.4467 C.3     1  UNL1        0.0896
     30 N           5.1499   -1.3577   33.4202 N.3     1  UNL1       -0.2713
     31 C           5.0429   -2.7496   32.8714 C.3     1  UNL1        0.0755
     32 C           6.2109   -2.4834   31.9687 C.3     1  UNL1        0.0563
     33 C           6.3179   -1.0915   32.5176 C.3     1  UNL1        0.0755
     34 O           8.4838   -5.7240   24.4355 O.3     1  UNL1       -0.4236
     35 C           8.3253   -7.1985   24.2108 C.3     1  UNL1        0.5087
     36 F           8.9600   -7.8478   23.0168 F       1  UNL1       -0.1550
     37 F           7.5321   -8.0239   25.1802 F       1  UNL1       -0.1550
@<TRIPOS>BOND
     1    29    30    1
     2    30    31    1
     3    31    32    1
     4    32    28    1
     5    28     1    1
     6     1     2   ar
     7     2     3   ar
     8     3    10    1
     9    10    11   ar
    10    11    12   ar
    11    12    13   ar
    12    13    14   ar
    13    14    15   ar
    14    15    16   ar
    15    16    20    1
    16    20    21    2
    17    20    22   am
    18    22    24    1
    19    24    25    1
    20    24    26    1
    21    24    27    1
    22    16    17   ar
    23    17    18   ar
    24     3     4   ar
    25     4     5   ar
    26     5     6   ar
    27     6    34    1
    28    34    35    1
    29    35    36    1
    30    35    37    1
    31     6     7   ar
    32     7     8   ar
    33     8     9   ar
    34    32    33    1
    35    33    30    1
    36     9     1   ar
    37    18    10   ar
    38     9     4   ar
    39    17    13    1
    40    22    23    1
    41    18    19    1
@<TRIPOS>MOLECULE
*****
 37 41 0 0 0
SMALL
GASTEIGER

@<TRIPOS>ATOM
      1 N           3.1629   -0.3368   24.8743 N.ar    1  UNL1       -0.2508
      2 N           4.1871   -1.3186   25.3612 N.ar    1  UNL1       -0.1678
      3 C           4.6640   -2.1139   24.1822 C.ar    1  UNL1        0.1194
      4 C           3.9346   -1.6236   22.9667 C.ar    1  UNL1        0.0411
      5 C           3.9953   -2.0354   21.5256 C.ar    1  UNL1        0.0402
      6 C           3.1284   -1.3488   20.5123 C.ar    1  UNL1        0.1444
      7 C           2.2006   -0.2505   20.9400 C.ar    1  UNL1        0.0386
      8 C           2.1399    0.1613   22.3811 C.ar    1  UNL1        0.0219
      9 C           3.0069   -0.5253   23.3944 C.ar    1  UNL1        0.0796
     10 C           5.6902   -3.2076   24.2133 C.ar    1  UNL1        0.0957
     11 C           6.0601   -3.9251   22.9492 C.ar    1  UNL1        0.1191
     12 N           7.0863   -5.0188   22.9803 N.ar    1  UNL1       -0.2223
     13 C           7.7425   -5.3948   24.2756 C.ar    1  UNL1        0.1784
     14 N           8.7806   -6.4235   24.6133 N.ar    1  UNL1       -0.2236
     15 C           9.0523   -6.3418   26.0862 C.ar    1  UNL1        0.1066
     16 C           8.1821   -5.2625   26.6588 C.ar    1  UNL1        0.0910
     17 C           7.3726   -4.6773   25.5398 C.ar    1  UNL1        0.0988
     18 N           6.3465   -3.5837   25.5087 N.ar    1  UNL1       -0.3481
     19 H           6.1037   -3.1127   26.3385 H       1  UNL1        0.1661
     20 C           8.1305   -4.8423   28.0979 C.2     1  UNL1        0.2488
     21 O           9.3979   -4.5094   28.8279 O.2     1  UNL1       -0.2700
     22 N           6.8115   -4.7550   28.8069 N.am    1  UNL1       -0.3039
     23 H           5.9797   -4.9735   28.3277 H       1  UNL1        0.1496
     24 C           6.7600   -4.3348   30.2458 C.3     1  UNL1        0.0572
     25 C           6.9843   -5.7563   30.6690 C.3     1  UNL1        0.0196
     26 C           6.5356   -2.9132   29.8227 C.3     1  UNL1        0.0196
     27 C           6.7084   -3.9146   31.6849 C.3     1  UNL1        0.0196
     28 C           2.4244    0.6588   25.7190 C.3     1  UNL1        0.1302
     29 C           2.6571    0.3564   30.8262 C.3     1  UNL1        0.0896
     30 N           2.5889    0.4450   29.3302 N.3     1  UNL1       -0.2713
     31 C           2.2081   -0.4986   28.2281 C.3     1  UNL1        0.0755
     32 C           2.4926    0.5702   27.2149 C.3     1  UNL1        0.0563
     33 C           2.8734    1.5138   28.3170 C.3     1  UNL1        0.0755
     34 O           3.1891   -1.7606   19.0711 O.3     1  UNL1       -0.4236
     35 C           3.8279   -0.8564   18.0590 C.3     1  UNL1        0.5087
     36 F           3.3624   -0.8792   16.6333 F       1  UNL1       -0.1550
     37 F           4.9322    0.0706   18.4728 F       1  UNL1       -0.1550
@<TRIPOS>BOND
     1    29    30    1
     2    30    31    1
     3    31    32    1
     4    32    28    1
     5    28     1    1
     6     1     2   ar
     7     2     3   ar
     8     3    10    1
     9    10    11   ar
    10    11    12   ar
    11    12    13   ar
    12    13    14   ar
    13    14    15   ar
    14    15    16   ar
    15    16    20    1
    16    20    21    2
    17    20    22   am
    18    22    24    1
    19    24    25    1
    20    24    26    1
    21    24    27    1
    22    16    17   ar
    23    17    18   ar
    24     3     4   ar
    25     4     5   ar
    26     5     6   ar
    27     6    34    1
    28    34    35    1
    29    35    36    1
    30    35    37    1
    31     6     7   ar
    32     7     8   ar
    33     8     9   ar
    34    32    33    1
    35    33    30    1
    36     9     1   ar
    37    18    10   ar
    38     9     4   ar
    39    17    13    1
    40    22    23    1
    41    18    19    1
