@<TRIPOS>MOLECULE
*****
 37 41 0 0 0
SMALL
GASTEIGER

@<TRIPOS>ATOM
      1 C          -5.7982  -16.3202   23.7968 C.3     1  UNL1        0.1225
      2 O          -6.4330  -15.7303   25.0211 O.3     1  UNL1       -0.3559
      3 C          -7.8941  -15.9437   25.2852 C.3     1  UNL1        0.1441
      4 C          -8.7203  -16.7469   24.3249 C.3     1  UNL1        0.0589
      5 C          -8.0855  -17.3369   23.1006 C.3     1  UNL1        0.1466
      6 C          -8.9118  -18.1401   22.1404 C.ar    1  UNL1        0.0618
      7 C         -10.3728  -18.3535   22.4045 C.ar    1  UNL1        0.1407
      8 F         -11.3084  -17.9231   23.4952 F       1  UNL1       -0.2043
      9 C         -11.1991  -19.1568   21.4442 C.ar    1  UNL1        0.0319
     10 C         -10.5643  -19.7467   20.2199 C.ar    1  UNL1        0.0351
     11 C          -9.1032  -19.5333   19.9559 C.ar    1  UNL1        0.1737
     12 F          -8.4684  -20.1233   18.7315 F       1  UNL1       -0.2010
     13 C          -8.2770  -18.7301   20.9161 C.ar    1  UNL1        0.1655
     14 O          -6.8159  -18.5167   20.6520 O.3     1  UNL1       -0.4732
     15 C          -5.9896  -17.7135   21.6122 C.3     1  UNL1        0.2098
     16 C          -6.6245  -17.1235   22.8366 C.3     1  UNL1        0.0957
     17 S          -9.5466  -17.5502   23.3647 S.O2    1  UNL1        0.0094
     18 O          -9.7724  -18.2473   23.6786 O.2     1  UNL1       -0.1684
     19 O         -10.1872  -16.2703   22.9158 O.2     1  UNL1       -0.1684
     20 C         -11.0077  -17.7635   23.6288 C.ar    1  UNL1        0.1059
     21 C         -12.0298  -16.9529   22.8885 C.ar    1  UNL1        0.0192
     22 C         -13.4910  -17.1662   23.1526 C.ar    1  UNL1        0.0127
     23 C         -13.9299  -18.1902   24.1569 C.ar    1  UNL1        0.0578
     24 CL        -15.3909  -18.4035   24.4210 Cl      1  UNL1       -0.0822
     25 C         -12.9077  -19.0008   24.8972 C.ar    1  UNL1        0.0127
     26 C         -11.4466  -18.7875   24.6332 C.ar    1  UNL1        0.0192
     27 C          -4.3371  -16.1069   23.5327 C.3     1  UNL1        0.0550
     28 C          -3.4389  -17.2838   23.2914 C.3     1  UNL1        0.1533
     29 O          -2.6871  -18.9272   22.1807 O.2     1  UNL1       -0.1730
     30 S          -2.7516  -17.4439   21.9678 S.O2    1  UNL1       -0.0102
     31 O          -2.8162  -15.9605   21.7549 O.2     1  UNL1       -0.1730
     32 C          -2.0643  -17.6039   20.6441 C.3     1  UNL1        0.1461
     33 C          -2.7388  -17.7938   19.3178 C.3     1  UNL1        0.0420
     34 C          -1.6732  -17.9094   18.2683 C.3     1  UNL1        0.0704
     35 N          -0.3403  -17.7909   18.9461 N.3     1  UNL1       -0.2960
     36 C          -0.5820  -17.6021   20.4144 C.3     1  UNL1        0.0924
     37 H           0.1677  -16.9890   18.5730 H       1  UNL1        0.1233
@<TRIPOS>BOND
     1    29    30    2
     2    30    31    2
     3    30    28    1
     4    28    27    1
     5     1    27    1
     6     1     2    1
     7     2     3    1
     8     3     4    1
     9     4     5    1
    10     5    17    1
    11    17    18    2
    12    17    19    2
    13    17    20    1
    14    20    21   ar
    15    21    22   ar
    16    22    23   ar
    17    23    24    1
    18    23    25   ar
    19    25    26   ar
    20     5     6    1
    21     6     7   ar
    22     7     8    1
    23     7     9   ar
    24     9    10   ar
    25    10    11   ar
    26    11    12    1
    27    11    13   ar
    28    13    14    1
    29    14    15    1
    30    16    15    1
    31    32    30    1
    32    32    33    1
    33    33    34    1
    34    34    35    1
    35    35    36    1
    36    16     1    1
    37    36    32    1
    38    16     5    1
    39    26    20   ar
    40    13     6   ar
    41    35    37    1
@<TRIPOS>MOLECULE
*****
 37 41 0 0 0
SMALL
GASTEIGER

@<TRIPOS>ATOM
      1 C          -6.2037  -19.7878   20.0953 C.3     1  UNL1        0.1225
      2 O          -7.3311  -20.6109   19.5463 O.3     1  UNL1       -0.3559
      3 C          -8.7115  -20.4662   20.1151 C.3     1  UNL1        0.1441
      4 C          -8.9644  -19.4985   21.2329 C.3     1  UNL1        0.0589
      5 C          -7.8371  -18.6754   21.7819 C.3     1  UNL1        0.1466
      6 C          -8.0900  -17.7076   22.8996 C.ar    1  UNL1        0.0618
      7 C          -9.4704  -17.5630   23.4684 C.ar    1  UNL1        0.1407
      8 F         -10.7926  -18.2062   23.1713 F       1  UNL1       -0.2043
      9 C          -9.7234  -16.5952   24.5862 C.ar    1  UNL1        0.0319
     10 C          -8.5960  -15.7721   25.1352 C.ar    1  UNL1        0.0351
     11 C          -7.2156  -15.9168   24.5664 C.ar    1  UNL1        0.1737
     12 F          -6.0882  -15.0936   25.1154 F       1  UNL1       -0.2010
     13 C          -6.9627  -16.8845   23.4486 C.ar    1  UNL1        0.1655
     14 O          -5.5822  -17.0291   22.8798 O.3     1  UNL1       -0.4732
     15 C          -5.3292  -17.9969   21.7621 C.3     1  UNL1        0.2098
     16 C          -6.4567  -18.8200   21.2131 C.3     1  UNL1        0.0957
     17 S          -9.2174  -18.5307   22.3506 S.O2    1  UNL1        0.0094
     18 O          -9.6560  -17.9081   22.1151 O.2     1  UNL1       -0.1684
     19 O          -9.3569  -19.7087   23.2689 O.2     1  UNL1       -0.1684
     20 C         -10.5979  -18.3861   22.9195 C.ar    1  UNL1        0.1059
     21 C         -10.9760  -19.1266   24.1679 C.ar    1  UNL1        0.0192
     22 C         -12.3565  -18.9820   24.7368 C.ar    1  UNL1        0.0127
     23 C         -13.3587  -18.0968   24.0571 C.ar    1  UNL1        0.0578
     24 CL        -14.7391  -17.9522   24.6259 Cl      1  UNL1       -0.0822
     25 C         -12.9806  -17.3563   22.8086 C.ar    1  UNL1        0.0127
     26 C         -11.6002  -17.5009   22.2398 C.ar    1  UNL1        0.0192
     27 C          -4.8232  -19.9324   19.5265 C.3     1  UNL1        0.0550
     28 C          -3.6535  -20.1439   20.4414 C.3     1  UNL1        0.1533
     29 O          -1.8343  -19.9577   21.5165 O.2     1  UNL1       -0.1730
     30 S          -2.4864  -19.2027   20.3964 S.O2    1  UNL1       -0.0102
     31 O          -3.1385  -18.4476   19.2764 O.2     1  UNL1       -0.1730
     32 C          -1.3193  -18.2614   20.3515 C.3     1  UNL1        0.1461
     33 C           0.0994  -18.6307   20.0337 C.3     1  UNL1        0.0420
     34 C           0.9295  -17.3831   20.1022 C.3     1  UNL1        0.0704
     35 N           0.0238  -16.2429   20.4622 N.3     1  UNL1       -0.2960
     36 C          -1.3661  -16.7857   20.6163 C.3     1  UNL1        0.0924
     37 H           0.0410  -15.5403   19.7229 H       1  UNL1        0.1233
@<TRIPOS>BOND
     1    29    30    2
     2    30    31    2
     3    30    28    1
     4    28    27    1
     5     1    27    1
     6     1     2    1
     7     2     3    1
     8     3     4    1
     9     4     5    1
    10     5    17    1
    11    17    18    2
    12    17    19    2
    13    17    20    1
    14    20    21   ar
    15    21    22   ar
    16    22    23   ar
    17    23    24    1
    18    23    25   ar
    19    25    26   ar
    20     5     6    1
    21     6     7   ar
    22     7     8    1
    23     7     9   ar
    24     9    10   ar
    25    10    11   ar
    26    11    12    1
    27    11    13   ar
    28    13    14    1
    29    14    15    1
    30    16    15    1
    31    32    30    1
    32    32    33    1
    33    33    34    1
    34    34    35    1
    35    35    36    1
    36    16     1    1
    37    36    32    1
    38    16     5    1
    39    26    20   ar
    40    13     6   ar
    41    35    37    1
@<TRIPOS>MOLECULE
*****
 37 41 0 0 0
SMALL
GASTEIGER

@<TRIPOS>ATOM
      1 C          -4.1293  -17.8342   23.2255 C.3     1  UNL1        0.1225
      2 O          -4.5851  -16.8111   24.2233 O.3     1  UNL1       -0.3559
      3 C          -6.0343  -16.4318   24.2998 C.3     1  UNL1        0.1441
      4 C          -7.0277  -17.0755   23.3785 C.3     1  UNL1        0.0589
      5 C          -6.5719  -18.0986   22.3808 C.3     1  UNL1        0.1466
      6 C          -7.5654  -18.7423   21.4595 C.ar    1  UNL1        0.0618
      7 C          -9.0146  -18.3630   21.5360 C.ar    1  UNL1        0.1407
      8 F          -9.7981  -17.4072   22.3862 F       1  UNL1       -0.2043
      9 C         -10.0080  -19.0067   20.6148 C.ar    1  UNL1        0.0319
     10 C          -9.5522  -20.0297   19.6170 C.ar    1  UNL1        0.0351
     11 C          -8.1030  -20.4091   19.5405 C.ar    1  UNL1        0.1737
     12 F          -7.6472  -21.4322   18.5427 F       1  UNL1       -0.2010
     13 C          -7.1096  -19.7653   20.4617 C.ar    1  UNL1        0.1655
     14 O          -5.6603  -20.1447   20.3852 O.3     1  UNL1       -0.4732
     15 C          -4.6669  -19.5010   21.3064 C.3     1  UNL1        0.2098
     16 C          -5.1227  -18.4779   22.3043 C.3     1  UNL1        0.0957
     17 S          -8.0211  -17.7192   22.4573 S.O2    1  UNL1        0.0094
     18 O          -8.4765  -18.0875   22.9982 O.2     1  UNL1       -0.1684
     19 O          -8.1782  -16.6701   21.3967 O.2     1  UNL1       -0.1684
     20 C          -9.4704  -17.3399   22.5337 C.ar    1  UNL1        0.1059
     21 C         -10.3965  -18.0948   23.4406 C.ar    1  UNL1        0.0192
     22 C         -11.8457  -17.7154   23.5171 C.ar    1  UNL1        0.0127
     23 C         -12.3689  -16.5811   22.6867 C.ar    1  UNL1        0.0578
     24 CL        -13.8180  -16.2017   22.7631 Cl      1  UNL1       -0.0822
     25 C         -11.4427  -15.8261   21.7798 C.ar    1  UNL1        0.0127
     26 C          -9.9935  -16.2055   21.7033 C.ar    1  UNL1        0.0192
     27 C          -2.6801  -18.2135   23.1490 C.3     1  UNL1        0.0550
     28 C          -1.7210  -17.3590   22.3744 C.3     1  UNL1        0.1533
     29 O          -2.4132  -16.0550   20.8511 O.2     1  UNL1       -0.1730
     30 S          -1.7310  -17.3907   20.8748 S.O2    1  UNL1       -0.0102
     31 O          -1.0487  -18.7263   20.8984 O.2     1  UNL1       -0.1730
     32 C          -1.7409  -17.4224   19.3751 C.3     1  UNL1        0.1461
     33 C          -2.8649  -16.9691   18.4911 C.3     1  UNL1        0.0420
     34 C          -2.4473  -17.1795   17.0658 C.3     1  UNL1        0.0704
     35 N          -1.0653  -17.7628   17.0690 N.3     1  UNL1       -0.2960
     36 C          -0.6288  -17.9129   18.4962 C.3     1  UNL1        0.0924
     37 H          -0.4258  -17.1403   16.5750 H       1  UNL1        0.1233
@<TRIPOS>BOND
     1    29    30    2
     2    30    31    2
     3    30    28    1
     4    28    27    1
     5     1    27    1
     6     1     2    1
     7     2     3    1
     8     3     4    1
     9     4     5    1
    10     5    17    1
    11    17    18    2
    12    17    19    2
    13    17    20    1
    14    20    21   ar
    15    21    22   ar
    16    22    23   ar
    17    23    24    1
    18    23    25   ar
    19    25    26   ar
    20     5     6    1
    21     6     7   ar
    22     7     8    1
    23     7     9   ar
    24     9    10   ar
    25    10    11   ar
    26    11    12    1
    27    11    13   ar
    28    13    14    1
    29    14    15    1
    30    16    15    1
    31    32    30    1
    32    32    33    1
    33    33    34    1
    34    34    35    1
    35    35    36    1
    36    16     1    1
    37    36    32    1
    38    16     5    1
    39    26    20   ar
    40    13     6   ar
    41    35    37    1
@<TRIPOS>MOLECULE
*****
 37 41 0 0 0
SMALL
GASTEIGER

@<TRIPOS>ATOM
      1 C          -3.9743  -19.3559   22.0493 C.3     1  UNL1        0.1225
      2 O          -4.6597  -20.2851   21.0919 O.3     1  UNL1       -0.3559
      3 C          -6.1461  -20.2076   20.9059 C.3     1  UNL1        0.1441
      4 C          -6.9470  -19.2009   21.6773 C.3     1  UNL1        0.0589
      5 C          -6.2615  -18.2717   22.6347 C.3     1  UNL1        0.1466
      6 C          -7.0624  -17.2649   23.4061 C.ar    1  UNL1        0.0618
      7 C          -8.5488  -17.1875   23.2202 C.ar    1  UNL1        0.1407
      8 F          -9.5335  -17.9376   22.3730 F       1  UNL1       -0.2043
      9 C          -9.3497  -16.1807   23.9916 C.ar    1  UNL1        0.0319
     10 C          -8.6642  -15.2515   24.9490 C.ar    1  UNL1        0.0351
     11 C          -7.1779  -15.3290   25.1349 C.ar    1  UNL1        0.1737
     12 F          -6.4923  -14.3998   26.0924 F       1  UNL1       -0.2010
     13 C          -6.3770  -16.3357   24.3635 C.ar    1  UNL1        0.1655
     14 O          -4.8905  -16.4132   24.5495 O.3     1  UNL1       -0.4732
     15 C          -4.0896  -17.4199   23.7781 C.3     1  UNL1        0.2098
     16 C          -4.7752  -18.3492   22.8207 C.3     1  UNL1        0.0957
     17 S          -7.7479  -18.1942   22.4488 S.O2    1  UNL1        0.0094
     18 O          -8.2107  -18.5890   22.9639 O.2     1  UNL1       -0.1684
     19 O          -7.9176  -17.3189   21.2424 O.2     1  UNL1       -0.1684
     20 C          -9.2344  -18.1166   22.2627 C.ar    1  UNL1        0.1059
     21 C          -9.8149  -17.1811   21.2441 C.ar    1  UNL1        0.0192
     22 C         -11.3014  -17.1036   21.0581 C.ar    1  UNL1        0.0127
     23 C         -12.2072  -17.9616   21.8908 C.ar    1  UNL1        0.0578
     24 CL        -13.6936  -17.8841   21.7048 Cl      1  UNL1       -0.0822
     25 C         -11.6265  -18.8972   22.9094 C.ar    1  UNL1        0.0127
     26 C         -10.1401  -18.9747   23.0954 C.ar    1  UNL1        0.0192
     27 C          -2.4878  -19.4333   22.2353 C.3     1  UNL1        0.0550
     28 C          -1.6033  -18.3677   21.6589 C.3     1  UNL1        0.1533
     29 O          -2.5528  -16.8473   20.5246 O.2     1  UNL1       -0.1730
     30 S          -1.6890  -18.0299   20.2000 S.O2    1  UNL1       -0.0102
     31 O          -0.8253  -19.2125   19.8754 O.2     1  UNL1       -0.1730
     32 C          -1.7747  -17.6921   18.7410 C.3     1  UNL1        0.1461
     33 C          -2.9024  -16.9665   18.0688 C.3     1  UNL1        0.0420
     34 C          -2.5725  -16.8466   16.6104 C.3     1  UNL1        0.0704
     35 N          -1.2408  -17.4981   16.3814 N.3     1  UNL1       -0.2960
     36 C          -0.7478  -18.0206   17.6981 C.3     1  UNL1        0.0924
     37 H          -0.5803  -16.8148   16.0109 H       1  UNL1        0.1233
@<TRIPOS>BOND
     1    29    30    2
     2    30    31    2
     3    30    28    1
     4    28    27    1
     5     1    27    1
     6     1     2    1
     7     2     3    1
     8     3     4    1
     9     4     5    1
    10     5    17    1
    11    17    18    2
    12    17    19    2
    13    17    20    1
    14    20    21   ar
    15    21    22   ar
    16    22    23   ar
    17    23    24    1
    18    23    25   ar
    19    25    26   ar
    20     5     6    1
    21     6     7   ar
    22     7     8    1
    23     7     9   ar
    24     9    10   ar
    25    10    11   ar
    26    11    12    1
    27    11    13   ar
    28    13    14    1
    29    14    15    1
    30    16    15    1
    31    32    30    1
    32    32    33    1
    33    33    34    1
    34    34    35    1
    35    35    36    1
    36    16     1    1
    37    36    32    1
    38    16     5    1
    39    26    20   ar
    40    13     6   ar
    41    35    37    1
@<TRIPOS>MOLECULE
*****
 37 41 0 0 0
SMALL
GASTEIGER

@<TRIPOS>ATOM
      1 C           7.0704   -4.0860   21.3251 C.3     1  UNL1        0.1225
      2 O           6.0800   -4.3453   22.4213 O.3     1  UNL1       -0.3559
      3 C           4.8441   -3.5024   22.5301 C.3     1  UNL1        0.1441
      4 C           4.5986   -2.4002   21.5428 C.3     1  UNL1        0.0589
      5 C           5.5890   -2.1409   20.4465 C.3     1  UNL1        0.1466
      6 C           5.3436   -1.0387   19.4592 C.ar    1  UNL1        0.0618
      7 C           4.1076   -0.1958   19.5680 C.ar    1  UNL1        0.1407
      8 F           2.9396   -0.1756   20.5090 F       1  UNL1       -0.2043
      9 C           3.8621    0.9064   18.5807 C.ar    1  UNL1        0.0319
     10 C           4.8526    1.1657   17.4844 C.ar    1  UNL1        0.0351
     11 C           6.0885    0.3228   17.3756 C.ar    1  UNL1        0.1737
     12 F           7.0791    0.5820   16.2793 F       1  UNL1       -0.2010
     13 C           6.3340   -0.7794   18.3630 C.ar    1  UNL1        0.1655
     14 O           7.5700   -1.6224   18.2541 O.3     1  UNL1       -0.4732
     15 C           7.8155   -2.7246   19.2414 C.3     1  UNL1        0.2098
     16 C           6.8250   -2.9838   20.3377 C.3     1  UNL1        0.0957
     17 S           4.3531   -1.2980   20.5554 S.O2    1  UNL1        0.0094
     18 O           4.3965   -0.6226   20.9767 O.2     1  UNL1       -0.1684
     19 O           3.3264   -2.0556   19.7666 O.2     1  UNL1       -0.1684
     20 C           3.1171   -0.4550   20.6642 C.ar    1  UNL1        0.1059
     21 C           1.8475   -0.8961   19.9983 C.ar    1  UNL1        0.0192
     22 C           0.6115   -0.0531   20.1071 C.ar    1  UNL1        0.0127
     23 C           0.6451    1.2308   20.8819 C.ar    1  UNL1        0.0578
     24 CL         -0.5908    2.0738   20.9908 Cl      1  UNL1       -0.0822
     25 C           1.9148    1.6719   21.5479 C.ar    1  UNL1        0.0127
     26 C           3.1508    0.8289   21.4390 C.ar    1  UNL1        0.0192
     27 C           8.3065   -4.9290   21.2162 C.3     1  UNL1        0.0550
     28 C           9.1994   -5.1083   22.4080 C.3     1  UNL1        0.1533
     29 O           8.9328   -4.5120   24.4262 O.2     1  UNL1       -0.1730
     30 S           8.6719   -5.7674   23.6479 S.O2    1  UNL1       -0.0102
     31 O           8.4111   -7.0228   22.8696 O.2     1  UNL1       -0.1730
     32 C           8.1445   -6.4265   24.8878 C.3     1  UNL1        0.1461
     33 C           8.5308   -7.7834   25.3974 C.3     1  UNL1        0.0420
     34 C           7.7632   -8.0401   26.6604 C.3     1  UNL1        0.0704
     35 N           6.9024   -6.8418   26.9312 N.3     1  UNL1       -0.2960
     36 C           7.1381   -5.8446   25.8358 C.3     1  UNL1        0.0924
     37 H           7.1523   -6.4325   27.8315 H       1  UNL1        0.1233
@<TRIPOS>BOND
     1    29    30    2
     2    30    31    2
     3    30    28    1
     4    28    27    1
     5     1    27    1
     6     1     2    1
     7     2     3    1
     8     3     4    1
     9     4     5    1
    10     5    17    1
    11    17    18    2
    12    17    19    2
    13    17    20    1
    14    20    21   ar
    15    21    22   ar
    16    22    23   ar
    17    23    24    1
    18    23    25   ar
    19    25    26   ar
    20     5     6    1
    21     6     7   ar
    22     7     8    1
    23     7     9   ar
    24     9    10   ar
    25    10    11   ar
    26    11    12    1
    27    11    13   ar
    28    13    14    1
    29    14    15    1
    30    16    15    1
    31    32    30    1
    32    32    33    1
    33    33    34    1
    34    34    35    1
    35    35    36    1
    36    16     1    1
    37    36    32    1
    38    16     5    1
    39    26    20   ar
    40    13     6   ar
    41    35    37    1
@<TRIPOS>MOLECULE
*****
 37 41 0 0 0
SMALL
GASTEIGER

@<TRIPOS>ATOM
      1 C           5.4529   -2.0845   25.3239 C.3     1  UNL1        0.1225
      2 O           4.8303   -0.7953   25.7714 O.3     1  UNL1       -0.3559
      3 C           4.0100    0.0144   24.8114 C.3     1  UNL1        0.1441
      4 C           3.8124   -0.4652   23.4039 C.3     1  UNL1        0.0589
      5 C           4.4350   -1.7543   22.9564 C.3     1  UNL1        0.1466
      6 C           4.2373   -2.2339   21.5490 C.ar    1  UNL1        0.0618
      7 C           3.4171   -1.4242   20.5890 C.ar    1  UNL1        0.1407
      8 F           2.6707   -0.1271   20.6925 F       1  UNL1       -0.2043
      9 C           3.2194   -1.9037   19.1815 C.ar    1  UNL1        0.0319
     10 C           3.8420   -3.1929   18.7340 C.ar    1  UNL1        0.0351
     11 C           4.6623   -4.0026   19.6940 C.ar    1  UNL1        0.1737
     12 F           5.2850   -5.2918   19.2465 F       1  UNL1       -0.2010
     13 C           4.8600   -3.5230   21.1014 C.ar    1  UNL1        0.1655
     14 O           5.6803   -4.3328   22.0614 O.3     1  UNL1       -0.4732
     15 C           5.8780   -3.8532   23.4689 C.3     1  UNL1        0.2098
     16 C           5.2553   -2.5640   23.9164 C.3     1  UNL1        0.0957
     17 S           3.6147   -0.9447   21.9965 S.O2    1  UNL1        0.0094
     18 O           2.8308   -1.0855   21.9626 O.2     1  UNL1       -0.1684
     19 O           4.6140   -0.0396   21.3388 O.2     1  UNL1       -0.1684
     20 C           2.7944   -0.1350   21.0365 C.ar    1  UNL1        0.1059
     21 C           1.3253   -0.4024   20.8943 C.ar    1  UNL1        0.0192
     22 C           0.5051    0.4074   19.9343 C.ar    1  UNL1        0.0127
     23 C           1.1539    1.4844   19.1165 C.ar    1  UNL1        0.0578
     24 CL          0.3337    2.2941   18.1565 Cl      1  UNL1       -0.0822
     25 C           2.6231    1.7518   19.2586 C.ar    1  UNL1        0.0127
     26 C           3.4433    0.9421   20.2186 C.ar    1  UNL1        0.0192
     27 C           6.2733   -2.8942   26.2838 C.3     1  UNL1        0.0550
     28 C           6.7119   -2.2944   27.5868 C.3     1  UNL1        0.1533
     29 O           5.8523   -2.1222   29.5185 O.2     1  UNL1       -0.1730
     30 S           6.7238   -3.1314   28.8315 S.O2    1  UNL1       -0.0102
     31 O           7.5953   -4.1406   28.1445 O.2     1  UNL1       -0.1730
     32 C           6.7357   -3.9685   30.0762 C.3     1  UNL1        0.1461
     33 C           7.0724   -5.4281   30.1538 C.3     1  UNL1        0.0420
     34 C           6.9578   -5.8547   31.5874 C.3     1  UNL1        0.0704
     35 N           6.5502   -4.6585   32.3957 N.3     1  UNL1       -0.2960
     36 C           6.4130   -3.4928   31.4617 C.3     1  UNL1        0.0924
     37 H           7.2614   -4.4571   33.0985 H       1  UNL1        0.1233
@<TRIPOS>BOND
     1    29    30    2
     2    30    31    2
     3    30    28    1
     4    28    27    1
     5     1    27    1
     6     1     2    1
     7     2     3    1
     8     3     4    1
     9     4     5    1
    10     5    17    1
    11    17    18    2
    12    17    19    2
    13    17    20    1
    14    20    21   ar
    15    21    22   ar
    16    22    23   ar
    17    23    24    1
    18    23    25   ar
    19    25    26   ar
    20     5     6    1
    21     6     7   ar
    22     7     8    1
    23     7     9   ar
    24     9    10   ar
    25    10    11   ar
    26    11    12    1
    27    11    13   ar
    28    13    14    1
    29    14    15    1
    30    16    15    1
    31    32    30    1
    32    32    33    1
    33    33    34    1
    34    34    35    1
    35    35    36    1
    36    16     1    1
    37    36    32    1
    38    16     5    1
    39    26    20   ar
    40    13     6   ar
    41    35    37    1
@<TRIPOS>MOLECULE
*****
 37 41 0 0 0
SMALL
GASTEIGER

@<TRIPOS>ATOM
      1 C           8.0279   -4.4371   25.1006 C.3     1  UNL1        0.1225
      2 O           8.6600   -5.0069   23.8654 O.3     1  UNL1       -0.3559
      3 C           8.1341   -4.6305   22.5120 C.3     1  UNL1        0.1441
      4 C           6.9762   -3.6843   22.3937 C.3     1  UNL1        0.0589
      5 C           6.3442   -3.1145   23.6289 C.3     1  UNL1        0.1466
      6 C           5.1863   -2.1683   23.5107 C.ar    1  UNL1        0.0618
      7 C           4.6605   -1.7919   22.1573 C.ar    1  UNL1        0.1407
      8 F           5.0385   -2.1601   20.7531 F       1  UNL1       -0.2043
      9 C           3.5026   -0.8457   22.0390 C.ar    1  UNL1        0.0319
     10 C           2.8705   -0.2759   23.2742 C.ar    1  UNL1        0.0351
     11 C           3.3964   -0.6522   24.6276 C.ar    1  UNL1        0.1737
     12 F           2.7643   -0.0824   25.8629 F       1  UNL1       -0.2010
     13 C           4.5542   -1.5984   24.7459 C.ar    1  UNL1        0.1655
     14 O           5.0801   -1.9748   26.0994 O.3     1  UNL1       -0.4732
     15 C           6.2380   -2.9210   26.2176 C.3     1  UNL1        0.2098
     16 C           6.8700   -3.4909   24.9823 C.3     1  UNL1        0.0957
     17 S           5.8183   -2.7381   22.2755 S.O2    1  UNL1        0.0094
     18 O           5.9675   -2.0024   22.0072 O.2     1  UNL1       -0.1684
     19 O           5.1113   -3.9743   21.8042 O.2     1  UNL1       -0.1684
     20 C           5.2925   -2.3618   20.9220 C.ar    1  UNL1        0.1059
     21 C           4.1521   -3.1286   20.3207 C.ar    1  UNL1        0.0192
     22 C           3.6262   -2.7522   18.9672 C.ar    1  UNL1        0.0127
     23 C           4.2407   -1.6091   18.2151 C.ar    1  UNL1        0.0578
     24 CL          3.7149   -1.2328   16.8616 Cl      1  UNL1       -0.0822
     25 C           5.3811   -0.8423   18.8165 C.ar    1  UNL1        0.0127
     26 C           5.9069   -1.2187   20.1699 C.ar    1  UNL1        0.0192
     27 C           8.5538   -4.8134   26.4541 C.3     1  UNL1        0.0550
     28 C           7.7846   -5.7678   27.3187 C.3     1  UNL1        0.1533
     29 O           8.8687   -5.2930   29.0791 O.2     1  UNL1       -0.1730
     30 S           7.4150   -5.3795   28.7196 S.O2    1  UNL1       -0.0102
     31 O           5.9614   -5.4661   28.3602 O.2     1  UNL1       -0.1730
     32 C           7.0454   -4.9912   30.1206 C.3     1  UNL1        0.1461
     33 C           6.6569   -3.6176   30.5813 C.3     1  UNL1        0.0420
     34 C           6.3708   -3.6858   32.0523 C.3     1  UNL1        0.0704
     35 N           6.5826   -5.1016   32.5006 N.3     1  UNL1       -0.2960
     36 C           6.9995   -5.9083   31.3067 C.3     1  UNL1        0.0924
     37 H           5.7155   -5.4761   32.8857 H       1  UNL1        0.1233
@<TRIPOS>BOND
     1    29    30    2
     2    30    31    2
     3    30    28    1
     4    28    27    1
     5     1    27    1
     6     1     2    1
     7     2     3    1
     8     3     4    1
     9     4     5    1
    10     5    17    1
    11    17    18    2
    12    17    19    2
    13    17    20    1
    14    20    21   ar
    15    21    22   ar
    16    22    23   ar
    17    23    24    1
    18    23    25   ar
    19    25    26   ar
    20     5     6    1
    21     6     7   ar
    22     7     8    1
    23     7     9   ar
    24     9    10   ar
    25    10    11   ar
    26    11    12    1
    27    11    13   ar
    28    13    14    1
    29    14    15    1
    30    16    15    1
    31    32    30    1
    32    32    33    1
    33    33    34    1
    34    34    35    1
    35    35    36    1
    36    16     1    1
    37    36    32    1
    38    16     5    1
    39    26    20   ar
    40    13     6   ar
    41    35    37    1
@<TRIPOS>MOLECULE
*****
 37 41 0 0 0
SMALL
GASTEIGER

@<TRIPOS>ATOM
      1 C          -0.9798    3.5413   19.8551 C.3     1  UNL1        0.1225
      2 O          -0.5674    3.2471   18.4432 O.3     1  UNL1       -0.3559
      3 C           0.5068    2.2363   18.1709 C.3     1  UNL1        0.1441
      4 C           1.1686    1.5196   19.3103 C.3     1  UNL1        0.0589
      5 C           0.7562    1.8138   20.7222 C.3     1  UNL1        0.1466
      6 C           1.4181    1.0971   21.8617 C.ar    1  UNL1        0.0618
      7 C           2.4923    0.0863   21.5893 C.ar    1  UNL1        0.1407
      8 F           3.1350   -0.4406   20.3404 F       1  UNL1       -0.2043
      9 C           3.1541   -0.6304   22.7288 C.ar    1  UNL1        0.0319
     10 C           2.7417   -0.3362   24.1406 C.ar    1  UNL1        0.0351
     11 C           1.6675    0.6747   24.4130 C.ar    1  UNL1        0.1737
     12 F           1.2550    0.9689   25.8249 F       1  UNL1       -0.2010
     13 C           1.0057    1.3913   23.2735 C.ar    1  UNL1        0.1655
     14 O          -0.0686    2.4022   23.5459 O.3     1  UNL1       -0.4732
     15 C          -0.7304    3.1189   22.4065 C.3     1  UNL1        0.2098
     16 C          -0.3179    2.8247   20.9946 C.3     1  UNL1        0.0957
     17 S           1.8304    0.8029   20.4498 S.O2    1  UNL1        0.0094
     18 O           2.5894    1.0441   20.4862 O.2     1  UNL1       -0.1684
     19 O           1.0753   -0.4622   20.1681 O.2     1  UNL1       -0.1684
     20 C           2.9047   -0.2080   20.1774 C.ar    1  UNL1        0.1059
     21 C           4.3377    0.2259   20.0883 C.ar    1  UNL1        0.0192
     22 C           5.4119   -0.7850   19.8159 C.ar    1  UNL1        0.0127
     23 C           5.0530   -2.2299   19.6327 C.ar    1  UNL1        0.0578
     24 CL          6.1271   -3.2408   19.3603 Cl      1  UNL1       -0.0822
     25 C           3.6199   -2.6638   19.7218 C.ar    1  UNL1        0.0127
     26 C           2.5457   -1.6528   19.9942 C.ar    1  UNL1        0.0192
     27 C          -2.0540    4.5522   20.1275 C.3     1  UNL1        0.0550
     28 C          -3.4915    4.1259   20.1708 C.3     1  UNL1        0.1533
     29 O          -4.4183    2.6098   21.3294 O.2     1  UNL1       -0.1730
     30 S          -4.2240    4.0896   21.4792 S.O2    1  UNL1       -0.0102
     31 O          -4.0297    5.5694   21.6290 O.2     1  UNL1       -0.1730
     32 C          -4.9565    4.0534   22.7877 C.3     1  UNL1        0.1461
     33 C          -6.1352    4.9024   23.1620 C.3     1  UNL1        0.0420
     34 C          -6.5462    4.5356   24.5573 C.3     1  UNL1        0.0704
     35 N          -5.6215    3.4599   25.0452 N.3     1  UNL1       -0.2960
     36 C          -4.6391    3.1619   23.9515 C.3     1  UNL1        0.0924
     37 H          -6.1552    2.6201   25.2693 H       1  UNL1        0.1233
@<TRIPOS>BOND
     1    29    30    2
     2    30    31    2
     3    30    28    1
     4    28    27    1
     5     1    27    1
     6     1     2    1
     7     2     3    1
     8     3     4    1
     9     4     5    1
    10     5    17    1
    11    17    18    2
    12    17    19    2
    13    17    20    1
    14    20    21   ar
    15    21    22   ar
    16    22    23   ar
    17    23    24    1
    18    23    25   ar
    19    25    26   ar
    20     5     6    1
    21     6     7   ar
    22     7     8    1
    23     7     9   ar
    24     9    10   ar
    25    10    11   ar
    26    11    12    1
    27    11    13   ar
    28    13    14    1
    29    14    15    1
    30    16    15    1
    31    32    30    1
    32    32    33    1
    33    33    34    1
    34    34    35    1
    35    35    36    1
    36    16     1    1
    37    36    32    1
    38    16     5    1
    39    26    20   ar
    40    13     6   ar
    41    35    37    1
@<TRIPOS>MOLECULE
*****
 37 41 0 0 0
SMALL
GASTEIGER

@<TRIPOS>ATOM
      1 C         -14.7454   -0.8307   18.5383 C.3     1  UNL1        0.1225
      2 O         -16.1991   -1.1452   18.3438 O.3     1  UNL1       -0.3559
      3 C         -16.6540   -2.5725   18.2681 C.3     1  UNL1        0.1441
      4 C         -15.6552   -3.6853   18.3868 C.3     1  UNL1        0.0589
      5 C         -14.2015   -3.3708   18.5812 C.3     1  UNL1        0.1466
      6 C         -13.2027   -4.4836   18.6999 C.ar    1  UNL1        0.0618
      7 C         -13.6576   -5.9109   18.6241 C.ar    1  UNL1        0.1407
      8 F         -14.9923   -6.5710   18.4415 F       1  UNL1       -0.2043
      9 C         -12.6589   -7.0237   18.7428 C.ar    1  UNL1        0.0319
     10 C         -11.2052   -6.7092   18.9372 C.ar    1  UNL1        0.0351
     11 C         -10.7503   -5.2819   19.0130 C.ar    1  UNL1        0.1737
     12 F          -9.2965   -4.9673   19.2074 F       1  UNL1       -0.2010
     13 C         -11.7491   -4.1691   18.8943 C.ar    1  UNL1        0.1655
     14 O         -11.2941   -2.7417   18.9701 O.3     1  UNL1       -0.4732
     15 C         -12.2929   -1.6289   18.8514 C.3     1  UNL1        0.2098
     16 C         -13.7466   -1.9435   18.6569 C.3     1  UNL1        0.0957
     17 S         -14.6564   -4.7981   18.5054 S.O2    1  UNL1        0.0094
     18 O         -14.7537   -5.1968   19.1889 O.2     1  UNL1       -0.1684
     19 O         -14.8002   -5.0557   17.0347 O.2     1  UNL1       -0.1684
     20 C         -15.1114   -6.2255   18.4296 C.ar    1  UNL1        0.1059
     21 C         -15.0393   -6.9675   17.1281 C.ar    1  UNL1        0.0192
     22 C         -15.4942   -8.3949   17.0523 C.ar    1  UNL1        0.0127
     23 C         -16.0212   -9.0802   18.2781 C.ar    1  UNL1        0.0578
     24 CL        -16.4761  -10.5075   18.2023 Cl      1  UNL1       -0.0822
     25 C         -16.0933   -8.3381   19.5797 C.ar    1  UNL1        0.0127
     26 C         -15.6383   -6.9108   19.6555 C.ar    1  UNL1        0.0192
     27 C         -14.2904    0.5967   18.6140 C.3     1  UNL1        0.0550
     28 C         -15.2781    1.7097   18.4250 C.3     1  UNL1        0.1533
     29 O         -16.4937    1.6771   20.1631 O.2     1  UNL1       -0.1730
     30 S         -15.5518    2.6680   19.5461 S.O2    1  UNL1       -0.0102
     31 O         -14.6099    3.6589   18.9290 O.2     1  UNL1       -0.1730
     32 C         -15.8255    3.6263   20.6671 C.3     1  UNL1        0.1461
     33 C         -16.7018    3.3651   21.8562 C.3     1  UNL1        0.0420
     34 C         -16.6888    4.5915   22.7199 C.3     1  UNL1        0.0704
     35 N         -15.8044    5.6106   22.0646 N.3     1  UNL1       -0.2960
     36 C         -15.2708    5.0141   20.7960 C.3     1  UNL1        0.0924
     37 H         -15.0319    5.8495   22.6864 H       1  UNL1        0.1233
@<TRIPOS>BOND
     1    29    30    2
     2    30    31    2
     3    30    28    1
     4    28    27    1
     5     1    27    1
     6     1     2    1
     7     2     3    1
     8     3     4    1
     9     4     5    1
    10     5    17    1
    11    17    18    2
    12    17    19    2
    13    17    20    1
    14    20    21   ar
    15    21    22   ar
    16    22    23   ar
    17    23    24    1
    18    23    25   ar
    19    25    26   ar
    20     5     6    1
    21     6     7   ar
    22     7     8    1
    23     7     9   ar
    24     9    10   ar
    25    10    11   ar
    26    11    12    1
    27    11    13   ar
    28    13    14    1
    29    14    15    1
    30    16    15    1
    31    32    30    1
    32    32    33    1
    33    33    34    1
    34    34    35    1
    35    35    36    1
    36    16     1    1
    37    36    32    1
    38    16     5    1
    39    26    20   ar
    40    13     6   ar
    41    35    37    1
