@<TRIPOS>MOLECULE
*****
 26 29 0 0 0
SMALL
GASTEIGER

@<TRIPOS>ATOM
      1 C         -18.5704   -3.7745   19.6486 C.ar    1  UNL1        0.1917
      2 N         -19.4988   -4.9099   19.9630 N.ar    1  UNL1       -0.1268
      3 N         -18.7392   -6.1915   19.7887 N.ar    1  UNL1       -0.1316
      4 C         -17.3413   -5.8482   19.3666 C.ar    1  UNL1        0.1595
      5 N         -17.2370   -4.3543   19.2800 N.ar    1  UNL1       -0.2940
      6 C         -15.9414   -3.7151   18.8767 C.3     1  UNL1        0.1302
      7 C         -14.7500   -4.5698   18.5600 C.3     1  UNL1        0.1185
      8 N         -14.8543   -6.0636   18.6466 N.am    1  UNL1       -0.2708
      9 C         -13.6630   -6.9183   18.3299 C.2     1  UNL1        0.2493
     10 O         -13.7673   -8.4121   18.4165 O.2     1  UNL1       -0.2699
     11 C         -16.1500   -6.7028   19.0499 C.3     1  UNL1        0.1129
     12 C         -17.1529   -7.7673   19.3835 C.3     1  UNL1        0.0277
     13 C         -15.3070   -7.9272   18.8491 C.3     1  UNL1        0.0277
     14 C         -12.3674   -6.2790   17.9266 C.ar    1  UNL1        0.0537
     15 C         -12.0990   -5.9740   16.4827 C.ar    1  UNL1        0.0068
     16 C         -10.8033   -5.3347   16.0795 C.ar    1  UNL1        0.0298
     17 C          -9.7760   -5.0006   17.1201 C.ar    1  UNL1        0.1401
     18 F          -8.4803   -4.3613   16.7168 F       1  UNL1       -0.2042
     19 C         -10.0444   -5.3056   18.5640 C.ar    1  UNL1        0.0298
     20 C         -11.3400   -5.9448   18.9673 C.ar    1  UNL1        0.0068
     21 C         -19.9481    1.0067   21.4158 C.3     1  UNL1        0.0744
     22 C         -19.5481   -0.1176   20.5070 C.ar    1  UNL1        0.1481
     23 N         -19.3417   -0.0220   19.0243 N.ar    1  UNL1       -0.1929
     24 S         -18.9503   -1.3803   18.5223 S.2     1  UNL1        0.0369
     25 C         -18.9148   -2.3153   19.6947 C.ar    1  UNL1        0.1652
     26 N         -19.2843   -1.5349   20.9213 N.ar    1  UNL1       -0.2190
@<TRIPOS>BOND
     1    21    22    1
     2    22    23   ar
     3    23    24   ar
     4    24    25   ar
     5    25     1    1
     6     1     2   ar
     7     2     3   ar
     8     3     4   ar
     9     4     5   ar
    10     5     6    1
    11     6     7    1
    12     7     8    1
    13     8     9   am
    14     9    10    2
    15     9    14    1
    16    14    15   ar
    17    15    16   ar
    18    16    17   ar
    19    17    18    1
    20    17    19   ar
    21    19    20   ar
    22     8    11    1
    23    11    12    1
    24    11    13    1
    25    25    26   ar
    26    26    22   ar
    27     5     1   ar
    28    20    14   ar
    29    11     4    1
@<TRIPOS>MOLECULE
*****
 26 29 0 0 0
SMALL
GASTEIGER

@<TRIPOS>ATOM
      1 C         -17.9605   -2.2428   20.0162 C.ar    1  UNL1        0.1917
      2 N         -19.0529   -3.2145   20.3516 N.ar    1  UNL1       -0.1268
      3 N         -18.5247   -4.6006   20.1288 N.ar    1  UNL1       -0.1316
      4 C         -17.1059   -4.4856   19.6557 C.ar    1  UNL1        0.1595
      5 N         -16.7572   -3.0283   19.5861 N.ar    1  UNL1       -0.2940
      6 C         -15.3890   -2.6050   19.1402 C.3     1  UNL1        0.1302
      7 C         -14.3695   -3.6389   18.7638 C.3     1  UNL1        0.1185
      8 N         -14.7182   -5.0962   18.8334 N.am    1  UNL1       -0.2708
      9 C         -13.6987   -6.1301   18.4570 C.2     1  UNL1        0.2493
     10 O         -14.0474   -7.5873   18.5266 O.2     1  UNL1       -0.2699
     11 C         -16.0864   -5.5195   19.2793 C.3     1  UNL1        0.1129
     12 C         -17.2396   -6.4093   19.6378 C.3     1  UNL1        0.0277
     13 C         -15.4674   -6.8625   19.0275 C.3     1  UNL1        0.0277
     14 C         -12.3306   -5.7068   18.0111 C.ar    1  UNL1        0.0537
     15 C         -11.2423   -5.5007   19.0226 C.ar    1  UNL1        0.0068
     16 C          -9.8741   -5.0773   18.5766 C.ar    1  UNL1        0.0298
     17 C          -9.5942   -4.8601   17.1191 C.ar    1  UNL1        0.1401
     18 F          -8.2260   -4.4367   16.6731 F       1  UNL1       -0.2042
     19 C         -10.6825   -5.0661   16.1075 C.ar    1  UNL1        0.0298
     20 C         -12.0506   -5.4894   16.5535 C.ar    1  UNL1        0.0068
     21 C         -17.0051    2.7869   21.3086 C.3     1  UNL1        0.0744
     22 C         -17.6157    1.5639   20.6908 C.ar    1  UNL1        0.1481
     23 N         -18.7842    1.5410   19.7506 N.ar    1  UNL1       -0.1929
     24 S         -19.0556    0.1121   19.3834 S.2     1  UNL1        0.0369
     25 C         -18.0548   -0.7479   20.0967 C.ar    1  UNL1        0.1652
     26 N         -17.1649    0.1494   20.9048 N.ar    1  UNL1       -0.2190
@<TRIPOS>BOND
     1    21    22    1
     2    22    23   ar
     3    23    24   ar
     4    24    25   ar
     5    25     1    1
     6     1     2   ar
     7     2     3   ar
     8     3     4   ar
     9     4     5   ar
    10     5     6    1
    11     6     7    1
    12     7     8    1
    13     8     9   am
    14     9    10    2
    15     9    14    1
    16    14    15   ar
    17    15    16   ar
    18    16    17   ar
    19    17    18    1
    20    17    19   ar
    21    19    20   ar
    22     8    11    1
    23    11    12    1
    24    11    13    1
    25    25    26   ar
    26    26    22   ar
    27     5     1   ar
    28    20    14   ar
    29    11     4    1
@<TRIPOS>MOLECULE
*****
 26 29 0 0 0
SMALL
GASTEIGER

@<TRIPOS>ATOM
      1 C           5.6060   -1.1455   33.2648 C.ar    1  UNL1        0.1917
      2 N           5.6689   -0.5950   34.6587 N.ar    1  UNL1       -0.1268
      3 N           4.6024    0.4512   34.7925 N.ar    1  UNL1       -0.1316
      4 C           3.8803    0.5473   33.4812 C.ar    1  UNL1        0.1595
      5 N           4.5006   -0.4395   32.5371 N.ar    1  UNL1       -0.2940
      6 C           3.9787   -0.5676   31.1367 C.3     1  UNL1        0.1302
      7 C           2.8365    0.2910   30.6804 C.3     1  UNL1        0.1185
      8 N           2.2162    1.2778   31.6246 N.am    1  UNL1       -0.2708
      9 C           1.0740    2.1364   31.1683 C.2     1  UNL1        0.2493
     10 O           0.4537    3.1232   32.1125 O.2     1  UNL1       -0.2699
     11 C           2.7381    1.4059   33.0250 C.3     1  UNL1        0.1129
     12 C           2.8805    1.8908   34.4374 C.3     1  UNL1        0.0277
     13 C           1.6453    2.4330   33.0593 C.3     1  UNL1        0.0277
     14 C           0.5521    2.0082   29.7679 C.ar    1  UNL1        0.0537
     15 C          -0.4157    0.9146   29.4254 C.ar    1  UNL1        0.0068
     16 C          -0.9376    0.7865   28.0249 C.ar    1  UNL1        0.0298
     17 C          -0.4916    1.7519   26.9671 C.ar    1  UNL1        0.1401
     18 F          -1.0135    1.6237   25.5666 F       1  UNL1       -0.2042
     19 C           0.4762    2.8455   27.3096 C.ar    1  UNL1        0.0298
     20 C           0.9981    2.9736   28.7100 C.ar    1  UNL1        0.0068
     21 C           7.2843   -5.7088   31.2057 C.3     1  UNL1        0.0744
     22 C           7.2642   -4.3118   31.7516 C.ar    1  UNL1        0.1481
     23 N           8.4508   -3.4062   31.9002 N.ar    1  UNL1       -0.1929
     24 S           7.9740   -2.1098   32.4852 S.2     1  UNL1        0.0369
     25 C           6.4929   -2.2143   32.6981 C.ar    1  UNL1        0.1652
     26 N           6.0542   -3.5752   32.2446 N.ar    1  UNL1       -0.2190
@<TRIPOS>BOND
     1    21    22    1
     2    22    23   ar
     3    23    24   ar
     4    24    25   ar
     5    25     1    1
     6     1     2   ar
     7     2     3   ar
     8     3     4   ar
     9     4     5   ar
    10     5     6    1
    11     6     7    1
    12     7     8    1
    13     8     9   am
    14     9    10    2
    15     9    14    1
    16    14    15   ar
    17    15    16   ar
    18    16    17   ar
    19    17    18    1
    20    17    19   ar
    21    19    20   ar
    22     8    11    1
    23    11    12    1
    24    11    13    1
    25    25    26   ar
    26    26    22   ar
    27     5     1   ar
    28    20    14   ar
    29    11     4    1
@<TRIPOS>MOLECULE
*****
 26 29 0 0 0
SMALL
GASTEIGER

@<TRIPOS>ATOM
      1 C         -12.5960   -1.7027   18.4455 C.ar    1  UNL1        0.1917
      2 N         -11.1199   -1.9583   18.5214 N.ar    1  UNL1       -0.1268
      3 N         -10.9087   -3.4423   18.5757 N.ar    1  UNL1       -0.1316
      4 C         -12.2542   -4.1040   18.5335 C.ar    1  UNL1        0.1595
      5 N         -13.2971   -3.0288   18.4530 N.ar    1  UNL1       -0.2940
      6 C         -14.7503   -3.3963   18.3969 C.3     1  UNL1        0.1302
      7 C         -15.1606   -4.8389   18.4213 C.3     1  UNL1        0.1185
      8 N         -14.1177   -5.9140   18.5018 N.am    1  UNL1       -0.2708
      9 C         -14.5280   -7.3566   18.5262 C.2     1  UNL1        0.2493
     10 O         -13.4852   -8.4317   18.6067 O.2     1  UNL1       -0.2699
     11 C         -12.6645   -5.5465   18.5579 C.3     1  UNL1        0.1129
     12 C         -11.1740   -5.6984   18.6313 C.3     1  UNL1        0.0277
     13 C         -12.5572   -7.0419   18.6078 C.3     1  UNL1        0.0277
     14 C         -15.9812   -7.7240   18.4701 C.ar    1  UNL1        0.0537
     15 C         -16.6493   -7.9414   17.1448 C.ar    1  UNL1        0.0068
     16 C         -18.1026   -8.3088   17.0887 C.ar    1  UNL1        0.0298
     17 C         -18.8877   -8.4589   18.3580 C.ar    1  UNL1        0.1401
     18 F         -20.3410   -8.8263   18.3019 F       1  UNL1       -0.2042
     19 C         -18.2197   -8.2415   19.6833 C.ar    1  UNL1        0.0298
     20 C         -16.7665   -7.8741   19.7394 C.ar    1  UNL1        0.0068
     21 C         -16.0592    2.2322   19.0810 C.3     1  UNL1        0.0744
     22 C         -14.8473    1.4513   18.6667 C.ar    1  UNL1        0.1481
     23 N         -13.6931    1.9748   17.8643 N.ar    1  UNL1       -0.1929
     24 S         -12.7092    0.8569   17.6838 S.2     1  UNL1        0.0369
     25 C         -13.2554   -0.3573   18.3746 C.ar    1  UNL1        0.1652
     26 N         -14.5768    0.0100   18.9821 N.ar    1  UNL1       -0.2190
@<TRIPOS>BOND
     1    21    22    1
     2    22    23   ar
     3    23    24   ar
     4    24    25   ar
     5    25     1    1
     6     1     2   ar
     7     2     3   ar
     8     3     4   ar
     9     4     5   ar
    10     5     6    1
    11     6     7    1
    12     7     8    1
    13     8     9   am
    14     9    10    2
    15     9    14    1
    16    14    15   ar
    17    15    16   ar
    18    16    17   ar
    19    17    18    1
    20    17    19   ar
    21    19    20   ar
    22     8    11    1
    23    11    12    1
    24    11    13    1
    25    25    26   ar
    26    26    22   ar
    27     5     1   ar
    28    20    14   ar
    29    11     4    1
@<TRIPOS>MOLECULE
*****
 26 29 0 0 0
SMALL
GASTEIGER

@<TRIPOS>ATOM
      1 C           6.6201   -4.1363   24.0777 C.ar    1  UNL1        0.1917
      2 N           7.4711   -5.0389   23.2344 N.ar    1  UNL1       -0.1268
      3 N           7.1341   -4.7824   21.7954 N.ar    1  UNL1       -0.1316
      4 C           6.0747   -3.7214   21.7494 C.ar    1  UNL1        0.1595
      5 N           5.7571   -3.3221   23.1600 N.ar    1  UNL1       -0.2940
      6 C           4.7231   -2.2687   23.4265 C.3     1  UNL1        0.1302
      7 C           4.0066   -1.6145   22.2824 C.3     1  UNL1        0.1185
      8 N           4.3243   -2.0138   20.8718 N.am    1  UNL1       -0.2708
      9 C           3.6079   -1.3597   19.7278 C.2     1  UNL1        0.2493
     10 O           3.9256   -1.7591   18.3172 O.2     1  UNL1       -0.2699
     11 C           5.3584   -3.0673   20.6054 C.3     1  UNL1        0.1129
     12 C           6.2513   -4.0069   19.8505 C.3     1  UNL1        0.0277
     13 C           4.9521   -2.7395   19.1991 C.3     1  UNL1        0.0277
     14 C           2.5739   -0.3063   19.9942 C.ar    1  UNL1        0.0537
     15 C           2.9703    1.1397   20.0381 C.ar    1  UNL1        0.0068
     16 C           1.9362    2.1931   20.3047 C.ar    1  UNL1        0.0298
     17 C           0.5057    1.8005   20.5272 C.ar    1  UNL1        0.1401
     18 F          -0.5284    2.8539   20.7938 F       1  UNL1       -0.2042
     19 C           0.1093    0.3545   20.4833 C.ar    1  UNL1        0.0298
     20 C           1.1433   -0.6989   20.2169 C.ar    1  UNL1        0.0068
     21 C           6.7331   -5.5126   29.1742 C.3     1  UNL1        0.0744
     22 C           6.6822   -4.6938   27.9184 C.ar    1  UNL1        0.1481
     23 N           6.6096   -3.1974   27.8439 N.ar    1  UNL1       -0.1929
     24 S           6.5775   -2.8064   26.3960 S.2     1  UNL1        0.0369
     25 C           6.6303   -4.0612   25.5758 C.ar    1  UNL1        0.1652
     26 N           6.6950   -5.2277   26.5166 N.ar    1  UNL1       -0.2190
@<TRIPOS>BOND
     1    21    22    1
     2    22    23   ar
     3    23    24   ar
     4    24    25   ar
     5    25     1    1
     6     1     2   ar
     7     2     3   ar
     8     3     4   ar
     9     4     5   ar
    10     5     6    1
    11     6     7    1
    12     7     8    1
    13     8     9   am
    14     9    10    2
    15     9    14    1
    16    14    15   ar
    17    15    16   ar
    18    16    17   ar
    19    17    18    1
    20    17    19   ar
    21    19    20   ar
    22     8    11    1
    23    11    12    1
    24    11    13    1
    25    25    26   ar
    26    26    22   ar
    27     5     1   ar
    28    20    14   ar
    29    11     4    1
@<TRIPOS>MOLECULE
*****
 26 29 0 0 0
SMALL
GASTEIGER

@<TRIPOS>ATOM
      1 C         -13.5301   -6.9536   18.7533 C.ar    1  UNL1        0.1917
      2 N         -12.0968   -7.3323   18.9819 N.ar    1  UNL1       -0.1268
      3 N         -11.2724   -6.0803   18.9283 N.ar    1  UNL1       -0.1316
      4 C         -12.1962   -4.9279   18.6665 C.ar    1  UNL1        0.1595
      5 N         -13.5915   -5.4676   18.5584 N.ar    1  UNL1       -0.2940
      6 C         -14.7378   -4.5363   18.2964 C.3     1  UNL1        0.1302
      7 C         -14.4887   -3.0651   18.1425 C.3     1  UNL1        0.1185
      8 N         -13.0934   -2.5253   18.2507 N.am    1  UNL1       -0.2708
      9 C         -12.8443   -1.0542   18.0968 C.2     1  UNL1        0.2493
     10 O         -11.4489   -0.5144   18.2050 O.2     1  UNL1       -0.2699
     11 C         -11.9471   -3.4567   18.5127 C.3     1  UNL1        0.1129
     12 C         -10.5452   -3.9349   18.7499 C.3     1  UNL1        0.0277
     13 C         -11.2111   -2.1516   18.4412 C.3     1  UNL1        0.0277
     14 C         -13.9905   -0.1228   17.8348 C.ar    1  UNL1        0.0537
     15 C         -14.3583    0.2360   16.4256 C.ar    1  UNL1        0.0068
     16 C         -15.5046    1.1674   16.1636 C.ar    1  UNL1        0.0298
     17 C         -16.2830    1.7399   17.3108 C.ar    1  UNL1        0.1401
     18 F         -17.4293    2.6713   17.0489 F       1  UNL1       -0.2042
     19 C         -15.9152    1.3811   18.7201 C.ar    1  UNL1        0.0298
     20 C         -14.7690    0.4497   18.9821 C.ar    1  UNL1        0.0068
     21 C         -18.2239   -9.1649   19.7323 C.3     1  UNL1        0.0744
     22 C         -16.8546   -8.9120   19.1746 C.ar    1  UNL1        0.1481
     23 N         -16.1313   -9.7782   18.1865 N.ar    1  UNL1       -0.1929
     24 S         -14.7978   -9.1500   17.9084 S.2     1  UNL1        0.0369
     25 C         -14.6971   -7.8956   18.7246 C.ar    1  UNL1        0.1652
     26 N         -15.9682   -7.7485   19.5073 N.ar    1  UNL1       -0.2190
@<TRIPOS>BOND
     1    21    22    1
     2    22    23   ar
     3    23    24   ar
     4    24    25   ar
     5    25     1    1
     6     1     2   ar
     7     2     3   ar
     8     3     4   ar
     9     4     5   ar
    10     5     6    1
    11     6     7    1
    12     7     8    1
    13     8     9   am
    14     9    10    2
    15     9    14    1
    16    14    15   ar
    17    15    16   ar
    18    16    17   ar
    19    17    18    1
    20    17    19   ar
    21    19    20   ar
    22     8    11    1
    23    11    12    1
    24    11    13    1
    25    25    26   ar
    26    26    22   ar
    27     5     1   ar
    28    20    14   ar
    29    11     4    1
@<TRIPOS>MOLECULE
*****
 26 29 0 0 0
SMALL
GASTEIGER

@<TRIPOS>ATOM
      1 C         -18.3272   -5.4844   19.5808 C.ar    1  UNL1        0.1917
      2 N         -19.2281   -4.4021   20.0976 N.ar    1  UNL1       -0.1268
      3 N         -18.4533   -3.1177   20.1036 N.ar    1  UNL1       -0.1316
      4 C         -17.0737   -3.4062   19.5905 C.ar    1  UNL1        0.1595
      5 N         -16.9957   -4.8689   19.2674 N.ar    1  UNL1       -0.2940
      6 C         -15.7224   -5.4514   18.7296 C.3     1  UNL1        0.1302
      7 C         -14.5269   -4.5711   18.5148 C.3     1  UNL1        0.1185
      8 N         -14.6048   -3.1084   18.8379 N.am    1  UNL1       -0.2708
      9 C         -13.4095   -2.2281   18.6231 C.2     1  UNL1        0.2493
     10 O         -13.4874   -0.7654   18.9462 O.2     1  UNL1       -0.2699
     11 C         -15.8783   -2.5259   19.3757 C.3     1  UNL1        0.1129
     12 C         -16.8542   -1.5159   19.9025 C.3     1  UNL1        0.0277
     13 C         -15.0218   -1.2949   19.3439 C.3     1  UNL1        0.0277
     14 C         -12.1361   -2.8106   18.0853 C.ar    1  UNL1        0.0537
     15 C         -11.7575   -2.5897   16.6508 C.ar    1  UNL1        0.0068
     16 C         -10.4841   -3.1722   16.1130 C.ar    1  UNL1        0.0298
     17 C          -9.5894   -3.9756   17.0096 C.ar    1  UNL1        0.1401
     18 F          -8.3160   -4.5581   16.4718 F       1  UNL1       -0.2042
     19 C          -9.9681   -4.1965   18.4441 C.ar    1  UNL1        0.0298
     20 C         -11.2414   -3.6141   18.9820 C.ar    1  UNL1        0.0068
     21 C         -18.9588  -10.2884   17.4825 C.3     1  UNL1        0.0744
     22 C         -18.9838   -9.1368   18.4433 C.ar    1  UNL1        0.1481
     23 N         -19.5306   -9.1655   19.8398 N.ar    1  UNL1       -0.1929
     24 S         -19.3512   -7.8007   20.4359 S.2     1  UNL1        0.0369
     25 C         -18.6935   -6.9287   19.4078 C.ar    1  UNL1        0.1652
     26 N         -18.4665   -7.7544   18.1763 N.ar    1  UNL1       -0.2190
@<TRIPOS>BOND
     1    21    22    1
     2    22    23   ar
     3    23    24   ar
     4    24    25   ar
     5    25     1    1
     6     1     2   ar
     7     2     3   ar
     8     3     4   ar
     9     4     5   ar
    10     5     6    1
    11     6     7    1
    12     7     8    1
    13     8     9   am
    14     9    10    2
    15     9    14    1
    16    14    15   ar
    17    15    16   ar
    18    16    17   ar
    19    17    18    1
    20    17    19   ar
    21    19    20   ar
    22     8    11    1
    23    11    12    1
    24    11    13    1
    25    25    26   ar
    26    26    22   ar
    27     5     1   ar
    28    20    14   ar
    29    11     4    1
@<TRIPOS>MOLECULE
*****
 26 29 0 0 0
SMALL
GASTEIGER

@<TRIPOS>ATOM
      1 C           5.7793   -3.1501   22.8783 C.ar    1  UNL1        0.1917
      2 N           6.3761   -4.3362   22.1805 N.ar    1  UNL1       -0.1268
      3 N           6.1029   -4.1959   20.7123 N.ar    1  UNL1       -0.1316
      4 C           5.3373   -2.9232   20.5026 C.ar    1  UNL1        0.1595
      5 N           5.1373   -2.2768   21.8414 N.ar    1  UNL1       -0.2940
      6 C           4.3964   -0.9765   21.9432 C.3     1  UNL1        0.1302
      7 C           3.8555   -0.3226   20.7062 C.3     1  UNL1        0.1185
      8 N           4.0556   -0.9690   19.3675 N.am    1  UNL1       -0.2708
      9 C           3.5147   -0.3152   18.1306 C.2     1  UNL1        0.2493
     10 O           3.7148   -0.9616   16.7919 O.2     1  UNL1       -0.2699
     11 C           4.7965   -2.2693   19.2658 C.3     1  UNL1        0.1129
     12 C           5.4254   -3.4898   18.6615 C.3     1  UNL1        0.0277
     13 C           4.4740   -2.0393   17.8190 C.3     1  UNL1        0.0277
     14 C           2.7739    0.9851   18.2325 C.ar    1  UNL1        0.0537
     15 C           1.2773    0.9896   18.3340 C.ar    1  UNL1        0.0068
     16 C           0.5364    2.2900   18.4358 C.ar    1  UNL1        0.0298
     17 C           1.2921    3.5857   18.4361 C.ar    1  UNL1        0.1401
     18 F           0.5513    4.8860   18.5379 F       1  UNL1       -0.2042
     19 C           2.7887    3.5811   18.3346 C.ar    1  UNL1        0.0298
     20 C           3.5295    2.2809   18.2328 C.ar    1  UNL1        0.0068
     21 C           4.5861   -1.3120   27.6823 C.3     1  UNL1        0.0744
     22 C           5.2692   -2.0390   26.5621 C.ar    1  UNL1        0.1481
     23 N           6.4843   -2.9096   26.6876 N.ar    1  UNL1       -0.1929
     24 S           6.8232   -3.4318   25.3228 S.2     1  UNL1        0.0369
     25 C           5.8177   -2.8839   24.3540 C.ar    1  UNL1        0.1652
     26 N           4.8572   -2.0231   25.1199 N.ar    1  UNL1       -0.2190
@<TRIPOS>BOND
     1    21    22    1
     2    22    23   ar
     3    23    24   ar
     4    24    25   ar
     5    25     1    1
     6     1     2   ar
     7     2     3   ar
     8     3     4   ar
     9     4     5   ar
    10     5     6    1
    11     6     7    1
    12     7     8    1
    13     8     9   am
    14     9    10    2
    15     9    14    1
    16    14    15   ar
    17    15    16   ar
    18    16    17   ar
    19    17    18    1
    20    17    19   ar
    21    19    20   ar
    22     8    11    1
    23    11    12    1
    24    11    13    1
    25    25    26   ar
    26    26    22   ar
    27     5     1   ar
    28    20    14   ar
    29    11     4    1
@<TRIPOS>MOLECULE
*****
 26 29 0 0 0
SMALL
GASTEIGER

@<TRIPOS>ATOM
      1 C           7.8031   -5.4202   23.5665 C.ar    1  UNL1        0.1917
      2 N           8.2796   -6.7695   23.1167 N.ar    1  UNL1       -0.1268
      3 N           8.7058   -7.5392   24.3316 N.ar    1  UNL1       -0.1316
      4 C           8.4928   -6.6657   25.5322 C.ar    1  UNL1        0.1595
      5 N           7.9349   -5.3560   25.0594 N.ar    1  UNL1       -0.2940
      6 C           7.6189   -4.2742   26.0492 C.3     1  UNL1        0.1302
      7 C           7.8609   -4.5021   27.5120 C.3     1  UNL1        0.1185
      8 N           8.4188   -5.8117   27.9848 N.am    1  UNL1       -0.2708
      9 C           8.6608   -6.0396   29.4475 C.2     1  UNL1        0.2493
     10 O           9.2187   -7.3492   29.9203 O.2     1  UNL1       -0.2699
     11 C           8.7348   -6.8935   26.9949 C.3     1  UNL1        0.1129
     12 C           9.1896   -8.2137   26.4469 C.3     1  UNL1        0.0277
     13 C           9.1347   -7.5799   28.2673 C.3     1  UNL1        0.0277
     14 C           8.3448   -4.9578   30.4374 C.ar    1  UNL1        0.0537
     15 C           9.3932   -3.9512   30.8084 C.ar    1  UNL1        0.0068
     16 C           9.0772   -2.8694   31.7984 C.ar    1  UNL1        0.0298
     17 C           7.7129   -2.7942   32.4171 C.ar    1  UNL1        0.1401
     18 F           7.3969   -1.7123   33.4071 F       1  UNL1       -0.2042
     19 C           6.6645   -3.8008   32.0461 C.ar    1  UNL1        0.0298
     20 C           6.9804   -4.8825   31.0562 C.ar    1  UNL1        0.0068
     21 C           4.6245   -2.5111   20.5148 C.3     1  UNL1        0.0744
     22 C           5.8246   -2.9898   21.2766 C.ar    1  UNL1        0.1481
     23 N           7.1543   -2.2996   21.3514 N.ar    1  UNL1       -0.1929
     24 S           8.0573   -3.1261   22.2184 S.2     1  UNL1        0.0369
     25 C           7.2857   -4.3270   22.6793 C.ar    1  UNL1        0.1652
     26 N           5.9058   -4.2428   22.0972 N.ar    1  UNL1       -0.2190
@<TRIPOS>BOND
     1    21    22    1
     2    22    23   ar
     3    23    24   ar
     4    24    25   ar
     5    25     1    1
     6     1     2   ar
     7     2     3   ar
     8     3     4   ar
     9     4     5   ar
    10     5     6    1
    11     6     7    1
    12     7     8    1
    13     8     9   am
    14     9    10    2
    15     9    14    1
    16    14    15   ar
    17    15    16   ar
    18    16    17   ar
    19    17    18    1
    20    17    19   ar
    21    19    20   ar
    22     8    11    1
    23    11    12    1
    24    11    13    1
    25    25    26   ar
    26    26    22   ar
    27     5     1   ar
    28    20    14   ar
    29    11     4    1
