@<TRIPOS>MOLECULE
*****
 22 24 0 0 0
SMALL
GASTEIGER

@<TRIPOS>ATOM
      1 C          -7.7061  -18.3185   22.1137 C.2     1  UNL1       -0.0420
      2 C          -8.2845  -16.9810   22.4691 C.2     1  UNL1       -0.0239
      3 C          -9.7731  -17.0605   22.3021 C.ar    1  UNL1       -0.0077
      4 C         -10.8617  -16.0494   22.5083 C.ar    1  UNL1        0.0017
      5 C         -12.2918  -16.4250   22.2560 C.ar    1  UNL1        0.0296
      6 C         -12.6333  -17.8118   21.7974 C.ar    1  UNL1        0.1398
      7 F         -14.0634  -18.1874   21.5450 F       1  UNL1       -0.2042
      8 C         -11.5447  -18.8229   21.5911 C.ar    1  UNL1        0.0257
      9 C         -10.1146  -18.4473   21.8435 C.ar    1  UNL1       -0.0162
     10 C          -8.8371  -19.2247   21.7271 C.3     1  UNL1        0.0481
     11 C          -6.2519  -18.6854   22.1404 C.3     1  UNL1        0.0394
     12 C          -5.6056  -19.2783   20.9235 C.3     1  UNL1        0.0765
     13 C          -3.5776  -18.6820   19.4130 C.3     1  UNL1        0.0897
     14 N          -4.1235  -19.1568   20.7270 N.3     1  UNL1       -0.2700
     15 C          -3.1873  -19.5101   21.8444 C.3     1  UNL1        0.0897
     16 C          -7.5104  -15.7755   22.9135 C.3     1  UNL1        0.0733
     17 C          -7.1977  -15.5790   24.3674 C.ar    1  UNL1        0.0849
     18 C          -8.2085  -15.9560   25.4096 C.ar    1  UNL1        0.0185
     19 C          -7.8960  -15.7595   26.8634 C.ar    1  UNL1        0.0238
     20 C          -6.5725  -15.1860   27.2750 C.ar    1  UNL1        0.1222
     21 N          -5.5617  -14.8089   26.2329 N.ar    1  UNL1       -0.1467
     22 N          -5.8743  -15.0054   24.7791 N.ar    1  UNL1       -0.1520
@<TRIPOS>BOND
     1    13    14    1
     2    14    15    1
     3    14    12    1
     4    12    11    1
     5    11     1    1
     6     1     2    2
     7     2    16    1
     8    16    17    1
     9    17    18   ar
    10    18    19   ar
    11    19    20   ar
    12    20    21   ar
    13    21    22   ar
    14     2     3    1
    15     3     4   ar
    16     4     5   ar
    17     5     6   ar
    18     6     7    1
    19     6     8   ar
    20     8     9   ar
    21     9    10    1
    22    10     1    1
    23    22    17   ar
    24     9     3   ar
@<TRIPOS>MOLECULE
*****
 22 24 0 0 0
SMALL
GASTEIGER

@<TRIPOS>ATOM
      1 C          -9.7010  -18.5325   23.6009 C.2     1  UNL1       -0.0420
      2 C          -8.5584  -17.7637   23.0063 C.2     1  UNL1       -0.0239
      3 C          -7.9793  -16.8901   24.0794 C.ar    1  UNL1       -0.0077
      4 C          -6.8388  -15.9158   24.0736 C.ar    1  UNL1        0.0017
      5 C          -6.4831  -15.1702   25.3256 C.ar    1  UNL1        0.0296
      6 C          -7.2678  -15.3990   26.5834 C.ar    1  UNL1        0.1398
      7 F          -6.9120  -14.6534   27.8355 F       1  UNL1       -0.2042
      8 C          -8.4082  -16.3733   26.5891 C.ar    1  UNL1        0.0257
      9 C          -8.7640  -17.1188   25.3371 C.ar    1  UNL1       -0.0162
     10 C          -9.8280  -18.1339   25.0414 C.3     1  UNL1        0.0481
     11 C         -10.5648  -19.5255   22.8813 C.3     1  UNL1        0.0394
     12 C         -11.5952  -19.0509   21.9000 C.3     1  UNL1        0.0765
     13 C         -13.3376  -17.8124   23.3766 C.3     1  UNL1        0.0897
     14 N         -12.4081  -17.8263   22.1993 N.3     1  UNL1       -0.2700
     15 C         -12.2915  -16.6157   21.3214 C.3     1  UNL1        0.0897
     16 C          -8.0790  -17.8530   21.5878 C.3     1  UNL1        0.0733
     17 C          -6.8962  -18.7108   21.2484 C.ar    1  UNL1        0.0849
     18 C          -7.0928  -20.0006   20.5082 C.ar    1  UNL1        0.0185
     19 C          -5.9101  -20.8584   20.1687 C.ar    1  UNL1        0.0238
     20 C          -4.5307  -20.4265   20.5696 C.ar    1  UNL1        0.1222
     21 N          -4.3341  -19.1368   21.3099 N.ar    1  UNL1       -0.1467
     22 N          -5.5168  -18.2789   21.6493 N.ar    1  UNL1       -0.1520
@<TRIPOS>BOND
     1    13    14    1
     2    14    15    1
     3    14    12    1
     4    12    11    1
     5    11     1    1
     6     1     2    2
     7     2    16    1
     8    16    17    1
     9    17    18   ar
    10    18    19   ar
    11    19    20   ar
    12    20    21   ar
    13    21    22   ar
    14     2     3    1
    15     3     4   ar
    16     4     5   ar
    17     5     6   ar
    18     6     7    1
    19     6     8   ar
    20     8     9   ar
    21     9    10    1
    22    10     1    1
    23    22    17   ar
    24     9     3   ar
@<TRIPOS>MOLECULE
*****
 22 24 0 0 0
SMALL
GASTEIGER

@<TRIPOS>ATOM
      1 C          -7.4515  -17.5188   23.2025 C.2     1  UNL1       -0.0420
      2 C          -7.7767  -18.6798   22.3101 C.2     1  UNL1       -0.0239
      3 C          -6.4888  -19.2161   21.7592 C.ar    1  UNL1       -0.0077
      4 C          -6.1921  -20.3526   20.8263 C.ar    1  UNL1        0.0017
      5 C          -4.7742  -20.6596   20.4454 C.ar    1  UNL1        0.0296
      6 C          -3.6529  -19.8300   20.9973 C.ar    1  UNL1        0.1398
      7 F          -2.2349  -20.1371   20.6162 F       1  UNL1       -0.2042
      8 C          -3.9496  -18.6935   21.9301 C.ar    1  UNL1        0.0257
      9 C          -5.3675  -18.3866   22.3111 C.ar    1  UNL1       -0.0162
     10 C          -5.9625  -17.3376   23.2031 C.3     1  UNL1        0.0481
     11 C          -8.4415  -16.6854   23.9611 C.3     1  UNL1        0.0394
     12 C          -7.9797  -15.4745   24.7163 C.3     1  UNL1        0.0765
     13 C          -5.9200  -15.2784   26.2877 C.3     1  UNL1        0.0897
     14 N          -7.3632  -15.6281   26.0751 N.3     1  UNL1       -0.2700
     15 C          -8.1897  -16.1312   27.2213 C.3     1  UNL1        0.0897
     16 C          -9.1491  -19.2112   22.0196 C.3     1  UNL1        0.0733
     17 C         -10.2341  -18.2792   21.5677 C.ar    1  UNL1        0.0849
     18 C         -11.6031  -18.3722   22.1736 C.ar    1  UNL1        0.0185
     19 C         -12.6882  -17.4403   21.7217 C.ar    1  UNL1        0.0238
     20 C         -12.4041  -16.4154   20.6639 C.ar    1  UNL1        0.1222
     21 N         -11.0351  -16.3225   20.0580 N.ar    1  UNL1       -0.1467
     22 N          -9.9501  -17.2544   20.5098 N.ar    1  UNL1       -0.1520
@<TRIPOS>BOND
     1    13    14    1
     2    14    15    1
     3    14    12    1
     4    12    11    1
     5    11     1    1
     6     1     2    2
     7     2    16    1
     8    16    17    1
     9    17    18   ar
    10    18    19   ar
    11    19    20   ar
    12    20    21   ar
    13    21    22   ar
    14     2     3    1
    15     3     4   ar
    16     4     5   ar
    17     5     6   ar
    18     6     7    1
    19     6     8   ar
    20     8     9   ar
    21     9    10    1
    22    10     1    1
    23    22    17   ar
    24     9     3   ar
@<TRIPOS>MOLECULE
*****
 22 24 0 0 0
SMALL
GASTEIGER

@<TRIPOS>ATOM
      1 C          -8.7307  -19.1247   21.0747 C.2     1  UNL1       -0.0420
      2 C          -8.1973  -18.1186   22.0510 C.2     1  UNL1       -0.0239
      3 C          -6.7174  -18.3309   22.1735 C.ar    1  UNL1       -0.0077
      4 C          -5.6678  -17.6356   22.9888 C.ar    1  UNL1        0.0017
      5 C          -4.2370  -18.0776   22.9034 C.ar    1  UNL1        0.0296
      6 C          -3.8558  -19.2149   22.0028 C.ar    1  UNL1        0.1398
      7 F          -2.4249  -19.6569   21.9174 F       1  UNL1       -0.2042
      8 C          -4.9054  -19.9103   21.1875 C.ar    1  UNL1        0.0257
      9 C          -6.3362  -19.4683   21.2729 C.ar    1  UNL1       -0.0162
     10 C          -7.5805  -19.9589   20.5938 C.3     1  UNL1        0.0481
     11 C         -10.1628  -19.2710   20.6532 C.3     1  UNL1        0.0394
     12 C         -10.7699  -18.2815   19.7034 C.3     1  UNL1        0.0765
     13 C         -11.7522  -15.8788   19.5922 C.3     1  UNL1        0.0897
     14 N         -11.7279  -17.2449   20.2112 N.3     1  UNL1       -0.2700
     15 C         -12.6616  -17.5744   21.3379 C.3     1  UNL1        0.0897
     16 C          -9.0023  -17.0821   22.7773 C.3     1  UNL1        0.0733
     17 C          -8.8341  -16.9030   24.2571 C.ar    1  UNL1        0.0849
     18 C          -8.1694  -15.6695   24.7925 C.ar    1  UNL1        0.0185
     19 C          -8.0011  -15.4904   26.2722 C.ar    1  UNL1        0.0238
     20 C          -8.4976  -16.5448   27.2166 C.ar    1  UNL1        0.1222
     21 N          -9.1624  -17.7782   26.6811 N.ar    1  UNL1       -0.1467
     22 N          -9.3306  -17.9574   25.2015 N.ar    1  UNL1       -0.1520
@<TRIPOS>BOND
     1    13    14    1
     2    14    15    1
     3    14    12    1
     4    12    11    1
     5    11     1    1
     6     1     2    2
     7     2    16    1
     8    16    17    1
     9    17    18   ar
    10    18    19   ar
    11    19    20   ar
    12    20    21   ar
    13    21    22   ar
    14     2     3    1
    15     3     4   ar
    16     4     5   ar
    17     5     6   ar
    18     6     7    1
    19     6     8   ar
    20     8     9   ar
    21     9    10    1
    22    10     1    1
    23    22    17   ar
    24     9     3   ar
@<TRIPOS>MOLECULE
*****
 22 24 0 0 0
SMALL
GASTEIGER

@<TRIPOS>ATOM
      1 C          -8.5667  -18.2655   21.6224 C.2     1  UNL1       -0.0420
      2 C          -7.7045  -17.3542   22.4447 C.2     1  UNL1       -0.0239
      3 C          -6.3091  -17.9046   22.4370 C.ar    1  UNL1       -0.0077
      4 C          -5.0386  -17.4279   23.0763 C.ar    1  UNL1        0.0017
      5 C          -3.7680  -18.2027   22.8885 C.ar    1  UNL1        0.0296
      6 C          -3.7679  -19.4541   22.0615 C.ar    1  UNL1        0.1398
      7 F          -2.4972  -20.2289   21.8738 F       1  UNL1       -0.2042
      8 C          -5.0384  -19.9308   21.4223 C.ar    1  UNL1        0.0257
      9 C          -6.3090  -19.1560   21.6100 C.ar    1  UNL1       -0.0162
     10 C          -7.7042  -19.3790   21.1066 C.3     1  UNL1        0.0481
     11 C         -10.0338  -18.0934   21.3617 C.3     1  UNL1        0.0394
     12 C         -11.0234  -19.0203   22.0033 C.3     1  UNL1        0.0765
     13 C         -12.9654  -17.9622   23.3668 C.3     1  UNL1        0.0897
     14 N         -11.6396  -18.6625   23.3232 N.3     1  UNL1       -0.2700
     15 C         -10.9300  -19.0050   24.5996 C.3     1  UNL1        0.0897
     16 C          -8.1579  -16.1109   23.1506 C.3     1  UNL1        0.0733
     17 C          -7.6678  -15.8145   24.5371 C.ar    1  UNL1        0.0849
     18 C          -8.4201  -16.3351   25.7258 C.ar    1  UNL1        0.0185
     19 C          -7.9301  -16.0387   27.1121 C.ar    1  UNL1        0.0238
     20 C          -6.6877  -15.2218   27.3098 C.ar    1  UNL1        0.1222
     21 N          -5.9354  -14.7013   26.1211 N.ar    1  UNL1       -0.1467
     22 N          -6.4254  -14.9976   24.7347 N.ar    1  UNL1       -0.1520
@<TRIPOS>BOND
     1    13    14    1
     2    14    15    1
     3    14    12    1
     4    12    11    1
     5    11     1    1
     6     1     2    2
     7     2    16    1
     8    16    17    1
     9    17    18   ar
    10    18    19   ar
    11    19    20   ar
    12    20    21   ar
    13    21    22   ar
    14     2     3    1
    15     3     4   ar
    16     4     5   ar
    17     5     6   ar
    18     6     7    1
    19     6     8   ar
    20     8     9   ar
    21     9    10    1
    22    10     1    1
    23    22    17   ar
    24     9     3   ar
@<TRIPOS>MOLECULE
*****
 22 24 0 0 0
SMALL
GASTEIGER

@<TRIPOS>ATOM
      1 C          -5.8432  -18.3930   22.3712 C.2     1  UNL1       -0.0420
      2 C          -5.6954  -19.3631   21.2367 C.2     1  UNL1       -0.0239
      3 C          -7.0238  -19.4788   20.5497 C.ar    1  UNL1       -0.0077
      4 C          -7.4764  -20.2863   19.3694 C.ar    1  UNL1        0.0017
      5 C          -8.8978  -20.1952   18.8990 C.ar    1  UNL1        0.0296
      6 C          -9.8666  -19.2965   19.6089 C.ar    1  UNL1        0.1398
      7 F         -11.2880  -19.2054   19.1384 F       1  UNL1       -0.2042
      8 C          -9.4140  -18.4890   20.7891 C.ar    1  UNL1        0.0257
      9 C          -7.9926  -18.5802   21.2595 C.ar    1  UNL1       -0.0162
     10 C          -7.2629  -17.9091   22.3853 C.3     1  UNL1        0.0481
     11 C          -4.7612  -17.9794   23.3242 C.3     1  UNL1        0.0394
     12 C          -4.5500  -16.5272   23.6346 C.3     1  UNL1        0.0765
     13 C          -6.6750  -15.0961   24.0663 C.3     1  UNL1        0.0897
     14 N          -5.4700  -15.8222   24.5867 N.3     1  UNL1       -0.2700
     15 C          -5.1850  -15.8433   26.0592 C.3     1  UNL1        0.0897
     16 C          -4.4397  -20.0900   20.8561 C.3     1  UNL1        0.0733
     17 C          -3.2388  -19.3201   20.3920 C.ar    1  UNL1        0.0849
     18 C          -3.3598  -18.3618   19.2444 C.ar    1  UNL1        0.0185
     19 C          -2.1591  -17.5919   18.7803 C.ar    1  UNL1        0.0238
     20 C          -0.8372  -17.7805   19.4638 C.ar    1  UNL1        0.1222
     21 N          -0.7162  -18.7388   20.6113 N.ar    1  UNL1       -0.1467
     22 N          -1.9170  -19.5086   21.0755 N.ar    1  UNL1       -0.1520
@<TRIPOS>BOND
     1    13    14    1
     2    14    15    1
     3    14    12    1
     4    12    11    1
     5    11     1    1
     6     1     2    2
     7     2    16    1
     8    16    17    1
     9    17    18   ar
    10    18    19   ar
    11    19    20   ar
    12    20    21   ar
    13    21    22   ar
    14     2     3    1
    15     3     4   ar
    16     4     5   ar
    17     5     6   ar
    18     6     7    1
    19     6     8   ar
    20     8     9   ar
    21     9    10    1
    22    10     1    1
    23    22    17   ar
    24     9     3   ar
@<TRIPOS>MOLECULE
*****
 22 24 0 0 0
SMALL
GASTEIGER

@<TRIPOS>ATOM
      1 C          -5.7746  -17.3212   23.1680 C.2     1  UNL1       -0.0420
      2 C          -5.0016  -18.4262   22.5111 C.2     1  UNL1       -0.0239
      3 C          -5.9063  -19.1009   21.5230 C.ar    1  UNL1       -0.0077
      4 C          -5.6892  -20.2529   20.5872 C.ar    1  UNL1        0.0017
      5 C          -6.8041  -20.7168   19.6976 C.ar    1  UNL1        0.0296
      6 C          -8.1363  -20.0288   19.7438 C.ar    1  UNL1        0.1398
      7 F          -9.2513  -20.4929   18.8541 F       1  UNL1       -0.2042
      8 C          -8.3534  -18.8769   20.6796 C.ar    1  UNL1        0.0257
      9 C          -7.2384  -18.4129   21.5692 C.ar    1  UNL1       -0.0162
     10 C          -7.1570  -17.3130   22.5859 C.3     1  UNL1        0.0481
     11 C          -5.2562  -16.3882   24.2220 C.3     1  UNL1        0.0394
     12 C          -6.1033  -15.2433   24.6925 C.3     1  UNL1        0.0765
     13 C          -8.5839  -15.5007   25.4209 C.3     1  UNL1        0.0897
     14 N          -7.1254  -15.4593   25.7690 N.3     1  UNL1       -0.2700
     15 C          -6.6890  -15.6338   27.1934 C.3     1  UNL1        0.0897
     16 C          -3.5745  -18.7922   22.7929 C.3     1  UNL1        0.0733
     17 C          -2.4942  -18.3938   21.8315 C.ar    1  UNL1        0.0849
     18 C          -2.1766  -16.9432   21.6193 C.ar    1  UNL1        0.0185
     19 C          -1.0964  -16.5447   20.6579 C.ar    1  UNL1        0.0238
     20 C          -0.3337  -17.5969   19.9088 C.ar    1  UNL1        0.1222
     21 N          -0.6512  -19.0474   20.1210 N.ar    1  UNL1       -0.1467
     22 N          -1.7315  -19.4459   21.0823 N.ar    1  UNL1       -0.1520
@<TRIPOS>BOND
     1    13    14    1
     2    14    15    1
     3    14    12    1
     4    12    11    1
     5    11     1    1
     6     1     2    2
     7     2    16    1
     8    16    17    1
     9    17    18   ar
    10    18    19   ar
    11    19    20   ar
    12    20    21   ar
    13    21    22   ar
    14     2     3    1
    15     3     4   ar
    16     4     5   ar
    17     5     6   ar
    18     6     7    1
    19     6     8   ar
    20     8     9   ar
    21     9    10    1
    22    10     1    1
    23    22    17   ar
    24     9     3   ar
@<TRIPOS>MOLECULE
*****
 22 24 0 0 0
SMALL
GASTEIGER

@<TRIPOS>ATOM
      1 C          -8.2145  -18.5689   21.5608 C.2     1  UNL1       -0.0420
      2 C          -6.7354  -18.7879   21.6803 C.2     1  UNL1       -0.0239
      3 C          -6.2014  -17.8089   22.6836 C.ar    1  UNL1       -0.0077
      4 C          -4.8174  -17.5614   23.2061 C.ar    1  UNL1        0.0017
      5 C          -4.5824  -16.4899   24.2290 C.ar    1  UNL1        0.0296
      6 C          -5.7315  -15.6658   24.7296 C.ar    1  UNL1        0.1398
      7 F          -5.4965  -14.5942   25.7526 F       1  UNL1       -0.2042
      8 C          -7.1156  -15.9134   24.2071 C.ar    1  UNL1        0.0257
      9 C          -7.3506  -16.9849   23.1841 C.ar    1  UNL1       -0.0162
     10 C          -8.5947  -17.4546   22.4902 C.3     1  UNL1        0.0481
     11 C          -9.1493  -19.3305   20.6685 C.3     1  UNL1        0.0394
     12 C         -10.6085  -19.4123   21.0062 C.3     1  UNL1        0.0765
     13 C         -12.5473  -17.9358   21.9067 C.3     1  UNL1        0.0897
     14 N         -11.4746  -18.1932   20.8902 N.3     1  UNL1       -0.2700
     15 C         -11.2681  -17.2313   19.7579 C.3     1  UNL1        0.0897
     16 C          -5.9314  -19.8069   20.9286 C.3     1  UNL1        0.0733
     17 C          -4.4747  -19.5660   20.6635 C.ar    1  UNL1        0.0849
     18 C          -4.0556  -18.6735   19.5332 C.ar    1  UNL1        0.0185
     19 C          -2.5990  -18.4326   19.2681 C.ar    1  UNL1        0.0238
     20 C          -1.5615  -19.0843   20.1334 C.ar    1  UNL1        0.1222
     21 N          -1.9805  -19.9769   21.2637 N.ar    1  UNL1       -0.1467
     22 N          -3.4371  -20.2178   21.5288 N.ar    1  UNL1       -0.1520
@<TRIPOS>BOND
     1    13    14    1
     2    14    15    1
     3    14    12    1
     4    12    11    1
     5    11     1    1
     6     1     2    2
     7     2    16    1
     8    16    17    1
     9    17    18   ar
    10    18    19   ar
    11    19    20   ar
    12    20    21   ar
    13    21    22   ar
    14     2     3    1
    15     3     4   ar
    16     4     5   ar
    17     5     6   ar
    18     6     7    1
    19     6     8   ar
    20     8     9   ar
    21     9    10    1
    22    10     1    1
    23    22    17   ar
    24     9     3   ar
@<TRIPOS>MOLECULE
*****
 22 24 0 0 0
SMALL
GASTEIGER

@<TRIPOS>ATOM
      1 C          -7.4872  -16.9900   22.9526 C.2     1  UNL1       -0.0420
      2 C          -7.7342  -18.3679   22.4135 C.2     1  UNL1       -0.0239
      3 C          -9.1872  -18.4723   22.0560 C.ar    1  UNL1       -0.0077
      4 C         -10.0015  -19.5935   21.4820 C.ar    1  UNL1        0.0017
      5 C         -11.4669  -19.4015   21.2260 C.ar    1  UNL1        0.0296
      6 C         -12.1180  -18.0881   21.5441 C.ar    1  UNL1        0.1398
      7 F         -13.5836  -17.8961   21.2880 F       1  UNL1       -0.2042
      8 C         -11.3037  -16.9669   22.1181 C.ar    1  UNL1        0.0257
      9 C          -9.8383  -17.1589   22.3741 C.ar    1  UNL1       -0.0162
     10 C          -8.7877  -16.2429   22.9282 C.3     1  UNL1        0.0481
     11 C          -6.1710  -16.4535   23.4318 C.3     1  UNL1        0.0394
     12 C          -6.1358  -15.3463   24.4431 C.3     1  UNL1        0.0765
     13 C          -7.2129  -15.3514   26.8074 C.3     1  UNL1        0.0897
     14 N          -6.0568  -15.6688   25.9059 N.3     1  UNL1       -0.2700
     15 C          -4.8217  -16.3087   26.4672 C.3     1  UNL1        0.0897
     16 C          -6.7082  -19.4512   22.2591 C.3     1  UNL1        0.0733
     17 C          -5.4214  -19.1688   21.5416 C.ar    1  UNL1        0.0849
     18 C          -4.1118  -19.3560   22.2485 C.ar    1  UNL1        0.0185
     19 C          -2.8251  -19.0737   21.5312 C.ar    1  UNL1        0.0238
     20 C          -2.8481  -18.6040   20.1068 C.ar    1  UNL1        0.1222
     21 N          -4.1578  -18.4168   19.3998 N.ar    1  UNL1       -0.1467
     22 N          -5.4444  -18.6991   20.1172 N.ar    1  UNL1       -0.1520
@<TRIPOS>BOND
     1    13    14    1
     2    14    15    1
     3    14    12    1
     4    12    11    1
     5    11     1    1
     6     1     2    2
     7     2    16    1
     8    16    17    1
     9    17    18   ar
    10    18    19   ar
    11    19    20   ar
    12    20    21   ar
    13    21    22   ar
    14     2     3    1
    15     3     4   ar
    16     4     5   ar
    17     5     6   ar
    18     6     7    1
    19     6     8   ar
    20     8     9   ar
    21     9    10    1
    22    10     1    1
    23    22    17   ar
    24     9     3   ar
