@<TRIPOS>MOLECULE
*****
 35 39 0 0 0
SMALL
GASTEIGER

@<TRIPOS>ATOM
      1 N          -5.2578  -19.6702   21.5104 N.3     1  UNL1       -0.2712
      2 C          -5.4450  -19.8443   20.0324 C.3     1  UNL1        0.0738
      3 C          -6.9085  -19.7107   19.7316 C.3     1  UNL1        0.0372
      4 C          -7.9286  -19.7357   18.6323 C.3     1  UNL1        0.0245
      5 C          -9.2764  -19.4945   19.2449 C.3     1  UNL1        0.0909
      6 N          -9.0892  -19.3204   20.7231 N.pl3   1  UNL1       -0.3060
      7 C          -7.6257  -19.4540   21.0238 C.3     1  UNL1        0.0901
      8 C          -6.6056  -19.4290   22.1232 C.3     1  UNL1        0.0921
      9 C         -10.1748  -19.0587   21.7245 C.ar    1  UNL1        0.0756
     10 C         -10.1588  -19.7622   23.0491 C.ar    1  UNL1        0.0167
     11 C         -11.2444  -19.5005   24.0506 C.ar    1  UNL1        0.0053
     12 C         -12.3461  -18.5352   23.7274 C.ar    1  UNL1        0.0737
     13 C         -12.3621  -17.8316   22.4027 C.ar    1  UNL1        0.0348
     14 C         -11.2765  -18.0933   21.4013 C.ar    1  UNL1        0.1533
     15 F         -11.2925  -17.3897   20.0766 F       1  UNL1       -0.2029
     16 C         -13.4317  -18.2735   24.7289 C.3     1  UNL1        0.4186
     17 F         -14.5173  -18.0117   25.7303 F       1  UNL1       -0.1659
     18 F         -12.7180  -19.1354   25.7278 F       1  UNL1       -0.1659
     19 F         -14.1453  -17.4116   23.7300 F       1  UNL1       -0.1659
     20 C          -3.9521  -19.7273   22.2466 C.3     1  UNL1        0.0731
     21 C          -2.6697  -19.4432   21.5222 C.3     1  UNL1        0.0294
     22 C          -2.3121  -18.0334   21.1549 C.3     1  UNL1        0.0666
     23 S          -2.1389  -16.9998   22.2280 S.3     1  UNL1       -0.0756
     24 C          -5.2259  -15.5940   24.1148 C.ar    1  UNL1        0.2029
     25 N          -5.1036  -14.6124   22.9871 N.ar    1  UNL1       -0.1250
     26 N          -3.9323  -15.0195   22.1431 N.ar    1  UNL1       -0.1220
     27 C          -3.3307  -16.2528   22.7491 C.ar    1  UNL1        0.1933
     28 N          -4.1301  -16.6078   23.9676 N.ar    1  UNL1       -0.2860
     29 C          -3.8781  -17.7722   24.8791 C.3     1  UNL1        0.1341
     30 C          -8.3841  -16.3398   23.7696 C.3     1  UNL1        0.0556
     31 C          -7.7136  -15.9094   25.0405 C.ar    1  UNL1        0.1001
     32 N          -8.3770  -15.7462   26.3759 N.ar    1  UNL1       -0.2085
     33 C          -7.3354  -15.3025   27.3599 C.ar    1  UNL1        0.2849
     34 O          -6.0282  -15.1915   26.6326 O.2     1  UNL1       -0.4283
     35 C          -6.2619  -15.5666   25.1992 C.ar    1  UNL1        0.1964
@<TRIPOS>BOND
     1    30    31    1
     2    31    32   ar
     3    32    33   ar
     4    33    34   ar
     5    34    35   ar
     6    35    24    1
     7    24    25   ar
     8    25    26   ar
     9    26    27   ar
    10    27    23    1
    11    23    22    1
    12    22    21    1
    13    21    20    1
    14    20     1    1
    15     1     2    1
    16     2     3    1
    17     3     4    1
    18     4     5    1
    19     5     6    1
    20     6     9    1
    21     9    10   ar
    22    10    11   ar
    23    11    12   ar
    24    12    16    1
    25    16    17    1
    26    16    18    1
    27    16    19    1
    28    12    13   ar
    29    13    14   ar
    30    14    15    1
    31     6     7    1
    32     7     8    1
    33    27    28   ar
    34    28    29    1
    35    35    31   ar
    36    28    24   ar
    37     8     1    1
    38     7     3    1
    39    14     9   ar
@<TRIPOS>MOLECULE
*****
 35 39 0 0 0
SMALL
GASTEIGER

@<TRIPOS>ATOM
      1 N         -10.4164  -19.6842   22.6719 N.3     1  UNL1       -0.2712
      2 C         -11.0732  -19.9294   21.3459 C.3     1  UNL1        0.0738
      3 C         -10.0053  -19.9287   20.2925 C.3     1  UNL1        0.0372
      4 C          -9.7512  -20.0798   18.8220 C.3     1  UNL1        0.0245
      5 C          -8.2774  -19.9274   18.5881 C.3     1  UNL1        0.0909
      6 N          -7.6206  -19.6822   19.9143 N.pl3   1  UNL1       -0.3060
      7 C          -8.6885  -19.6829   20.9676 C.3     1  UNL1        0.0901
      8 C          -8.9426  -19.5318   22.4382 C.3     1  UNL1        0.0921
      9 C          -6.1535  -19.4729   20.1462 C.ar    1  UNL1        0.0756
     10 C          -5.3692  -18.5805   19.2306 C.ar    1  UNL1        0.0167
     11 C          -3.9021  -18.3712   19.4626 C.ar    1  UNL1        0.0053
     12 C          -3.2193  -19.0544   20.6102 C.ar    1  UNL1        0.0737
     13 C          -4.0036  -19.9469   21.5259 C.ar    1  UNL1        0.0348
     14 C          -5.4707  -20.1562   21.2939 C.ar    1  UNL1        0.1533
     15 F          -6.2550  -21.0486   22.2095 F       1  UNL1       -0.2029
     16 C          -1.7522  -18.8452   20.8422 C.3     1  UNL1        0.4186
     17 F          -0.2851  -18.6359   21.0742 F       1  UNL1       -0.1659
     18 F          -1.9526  -19.0694   22.3118 F       1  UNL1       -0.1659
     19 F          -1.5518  -18.6209   19.3727 F       1  UNL1       -0.1659
     20 C         -11.1114  -19.6051   23.9989 C.3     1  UNL1        0.0731
     21 C         -12.1445  -18.5452   24.2425 C.3     1  UNL1        0.0294
     22 C         -12.5229  -17.5994   23.1414 C.3     1  UNL1        0.0666
     23 S         -11.8632  -16.2556   23.0473 S.3     1  UNL1       -0.0756
     24 C          -7.9866  -16.1956   22.8615 C.ar    1  UNL1        0.2029
     25 N          -8.3501  -15.8176   21.4561 N.ar    1  UNL1       -0.1250
     26 N          -9.8465  -15.7941   21.3546 N.ar    1  UNL1       -0.1220
     27 C         -10.4078  -16.1575   22.6973 C.ar    1  UNL1        0.1933
     28 N          -9.2584  -16.4056   23.6286 N.ar    1  UNL1       -0.2860
     29 C          -9.3625  -16.7954   25.0733 C.3     1  UNL1        0.1341
     30 C          -6.8265  -14.7772   25.5618 C.3     1  UNL1        0.0556
     31 C          -6.0623  -15.6864   24.6456 C.ar    1  UNL1        0.1001
     32 N          -4.6308  -16.1033   24.8096 N.ar    1  UNL1       -0.2085
     33 C          -4.2793  -17.0129   23.6698 C.ar    1  UNL1        0.2849
     34 O          -5.4937  -17.1582   22.8013 O.2     1  UNL1       -0.4283
     35 C          -6.5956  -16.3383   23.4044 C.ar    1  UNL1        0.1964
@<TRIPOS>BOND
     1    30    31    1
     2    31    32   ar
     3    32    33   ar
     4    33    34   ar
     5    34    35   ar
     6    35    24    1
     7    24    25   ar
     8    25    26   ar
     9    26    27   ar
    10    27    23    1
    11    23    22    1
    12    22    21    1
    13    21    20    1
    14    20     1    1
    15     1     2    1
    16     2     3    1
    17     3     4    1
    18     4     5    1
    19     5     6    1
    20     6     9    1
    21     9    10   ar
    22    10    11   ar
    23    11    12   ar
    24    12    16    1
    25    16    17    1
    26    16    18    1
    27    16    19    1
    28    12    13   ar
    29    13    14   ar
    30    14    15    1
    31     6     7    1
    32     7     8    1
    33    27    28   ar
    34    28    29    1
    35    35    31   ar
    36    28    24   ar
    37     8     1    1
    38     7     3    1
    39    14     9   ar
@<TRIPOS>MOLECULE
*****
 35 39 0 0 0
SMALL
GASTEIGER

@<TRIPOS>ATOM
      1 N          -9.6346  -19.3925   19.7508 N.3     1  UNL1       -0.2712
      2 C         -11.1247  -19.2450   19.6640 C.3     1  UNL1        0.0738
      3 C         -11.5873  -18.4923   20.8763 C.3     1  UNL1        0.0372
      4 C         -12.7943  -17.9360   21.5718 C.3     1  UNL1        0.0245
      5 C         -12.3359  -17.2745   22.8377 C.3     1  UNL1        0.0909
      6 N         -10.8457  -17.4221   22.9245 N.pl3   1  UNL1       -0.3060
      7 C         -10.3831  -18.1747   21.7122 C.3     1  UNL1        0.0901
      8 C          -9.1762  -18.7311   21.0167 C.3     1  UNL1        0.0921
      9 C          -9.9716  -16.9074   24.0295 C.ar    1  UNL1        0.0756
     10 C          -9.2935  -15.5766   23.8913 C.ar    1  UNL1        0.0167
     11 C          -8.4194  -15.0618   24.9963 C.ar    1  UNL1        0.0053
     12 C          -8.2233  -15.8779   26.2394 C.ar    1  UNL1        0.0737
     13 C          -8.9014  -17.2088   26.3777 C.ar    1  UNL1        0.0348
     14 C          -9.7756  -17.7235   25.2727 C.ar    1  UNL1        0.1533
     15 F         -10.4536  -19.0543   25.4109 F       1  UNL1       -0.2029
     16 C          -7.3492  -15.3632   27.3444 C.3     1  UNL1        0.4186
     17 F          -6.4751  -14.8485   28.4494 F       1  UNL1       -0.1659
     18 F          -8.5476  -14.7515   28.0075 F       1  UNL1       -0.1659
     19 F          -6.1508  -15.9749   26.6814 F       1  UNL1       -0.1659
     20 C          -8.7568  -20.0807   18.7478 C.3     1  UNL1        0.0731
     21 C          -7.3064  -20.3109   19.0534 C.3     1  UNL1        0.0294
     22 C          -6.9125  -21.1732   20.2159 C.3     1  UNL1        0.0666
     23 S          -6.4719  -20.5415   21.5030 S.3     1  UNL1       -0.0756
     24 C          -3.2020  -18.5065   21.0210 C.ar    1  UNL1        0.2029
     25 N          -3.9302  -17.6534   22.0171 N.ar    1  UNL1       -0.1250
     26 N          -5.2437  -18.3119   22.3189 N.ar    1  UNL1       -0.1220
     27 C          -5.3274  -19.5719   21.5093 C.ar    1  UNL1        0.1933
     28 N          -4.0656  -19.6922   20.7072 N.ar    1  UNL1       -0.2860
     29 C          -3.7267  -20.8031   19.7580 C.3     1  UNL1        0.1341
     30 C          -2.6054  -17.2261   18.0792 C.3     1  UNL1        0.0556
     31 C          -1.5739  -17.6349   19.0885 C.ar    1  UNL1        0.1001
     32 N          -0.0870  -17.5271   18.9228 N.ar    1  UNL1       -0.2085
     33 C           0.5578  -18.0489   20.1726 C.ar    1  UNL1        0.2849
     34 O          -0.5306  -18.4793   21.1107 O.2     1  UNL1       -0.4283
     35 C          -1.8481  -18.2235   20.4407 C.ar    1  UNL1        0.1964
@<TRIPOS>BOND
     1    30    31    1
     2    31    32   ar
     3    32    33   ar
     4    33    34   ar
     5    34    35   ar
     6    35    24    1
     7    24    25   ar
     8    25    26   ar
     9    26    27   ar
    10    27    23    1
    11    23    22    1
    12    22    21    1
    13    21    20    1
    14    20     1    1
    15     1     2    1
    16     2     3    1
    17     3     4    1
    18     4     5    1
    19     5     6    1
    20     6     9    1
    21     9    10   ar
    22    10    11   ar
    23    11    12   ar
    24    12    16    1
    25    16    17    1
    26    16    18    1
    27    16    19    1
    28    12    13   ar
    29    13    14   ar
    30    14    15    1
    31     6     7    1
    32     7     8    1
    33    27    28   ar
    34    28    29    1
    35    35    31   ar
    36    28    24   ar
    37     8     1    1
    38     7     3    1
    39    14     9   ar
@<TRIPOS>MOLECULE
*****
 35 39 0 0 0
SMALL
GASTEIGER

@<TRIPOS>ATOM
      1 N          -9.6032  -18.5606   20.3354 N.3     1  UNL1       -0.2712
      2 C          -9.8337  -19.6080   21.3841 C.3     1  UNL1        0.0738
      3 C          -8.5000  -20.0035   21.9452 C.3     1  UNL1        0.0372
      4 C          -7.8182  -20.8952   22.9401 C.3     1  UNL1        0.0245
      5 C          -6.3420  -20.6433   22.8533 C.3     1  UNL1        0.0909
      6 N          -6.1115  -19.5958   21.8046 N.pl3   1  UNL1       -0.3060
      7 C          -7.4452  -19.2004   21.2434 C.3     1  UNL1        0.0901
      8 C          -8.1270  -18.3086   20.2485 C.3     1  UNL1        0.0921
      9 C          -4.7810  -19.0411   21.3899 C.ar    1  UNL1        0.0756
     10 C          -4.3613  -19.0955   19.9509 C.ar    1  UNL1        0.0167
     11 C          -3.0307  -18.5408   19.5362 C.ar    1  UNL1        0.0053
     12 C          -2.1198  -17.9317   20.5606 C.ar    1  UNL1        0.0737
     13 C          -2.5395  -17.8774   21.9997 C.ar    1  UNL1        0.0348
     14 C          -3.8701  -18.4320   22.4144 C.ar    1  UNL1        0.1533
     15 F          -4.2898  -18.3777   23.8534 F       1  UNL1       -0.2029
     16 C          -0.7893  -17.3771   20.1459 C.3     1  UNL1        0.4186
     17 F           0.5413  -16.8224   19.7313 F       1  UNL1       -0.1659
     18 F          -1.0759  -16.1184   20.9098 F       1  UNL1       -0.1659
     19 F          -0.5026  -18.6358   19.3820 F       1  UNL1       -0.1659
     20 C         -10.6628  -17.8838   19.5173 C.3     1  UNL1        0.0731
     21 C         -11.7958  -17.1737   20.1971 C.3     1  UNL1        0.0294
     22 C         -12.5767  -17.8665   21.2743 C.3     1  UNL1        0.0666
     23 S         -12.5354  -17.3489   22.6815 S.3     1  UNL1       -0.0756
     24 C          -9.0051  -16.8518   24.2163 C.ar    1  UNL1        0.2029
     25 N          -9.5328  -17.9738   25.0604 N.ar    1  UNL1       -0.1250
     26 N         -10.9195  -18.2966   24.5882 N.ar    1  UNL1       -0.1220
     27 C         -11.2488  -17.3740   23.4523 C.ar    1  UNL1        0.1933
     28 N         -10.0657  -16.4811   23.2224 N.ar    1  UNL1       -0.2860
     29 C          -9.9614  -15.4061   22.1814 C.3     1  UNL1        0.1341
     30 C          -7.7883  -15.4581   26.9046 C.3     1  UNL1        0.0556
     31 C          -7.0948  -15.5720   25.5794 C.ar    1  UNL1        0.1001
     32 N          -5.7202  -15.0654   25.2572 N.ar    1  UNL1       -0.2085
     33 C          -5.4299  -15.3928   23.8225 C.ar    1  UNL1        0.2849
     34 O          -6.6252  -16.1019   23.2579 O.2     1  UNL1       -0.4283
     35 C          -7.6541  -16.2126   24.3438 C.ar    1  UNL1        0.1964
@<TRIPOS>BOND
     1    30    31    1
     2    31    32   ar
     3    32    33   ar
     4    33    34   ar
     5    34    35   ar
     6    35    24    1
     7    24    25   ar
     8    25    26   ar
     9    26    27   ar
    10    27    23    1
    11    23    22    1
    12    22    21    1
    13    21    20    1
    14    20     1    1
    15     1     2    1
    16     2     3    1
    17     3     4    1
    18     4     5    1
    19     5     6    1
    20     6     9    1
    21     9    10   ar
    22    10    11   ar
    23    11    12   ar
    24    12    16    1
    25    16    17    1
    26    16    18    1
    27    16    19    1
    28    12    13   ar
    29    13    14   ar
    30    14    15    1
    31     6     7    1
    32     7     8    1
    33    27    28   ar
    34    28    29    1
    35    35    31   ar
    36    28    24   ar
    37     8     1    1
    38     7     3    1
    39    14     9   ar
@<TRIPOS>MOLECULE
*****
 35 39 0 0 0
SMALL
GASTEIGER

@<TRIPOS>ATOM
      1 N         -10.5354  -18.9174   20.3788 N.3     1  UNL1       -0.2712
      2 C         -10.9001  -19.6218   21.6519 C.3     1  UNL1        0.0738
      3 C          -9.6291  -20.0183   22.3427 C.3     1  UNL1        0.0372
      4 C          -9.0690  -20.6988   23.5565 C.3     1  UNL1        0.0245
      5 C          -7.5725  -20.6600   23.4606 C.3     1  UNL1        0.0909
      6 N          -7.2078  -19.9555   22.1874 N.pl3   1  UNL1       -0.3060
      7 C          -8.4789  -19.5590   21.4966 C.3     1  UNL1        0.0901
      8 C          -9.0390  -18.8786   20.2828 C.3     1  UNL1        0.0921
      9 C          -5.8164  -19.6936   21.6921 C.ar    1  UNL1        0.0756
     10 C          -4.9253  -18.7384   22.4292 C.ar    1  UNL1        0.0167
     11 C          -3.5338  -18.4765   21.9339 C.ar    1  UNL1        0.0053
     12 C          -3.0335  -19.1699   20.7015 C.ar    1  UNL1        0.0737
     13 C          -3.9247  -20.1251   19.9643 C.ar    1  UNL1        0.0348
     14 C          -5.3161  -20.3870   20.4596 C.ar    1  UNL1        0.1533
     15 F          -6.2072  -21.3422   19.7224 F       1  UNL1       -0.2029
     16 C          -1.6421  -18.9080   20.2062 C.3     1  UNL1        0.4186
     17 F          -0.2507  -18.6461   19.7109 F       1  UNL1       -0.1659
     18 F          -2.1306  -18.9902   18.7903 F       1  UNL1       -0.1659
     19 F          -1.1536  -18.8258   21.6220 F       1  UNL1       -0.1659
     20 C         -11.4981  -18.3512   19.3774 C.3     1  UNL1        0.0731
     21 C         -11.7273  -16.8703   19.3117 C.3     1  UNL1        0.0294
     22 C         -12.2923  -16.1454   20.4972 C.3     1  UNL1        0.0666
     23 S         -11.6479  -16.2931   21.8436 S.3     1  UNL1       -0.0756
     24 C          -7.9999  -15.6372   22.9959 C.ar    1  UNL1        0.2029
     25 N          -8.0153  -14.9369   21.6695 N.ar    1  UNL1       -0.1250
     26 N          -9.3837  -15.0974   21.0764 N.ar    1  UNL1       -0.1220
     27 C         -10.2141  -15.8968   22.0363 C.ar    1  UNL1        0.1933
     28 N          -9.3589  -16.2304   23.2226 N.ar    1  UNL1       -0.2860
     29 C          -9.7874  -17.0188   24.4246 C.3     1  UNL1        0.1341
     30 C          -8.1041  -15.2728   26.2372 C.3     1  UNL1        0.0556
     31 C          -6.8788  -15.5607   25.4213 C.ar    1  UNL1        0.1001
     32 N          -5.4862  -15.7316   25.9519 N.ar    1  UNL1       -0.2085
     33 C          -4.5777  -16.0048   24.7900 C.ar    1  UNL1        0.2849
     34 O          -5.4088  -16.0026   23.5412 O.2     1  UNL1       -0.4283
     35 C          -6.8309  -15.7282   23.9314 C.ar    1  UNL1        0.1964
@<TRIPOS>BOND
     1    30    31    1
     2    31    32   ar
     3    32    33   ar
     4    33    34   ar
     5    34    35   ar
     6    35    24    1
     7    24    25   ar
     8    25    26   ar
     9    26    27   ar
    10    27    23    1
    11    23    22    1
    12    22    21    1
    13    21    20    1
    14    20     1    1
    15     1     2    1
    16     2     3    1
    17     3     4    1
    18     4     5    1
    19     5     6    1
    20     6     9    1
    21     9    10   ar
    22    10    11   ar
    23    11    12   ar
    24    12    16    1
    25    16    17    1
    26    16    18    1
    27    16    19    1
    28    12    13   ar
    29    13    14   ar
    30    14    15    1
    31     6     7    1
    32     7     8    1
    33    27    28   ar
    34    28    29    1
    35    35    31   ar
    36    28    24   ar
    37     8     1    1
    38     7     3    1
    39    14     9   ar
@<TRIPOS>MOLECULE
*****
 35 39 0 0 0
SMALL
GASTEIGER

@<TRIPOS>ATOM
      1 N          -0.1354    3.3264   19.4820 N.3     1  UNL1       -0.2712
      2 C           0.8677    4.3443   19.0265 C.3     1  UNL1        0.0738
      3 C           2.1462    3.6261   18.7109 C.3     1  UNL1        0.0372
      4 C           3.5564    3.8113   18.2344 C.3     1  UNL1        0.0245
      5 C           4.2150    2.4640   18.2003 C.3     1  UNL1        0.0909
      6 N           3.2117    1.4461   18.6558 N.pl3   1  UNL1       -0.3060
      7 C           1.9332    2.1643   18.9714 C.3     1  UNL1        0.0901
      8 C           0.5230    1.9791   19.4479 C.3     1  UNL1        0.0921
      9 C           3.4459   -0.0307   18.7748 C.ar    1  UNL1        0.0756
     10 C           3.0181   -0.7605   20.0135 C.ar    1  UNL1        0.0167
     11 C           3.2523   -2.2374   20.1325 C.ar    1  UNL1        0.0053
     12 C           3.9143   -2.9844   19.0128 C.ar    1  UNL1        0.0737
     13 C           4.3422   -2.2546   17.7741 C.ar    1  UNL1        0.0348
     14 C           4.1080   -0.7777   17.6551 C.ar    1  UNL1        0.1533
     15 F           4.5358   -0.0479   16.4164 F       1  UNL1       -0.2029
     16 C           4.1485   -4.4612   19.1318 C.3     1  UNL1        0.4186
     17 F           4.3827   -5.9380   19.2508 F       1  UNL1       -0.1659
     18 F           5.5761   -4.2040   19.5139 F       1  UNL1       -0.1659
     19 F           2.7210   -4.7184   18.7497 F       1  UNL1       -0.1659
     20 C          -1.5490    3.6066   19.8985 C.3     1  UNL1        0.0731
     21 C          -1.8251    4.2777   21.2112 C.3     1  UNL1        0.0294
     22 C          -1.8959    3.4641   22.4694 C.3     1  UNL1        0.0666
     23 S          -0.6400    3.1308   23.2187 S.3     1  UNL1       -0.0756
     24 C          -0.1481    1.9009   26.8672 C.ar    1  UNL1        0.2029
     25 N          -1.4669    2.6075   26.9747 N.ar    1  UNL1       -0.1250
     26 N          -1.8117    3.1542   25.6211 N.ar    1  UNL1       -0.1220
     27 C          -0.7060    2.7855   24.6769 C.ar    1  UNL1        0.1933
     28 N           0.3222    2.0109   25.4470 N.ar    1  UNL1       -0.2860
     29 C           1.5968    1.4456   24.8940 C.3     1  UNL1        0.1341
     30 C          -1.3350   -0.5208   28.7047 C.3     1  UNL1        0.0556
     31 C           0.0281    0.0931   28.8283 C.ar    1  UNL1        0.1001
     32 N           1.0849   -0.2983   29.8182 N.ar    1  UNL1       -0.2085
     33 C           2.2836    0.5729   29.5853 C.ar    1  UNL1        0.2849
     34 O           1.9676    1.5027   28.4515 O.2     1  UNL1       -0.4283
     35 C           0.5736    1.2062   27.9837 C.ar    1  UNL1        0.1964
@<TRIPOS>BOND
     1    30    31    1
     2    31    32   ar
     3    32    33   ar
     4    33    34   ar
     5    34    35   ar
     6    35    24    1
     7    24    25   ar
     8    25    26   ar
     9    26    27   ar
    10    27    23    1
    11    23    22    1
    12    22    21    1
    13    21    20    1
    14    20     1    1
    15     1     2    1
    16     2     3    1
    17     3     4    1
    18     4     5    1
    19     5     6    1
    20     6     9    1
    21     9    10   ar
    22    10    11   ar
    23    11    12   ar
    24    12    16    1
    25    16    17    1
    26    16    18    1
    27    16    19    1
    28    12    13   ar
    29    13    14   ar
    30    14    15    1
    31     6     7    1
    32     7     8    1
    33    27    28   ar
    34    28    29    1
    35    35    31   ar
    36    28    24   ar
    37     8     1    1
    38     7     3    1
    39    14     9   ar
@<TRIPOS>MOLECULE
*****
 35 39 0 0 0
SMALL
GASTEIGER

@<TRIPOS>ATOM
      1 N          -0.1215    3.5954   19.0268 N.3     1  UNL1       -0.2712
      2 C           0.9267    4.6117   18.6830 C.3     1  UNL1        0.0738
      3 C           2.2264    3.8889   18.4872 C.3     1  UNL1        0.0372
      4 C           3.6776    4.0704   18.1537 C.3     1  UNL1        0.0245
      5 C           4.3295    2.7195   18.1704 C.3     1  UNL1        0.0909
      6 N           3.2812    1.7032   18.5143 N.pl3   1  UNL1       -0.3060
      7 C           1.9814    2.4260   18.7101 C.3     1  UNL1        0.0901
      8 C           0.5303    2.2445   19.0436 C.3     1  UNL1        0.0921
      9 C           3.4950    0.2239   18.6403 C.ar    1  UNL1        0.0756
     10 C           4.1714   -0.5329   17.5359 C.ar    1  UNL1        0.0167
     11 C           4.3853   -2.0122   17.6619 C.ar    1  UNL1        0.0053
     12 C           3.9228   -2.7348   18.8923 C.ar    1  UNL1        0.0737
     13 C           3.2465   -1.9780   19.9968 C.ar    1  UNL1        0.0348
     14 C           3.0326   -0.4987   19.8708 C.ar    1  UNL1        0.1533
     15 F           2.3563    0.2581   20.9753 F       1  UNL1       -0.2029
     16 C           4.1367   -4.2141   19.0183 C.3     1  UNL1        0.4186
     17 F           4.3506   -5.6934   19.1443 F       1  UNL1       -0.1659
     18 F           2.6800   -4.4478   18.7476 F       1  UNL1       -0.1659
     19 F           5.5935   -3.9804   19.2890 F       1  UNL1       -0.1659
     20 C          -1.5678    3.8800   19.3051 C.3     1  UNL1        0.0731
     21 C          -2.2835    3.1335   20.3916 C.3     1  UNL1        0.0294
     22 C          -3.4692    3.7521   21.0711 C.3     1  UNL1        0.0666
     23 S          -3.2685    4.6812   22.2314 S.3     1  UNL1       -0.0756
     24 C          -5.5064    4.9864   25.3880 C.ar    1  UNL1        0.2029
     25 N          -5.1857    3.5211   25.4006 N.ar    1  UNL1       -0.1250
     26 N          -4.3083    3.2284   24.2196 N.ar    1  UNL1       -0.1220
     27 C          -4.0868    4.5129   23.4772 C.ar    1  UNL1        0.1933
     28 N          -4.8272    5.5993   24.1992 N.ar    1  UNL1       -0.2860
     29 C          -4.8793    7.0449   23.8023 C.3     1  UNL1        0.1341
     30 C          -8.4442    6.2896   24.8221 C.3     1  UNL1        0.0556
     31 C          -7.7072    6.3105   26.1284 C.ar    1  UNL1        0.1001
     32 N          -8.1912    6.9340   27.4039 N.ar    1  UNL1       -0.2085
     33 C          -7.1400    6.7203   28.4524 C.ar    1  UNL1        0.2849
     34 O          -6.0063    5.9648   27.8248 O.2     1  UNL1       -0.4283
     35 C          -6.3569    5.7115   26.3885 C.ar    1  UNL1        0.1964
@<TRIPOS>BOND
     1    30    31    1
     2    31    32   ar
     3    32    33   ar
     4    33    34   ar
     5    34    35   ar
     6    35    24    1
     7    24    25   ar
     8    25    26   ar
     9    26    27   ar
    10    27    23    1
    11    23    22    1
    12    22    21    1
    13    21    20    1
    14    20     1    1
    15     1     2    1
    16     2     3    1
    17     3     4    1
    18     4     5    1
    19     5     6    1
    20     6     9    1
    21     9    10   ar
    22    10    11   ar
    23    11    12   ar
    24    12    16    1
    25    16    17    1
    26    16    18    1
    27    16    19    1
    28    12    13   ar
    29    13    14   ar
    30    14    15    1
    31     6     7    1
    32     7     8    1
    33    27    28   ar
    34    28    29    1
    35    35    31   ar
    36    28    24   ar
    37     8     1    1
    38     7     3    1
    39    14     9   ar
@<TRIPOS>MOLECULE
*****
 35 39 0 0 0
SMALL
GASTEIGER

@<TRIPOS>ATOM
      1 N           8.2576   -6.0793   24.2861 N.3     1  UNL1       -0.2712
      2 C           8.5960   -7.5263   24.4902 C.3     1  UNL1        0.0738
      3 C           8.6645   -7.7825   25.9665 C.3     1  UNL1        0.0372
      4 C           8.9160   -8.8351   27.0051 C.3     1  UNL1        0.0245
      5 C           8.7754   -8.1970   28.3554 C.3     1  UNL1        0.0909
      6 N           8.4370   -6.7500   28.1512 N.pl3   1  UNL1       -0.3060
      7 C           8.3685   -6.4938   26.6749 C.3     1  UNL1        0.0901
      8 C           8.1170   -5.4412   25.6363 C.3     1  UNL1        0.0921
      9 C           8.2074   -5.7370   29.2335 C.ar    1  UNL1        0.0756
     10 C           9.3138   -5.3938   30.1864 C.ar    1  UNL1        0.0167
     11 C           9.0842   -4.3808   31.2686 C.ar    1  UNL1        0.0053
     12 C           7.7483   -3.7111   31.3979 C.ar    1  UNL1        0.0737
     13 C           6.6419   -4.0543   30.4449 C.ar    1  UNL1        0.0348
     14 C           6.8715   -5.0673   29.3627 C.ar    1  UNL1        0.1533
     15 F           5.7651   -5.4105   28.4098 F       1  UNL1       -0.2029
     16 C           7.5188   -2.6981   32.4801 C.3     1  UNL1        0.4186
     17 F           7.2892   -1.6852   33.5624 F       1  UNL1       -0.1659
     18 F           8.9994   -2.4887   32.5982 F       1  UNL1       -0.1659
     19 F           6.0382   -2.9076   32.3621 F       1  UNL1       -0.1659
     20 C           8.0894   -5.3912   22.9639 C.3     1  UNL1        0.0731
     21 C           7.9674   -3.8973   22.9060 C.3     1  UNL1        0.0294
     22 C           8.5554   -3.1408   21.7518 C.3     1  UNL1        0.0666
     23 S           7.9925   -3.3199   20.3730 S.3     1  UNL1       -0.0756
     24 C           4.2898   -2.3297   19.7608 C.ar    1  UNL1        0.2029
     25 N           4.1800   -3.8233   19.8472 N.ar    1  UNL1       -0.1250
     26 N           5.5537   -4.3759   20.0871 N.ar    1  UNL1       -0.1220
     27 C           6.5125   -3.2240   20.1489 C.ar    1  UNL1        0.1933
     28 N           5.7314   -1.9594   19.9472 N.ar    1  UNL1       -0.2860
     29 C           6.2932   -0.5687   19.9343 C.3     1  UNL1        0.1341
     30 C           3.8458   -0.4906   17.1018 C.3     1  UNL1        0.0556
     31 C           2.9529   -0.5290   18.3065 C.ar    1  UNL1        0.1001
     32 N           1.6990    0.2712   18.5005 N.ar    1  UNL1       -0.2085
     33 C           1.1282   -0.0796   19.8425 C.ar    1  UNL1        0.2849
     34 O           2.0292   -1.0966   20.4780 O.2     1  UNL1       -0.4283
     35 C           3.1569   -1.3744   19.5286 C.ar    1  UNL1        0.1964
@<TRIPOS>BOND
     1    30    31    1
     2    31    32   ar
     3    32    33   ar
     4    33    34   ar
     5    34    35   ar
     6    35    24    1
     7    24    25   ar
     8    25    26   ar
     9    26    27   ar
    10    27    23    1
    11    23    22    1
    12    22    21    1
    13    21    20    1
    14    20     1    1
    15     1     2    1
    16     2     3    1
    17     3     4    1
    18     4     5    1
    19     5     6    1
    20     6     9    1
    21     9    10   ar
    22    10    11   ar
    23    11    12   ar
    24    12    16    1
    25    16    17    1
    26    16    18    1
    27    16    19    1
    28    12    13   ar
    29    13    14   ar
    30    14    15    1
    31     6     7    1
    32     7     8    1
    33    27    28   ar
    34    28    29    1
    35    35    31   ar
    36    28    24   ar
    37     8     1    1
    38     7     3    1
    39    14     9   ar
@<TRIPOS>MOLECULE
*****
 35 39 0 0 0
SMALL
GASTEIGER

@<TRIPOS>ATOM
      1 N           6.6045   -3.1185   27.4286 N.3     1  UNL1       -0.2712
      2 C           6.9937   -4.5468   27.6700 C.3     1  UNL1        0.0738
      3 C           6.9612   -4.7923   29.1494 C.3     1  UNL1        0.0372
      4 C           7.1817   -5.8268   30.2130 C.3     1  UNL1        0.0245
      5 C           6.9087   -5.1896   31.5433 C.3     1  UNL1        0.0909
      6 N           6.5195   -3.7612   31.3017 N.pl3   1  UNL1       -0.3060
      7 C           6.5520   -3.5157   29.8223 C.3     1  UNL1        0.0901
      8 C           6.3315   -2.4812   28.7587 C.3     1  UNL1        0.0921
      9 C           6.1608   -2.7550   32.3548 C.ar    1  UNL1        0.0756
     10 C           4.7712   -2.7223   32.9186 C.ar    1  UNL1        0.0167
     11 C           4.4125   -1.7161   33.9716 C.ar    1  UNL1        0.0053
     12 C           5.4434   -0.7426   34.4609 C.ar    1  UNL1        0.0737
     13 C           6.8331   -0.7752   33.8970 C.ar    1  UNL1        0.0348
     14 C           7.1918   -1.7814   32.8440 C.ar    1  UNL1        0.1533
     15 F           8.5814   -1.8140   32.2802 F       1  UNL1       -0.2029
     16 C           5.0847    0.2636   35.5139 C.3     1  UNL1        0.4186
     17 F           4.7260    1.2698   36.5669 F       1  UNL1       -0.1659
     18 F           3.9501    0.7506   34.6621 F       1  UNL1       -0.1659
     19 F           6.2193   -0.2233   36.3657 F       1  UNL1       -0.1659
     20 C           6.5057   -2.4455   26.0916 C.3     1  UNL1        0.0731
     21 C           6.1579   -3.2471   24.8724 C.3     1  UNL1        0.0294
     22 C           7.2248   -4.0157   24.1505 C.3     1  UNL1        0.0666
     23 S           7.4767   -3.7615   22.6939 S.3     1  UNL1       -0.0756
     24 C           4.8978   -2.6355   20.0205 C.ar    1  UNL1        0.2029
     25 N           4.1968   -3.8188   20.6192 N.ar    1  UNL1       -0.1250
     26 N           5.0776   -4.3846   21.6935 N.ar    1  UNL1       -0.1220
     27 C           6.3229   -3.5510   21.7588 C.ar    1  UNL1        0.1933
     28 N           6.2119   -2.4700   20.7249 N.ar    1  UNL1       -0.2860
     29 C           7.2351   -1.4097   20.4444 C.3     1  UNL1        0.1341
     30 C           2.2671   -0.7099   20.1664 C.3     1  UNL1        0.0556
     31 C           3.1672   -0.8846   18.9792 C.ar    1  UNL1        0.1001
     32 N           3.0161   -0.2049   17.6506 N.ar    1  UNL1       -0.2085
     33 C           4.1319   -0.6699   16.7624 C.ar    1  UNL1        0.2849
     34 O           4.9726   -1.6370   17.5421 O.2     1  UNL1       -0.4283
     35 C           4.3764   -1.7697   18.9121 C.ar    1  UNL1        0.1964
@<TRIPOS>BOND
     1    30    31    1
     2    31    32   ar
     3    32    33   ar
     4    33    34   ar
     5    34    35   ar
     6    35    24    1
     7    24    25   ar
     8    25    26   ar
     9    26    27   ar
    10    27    23    1
    11    23    22    1
    12    22    21    1
    13    21    20    1
    14    20     1    1
    15     1     2    1
    16     2     3    1
    17     3     4    1
    18     4     5    1
    19     5     6    1
    20     6     9    1
    21     9    10   ar
    22    10    11   ar
    23    11    12   ar
    24    12    16    1
    25    16    17    1
    26    16    18    1
    27    16    19    1
    28    12    13   ar
    29    13    14   ar
    30    14    15    1
    31     6     7    1
    32     7     8    1
    33    27    28   ar
    34    28    29    1
    35    35    31   ar
    36    28    24   ar
    37     8     1    1
    38     7     3    1
    39    14     9   ar
