@<TRIPOS>MOLECULE
*****
 22 23 0 0 0
SMALL
GASTEIGER

@<TRIPOS>ATOM
      1 C         -12.3763  -17.1813   22.7433 C.2     1  UNL1        0.4049
      2 O         -12.3816  -15.7335   22.3515 O.2     1  UNL1       -0.2262
      3 N         -11.1036  -17.9722   22.6746 N.am    1  UNL1       -0.2454
      4 C         -11.0983  -19.4201   23.0664 C.3     1  UNL1        0.1011
      5 C          -9.8255  -20.2110   22.9978 C.3     1  UNL1        0.0443
      6 C          -8.5582  -19.5540   22.5374 C.2     1  UNL1       -0.0326
      7 C          -7.2854  -20.3449   22.4688 C.2     1  UNL1        0.0412
      8 C          -8.5635  -18.1061   22.1456 C.3     1  UNL1        0.0443
      9 C          -9.8362  -17.3152   22.2142 C.3     1  UNL1        0.1011
     10 C          -6.0181  -19.6879   22.0084 C.1     1  UNL1       -0.0598
     11 C          -4.7506  -19.0309   21.5479 C.1     1  UNL1       -0.0597
     12 C          -3.4832  -18.3738   21.0875 C.ar    1  UNL1        0.0426
     13 C          -2.6038  -17.6658   22.0752 C.ar    1  UNL1        0.0083
     14 C          -1.3364  -17.0088   21.6148 C.ar    1  UNL1        0.0013
     15 C          -0.9483  -17.0598   20.1668 C.ar    1  UNL1        0.0103
     16 C          -1.8277  -17.7677   19.1791 C.ar    1  UNL1        0.0691
     17 C          -3.0951  -18.4248   19.6395 C.ar    1  UNL1        0.0185
     18 C          -1.4396  -17.8187   17.7311 C.1     1  UNL1        0.1004
     19 N          -1.0516  -17.8697   16.2830 N.1     1  UNL1       -0.1908
     20 O         -13.6437  -17.8384   23.2036 O.3     1  UNL1       -0.4345
     21 C         -15.2068  -18.5244   25.1623 C.3     1  UNL1        0.0513
     22 C         -13.8477  -18.1371   24.6594 C.3     1  UNL1        0.2102
@<TRIPOS>BOND
     1    21    22    1
     2    22    20    1
     3    20     1    1
     4     1     2    2
     5     1     3   am
     6     3     4    1
     7     4     5    1
     8     5     6    1
     9     6     7    2
    10     7    10    1
    11    10    11    3
    12    11    12    1
    13    12    13   ar
    14    13    14   ar
    15    14    15   ar
    16    15    16   ar
    17    16    18    1
    18    18    19    3
    19    16    17   ar
    20     6     8    1
    21     8     9    1
    22     9     3    1
    23    17    12   ar
@<TRIPOS>MOLECULE
*****
 22 23 0 0 0
SMALL
GASTEIGER

@<TRIPOS>ATOM
      1 C           1.0078    0.1924   19.3917 C.2     1  UNL1        0.4049
      2 O           0.0768   -0.0175   20.5489 O.2     1  UNL1       -0.2262
      3 N           2.3604   -0.4560   19.3902 N.am    1  UNL1       -0.2454
      4 C           3.2914   -0.2461   18.2330 C.3     1  UNL1        0.1011
      5 C           4.6441   -0.8945   18.2316 C.3     1  UNL1        0.0443
      6 C           5.0657   -1.7526   19.3873 C.2     1  UNL1       -0.0326
      7 C           6.4184   -2.4009   19.3858 C.2     1  UNL1        0.0412
      8 C           4.1347   -1.9624   20.5445 C.3     1  UNL1        0.0443
      9 C           2.7821   -1.3141   20.5460 C.3     1  UNL1        0.1011
     10 C           6.8401   -3.2591   20.5415 C.1     1  UNL1       -0.0598
     11 C           7.2617   -4.1172   21.6974 C.1     1  UNL1       -0.0597
     12 C           7.6834   -4.9754   22.8531 C.ar    1  UNL1        0.0426
     13 C           8.7426   -6.0205   22.6640 C.ar    1  UNL1        0.0083
     14 C           9.1643   -6.8787   23.8197 C.ar    1  UNL1        0.0013
     15 C           8.5268   -6.6917   25.1646 C.ar    1  UNL1        0.0103
     16 C           7.4676   -5.6466   25.3537 C.ar    1  UNL1        0.0691
     17 C           7.0459   -4.7884   24.1979 C.ar    1  UNL1        0.0185
     18 C           6.8300   -5.4596   26.6985 C.1     1  UNL1        0.1004
     19 N           6.1925   -5.2727   28.0434 N.1     1  UNL1       -0.1908
     20 O           0.5861    1.0505   18.2360 O.3     1  UNL1       -0.4345
     21 C           1.9251    3.2449   18.6126 C.3     1  UNL1        0.0513
     22 C           0.6228    2.5450   18.3589 C.3     1  UNL1        0.2102
@<TRIPOS>BOND
     1    21    22    1
     2    22    20    1
     3    20     1    1
     4     1     2    2
     5     1     3   am
     6     3     4    1
     7     4     5    1
     8     5     6    1
     9     6     7    2
    10     7    10    1
    11    10    11    3
    12    11    12    1
    13    12    13   ar
    14    13    14   ar
    15    14    15   ar
    16    15    16   ar
    17    16    18    1
    18    18    19    3
    19    16    17   ar
    20     6     8    1
    21     8     9    1
    22     9     3    1
    23    17    12   ar
@<TRIPOS>MOLECULE
*****
 22 23 0 0 0
SMALL
GASTEIGER

@<TRIPOS>ATOM
      1 C           2.2498    0.1586   30.6600 C.2     1  UNL1        0.4049
      2 O           0.8423    0.5488   30.3185 O.2     1  UNL1       -0.2262
      3 N           3.1488   -0.4084   29.6016 N.am    1  UNL1       -0.2454
      4 C           4.5563   -0.7985   29.9431 C.3     1  UNL1        0.1011
      5 C           5.4553   -1.3655   28.8846 C.3     1  UNL1        0.0443
      6 C           4.9468   -1.5423   27.4846 C.2     1  UNL1       -0.0326
      7 C           5.8457   -2.1093   26.4261 C.2     1  UNL1        0.0412
      8 C           3.5393   -1.1522   27.1431 C.3     1  UNL1        0.0443
      9 C           2.6403   -0.5852   28.2015 C.3     1  UNL1        0.1011
     10 C           5.3372   -2.2862   25.0261 C.1     1  UNL1       -0.0598
     11 C           4.8287   -2.4631   23.6260 C.1     1  UNL1       -0.0597
     12 C           4.3202   -2.6399   22.2260 C.ar    1  UNL1        0.0426
     13 C           4.6765   -3.8724   21.4487 C.ar    1  UNL1        0.0083
     14 C           4.1680   -4.0492   20.0487 C.ar    1  UNL1        0.0013
     15 C           3.3031   -2.9937   19.4259 C.ar    1  UNL1        0.0103
     16 C           2.9467   -1.7613   20.2032 C.ar    1  UNL1        0.0691
     17 C           3.4553   -1.5844   21.6033 C.ar    1  UNL1        0.0185
     18 C           2.0818   -0.7058   19.5804 C.1     1  UNL1        0.1004
     19 N           1.2169    0.3497   18.9577 N.1     1  UNL1       -0.1908
     20 O           2.7584    0.3355   32.0600 O.3     1  UNL1       -0.4345
     21 C           1.7351    2.3703   33.3101 C.3     1  UNL1        0.0513
     22 C           2.9032    1.7125   32.6370 C.3     1  UNL1        0.2102
@<TRIPOS>BOND
     1    21    22    1
     2    22    20    1
     3    20     1    1
     4     1     2    2
     5     1     3   am
     6     3     4    1
     7     4     5    1
     8     5     6    1
     9     6     7    2
    10     7    10    1
    11    10    11    3
    12    11    12    1
    13    12    13   ar
    14    13    14   ar
    15    14    15   ar
    16    15    16   ar
    17    16    18    1
    18    18    19    3
    19    16    17   ar
    20     6     8    1
    21     8     9    1
    22     9     3    1
    23    17    12   ar
@<TRIPOS>MOLECULE
*****
 22 23 0 0 0
SMALL
GASTEIGER

@<TRIPOS>ATOM
      1 C           7.7162   -5.4548   27.0919 C.2     1  UNL1        0.4049
      2 O           6.6032   -4.8690   27.9092 O.2     1  UNL1       -0.2262
      3 N           7.7788   -5.1966   25.6156 N.am    1  UNL1       -0.2454
      4 C           8.8917   -5.7824   24.7983 C.3     1  UNL1        0.1011
      5 C           8.9543   -5.5242   23.3220 C.3     1  UNL1        0.0443
      6 C           7.9039   -4.6803   22.6630 C.2     1  UNL1       -0.0326
      7 C           7.9665   -4.4221   21.1867 C.2     1  UNL1        0.0412
      8 C           6.7910   -4.0944   23.4803 C.3     1  UNL1        0.0443
      9 C           6.7284   -4.3526   24.9566 C.3     1  UNL1        0.1011
     10 C           6.9161   -3.5781   20.5278 C.1     1  UNL1       -0.0598
     11 C           5.8657   -2.7340   19.8687 C.1     1  UNL1       -0.0597
     12 C           4.8153   -1.8900   19.2098 C.ar    1  UNL1        0.0426
     13 C           4.9958   -1.4410   17.7899 C.ar    1  UNL1        0.0083
     14 C           3.9454   -0.5970   17.1309 C.ar    1  UNL1        0.0013
     15 C           2.7145   -0.2020   17.8917 C.ar    1  UNL1        0.0103
     16 C           2.5340   -0.6510   19.3115 C.ar    1  UNL1        0.0691
     17 C           3.5844   -1.4950   19.9705 C.ar    1  UNL1        0.0185
     18 C           1.3031   -0.2560   20.0722 C.1     1  UNL1        0.1004
     19 N           0.0721    0.1391   20.8330 N.1     1  UNL1       -0.1908
     20 O           8.7666   -6.2988   27.7509 O.3     1  UNL1       -0.4345
     21 C           8.2273   -8.7878   27.2370 C.3     1  UNL1        0.0513
     22 C           8.4283   -7.6800   28.2282 C.3     1  UNL1        0.2102
@<TRIPOS>BOND
     1    21    22    1
     2    22    20    1
     3    20     1    1
     4     1     2    2
     5     1     3   am
     6     3     4    1
     7     4     5    1
     8     5     6    1
     9     6     7    2
    10     7    10    1
    11    10    11    3
    12    11    12    1
    13    12    13   ar
    14    13    14   ar
    15    14    15   ar
    16    15    16   ar
    17    16    18    1
    18    18    19    3
    19    16    17   ar
    20     6     8    1
    21     8     9    1
    22     9     3    1
    23    17    12   ar
@<TRIPOS>MOLECULE
*****
 22 23 0 0 0
SMALL
GASTEIGER

@<TRIPOS>ATOM
      1 C           2.9673   -1.0618   19.8920 C.2     1  UNL1        0.4049
      2 O           1.8542   -0.9371   20.8897 O.2     1  UNL1       -0.2262
      3 N           4.1817   -1.8784   20.2213 N.am    1  UNL1       -0.2454
      4 C           5.2948   -2.0031   19.2236 C.3     1  UNL1        0.1011
      5 C           6.5092   -2.8197   19.5529 C.3     1  UNL1        0.0443
      6 C           6.6105   -3.5116   20.8799 C.2     1  UNL1       -0.0326
      7 C           7.8248   -4.3282   21.2092 C.2     1  UNL1        0.0412
      8 C           5.4974   -3.3869   21.8776 C.3     1  UNL1        0.0443
      9 C           4.2830   -2.5703   21.5483 C.3     1  UNL1        0.1011
     10 C           7.9261   -5.0201   22.5362 C.1     1  UNL1       -0.0598
     11 C           8.0274   -5.7121   23.8633 C.1     1  UNL1       -0.0597
     12 C           8.1287   -6.4040   25.1903 C.ar    1  UNL1        0.0426
     13 C           8.7399   -7.7711   25.2786 C.ar    1  UNL1        0.0083
     14 C           8.8412   -8.4630   26.6056 C.ar    1  UNL1        0.0013
     15 C           8.3312   -7.7880   27.8443 C.ar    1  UNL1        0.0103
     16 C           7.7200   -6.4210   27.7560 C.ar    1  UNL1        0.0691
     17 C           7.6187   -5.7290   26.4289 C.ar    1  UNL1        0.0185
     18 C           7.2101   -5.7460   28.9947 C.1     1  UNL1        0.1004
     19 N           6.7001   -5.0710   30.2333 N.1     1  UNL1       -0.1908
     20 O           2.8661   -0.3699   18.5650 O.3     1  UNL1       -0.4345
     21 C           0.9564    1.3807   18.3680 C.3     1  UNL1        0.0513
     22 C           2.4159    1.0594   18.4968 C.3     1  UNL1        0.2102
@<TRIPOS>BOND
     1    21    22    1
     2    22    20    1
     3    20     1    1
     4     1     2    2
     5     1     3   am
     6     3     4    1
     7     4     5    1
     8     5     6    1
     9     6     7    2
    10     7    10    1
    11    10    11    3
    12    11    12    1
    13    12    13   ar
    14    13    14   ar
    15    14    15   ar
    16    15    16   ar
    17    16    18    1
    18    18    19    3
    19    16    17   ar
    20     6     8    1
    21     8     9    1
    22     9     3    1
    23    17    12   ar
@<TRIPOS>MOLECULE
*****
 22 23 0 0 0
SMALL
GASTEIGER

@<TRIPOS>ATOM
      1 C         -14.1397    1.1097   17.6745 C.2     1  UNL1        0.4049
      2 O         -15.5379    1.3347   17.1805 O.2     1  UNL1       -0.2262
      3 N         -13.6990   -0.2662   18.0778 N.am    1  UNL1       -0.2454
      4 C         -12.3007   -0.4912   18.5718 C.3     1  UNL1        0.1011
      5 C         -11.8600   -1.8671   18.9751 C.3     1  UNL1        0.0443
      6 C         -12.8176   -3.0181   18.8843 C.2     1  UNL1       -0.0326
      7 C         -12.3770   -4.3940   19.2876 C.2     1  UNL1        0.0412
      8 C         -14.2159   -2.7931   18.3903 C.3     1  UNL1        0.0443
      9 C         -14.6566   -1.4171   17.9870 C.3     1  UNL1        0.1011
     10 C         -13.3346   -5.5449   19.1968 C.1     1  UNL1       -0.0598
     11 C         -14.2922   -6.6960   19.1060 C.1     1  UNL1       -0.0597
     12 C         -15.2498   -7.8469   19.0152 C.ar    1  UNL1        0.0426
     13 C         -14.8384   -9.1121   18.3223 C.ar    1  UNL1        0.0083
     14 C         -15.7960  -10.2630   18.2315 C.ar    1  UNL1        0.0013
     15 C         -17.1650  -10.1488   18.8336 C.ar    1  UNL1        0.0103
     16 C         -17.5765   -8.8838   19.5265 C.ar    1  UNL1        0.0691
     17 C         -16.6189   -7.7327   19.6174 C.ar    1  UNL1        0.0185
     18 C         -18.9456   -8.7696   20.1287 C.1     1  UNL1        0.1004
     19 N         -20.3147   -8.6554   20.7308 N.1     1  UNL1       -0.1908
     20 O         -13.1820    2.2607   17.7653 O.3     1  UNL1       -0.4345
     21 C         -13.0071    4.5997   16.6479 C.3     1  UNL1        0.0513
     22 C         -12.9083    3.1057   16.5566 C.3     1  UNL1        0.2102
@<TRIPOS>BOND
     1    21    22    1
     2    22    20    1
     3    20     1    1
     4     1     2    2
     5     1     3   am
     6     3     4    1
     7     4     5    1
     8     5     6    1
     9     6     7    2
    10     7    10    1
    11    10    11    3
    12    11    12    1
    13    12    13   ar
    14    13    14   ar
    15    14    15   ar
    16    15    16   ar
    17    16    18    1
    18    18    19    3
    19    16    17   ar
    20     6     8    1
    21     8     9    1
    22     9     3    1
    23    17    12   ar
@<TRIPOS>MOLECULE
*****
 22 23 0 0 0
SMALL
GASTEIGER

@<TRIPOS>ATOM
      1 C         -18.4087    1.8112   20.8438 C.2     1  UNL1        0.4049
      2 O         -19.2260    0.7927   21.5819 O.2     1  UNL1       -0.2262
      3 N         -17.1145    1.4107   20.1999 N.am    1  UNL1       -0.2454
      4 C         -16.2973    2.4292   19.4619 C.3     1  UNL1        0.1011
      5 C         -15.0031    2.0287   18.8179 C.3     1  UNL1        0.0443
      6 C         -14.5262    0.6097   18.9120 C.2     1  UNL1       -0.0326
      7 C         -13.2320    0.2091   18.2681 C.2     1  UNL1        0.0412
      8 C         -15.3434   -0.4088   19.6501 C.3     1  UNL1        0.0443
      9 C         -16.6376   -0.0083   20.2940 C.3     1  UNL1        0.1011
     10 C         -12.7550   -1.2098   18.3622 C.1     1  UNL1       -0.0598
     11 C         -12.2780   -2.6289   18.4564 C.1     1  UNL1       -0.0597
     12 C         -11.8010   -4.0479   18.5505 C.ar    1  UNL1        0.0426
     13 C         -10.3471   -4.3368   18.7802 C.ar    1  UNL1        0.0083
     14 C          -9.8701   -5.7558   18.8743 C.ar    1  UNL1        0.0013
     15 C         -10.8470   -6.8860   18.7387 C.ar    1  UNL1        0.0103
     16 C         -12.3009   -6.5971   18.5090 C.ar    1  UNL1        0.0691
     17 C         -12.7779   -5.1781   18.4149 C.ar    1  UNL1        0.0185
     18 C         -13.2778   -7.7273   18.3734 C.1     1  UNL1        0.1004
     19 N         -14.2547   -8.8575   18.2378 N.1     1  UNL1       -0.1908
     20 O         -18.8857    3.2302   20.7497 O.3     1  UNL1       -0.4345
     21 C         -17.6565    3.8350   22.9573 C.3     1  UNL1        0.0513
     22 C         -18.6539    4.1765   21.8902 C.3     1  UNL1        0.2102
@<TRIPOS>BOND
     1    21    22    1
     2    22    20    1
     3    20     1    1
     4     1     2    2
     5     1     3   am
     6     3     4    1
     7     4     5    1
     8     5     6    1
     9     6     7    2
    10     7    10    1
    11    10    11    3
    12    11    12    1
    13    12    13   ar
    14    13    14   ar
    15    14    15   ar
    16    15    16   ar
    17    16    18    1
    18    18    19    3
    19    16    17   ar
    20     6     8    1
    21     8     9    1
    22     9     3    1
    23    17    12   ar
@<TRIPOS>MOLECULE
*****
 22 23 0 0 0
SMALL
GASTEIGER

@<TRIPOS>ATOM
      1 C           1.8122    0.2367   29.1337 C.2     1  UNL1        0.4049
      2 O           2.0294   -0.5510   30.3915 O.2     1  UNL1       -0.2262
      3 N           2.5001   -0.1715   27.8648 N.am    1  UNL1       -0.2454
      4 C           2.2828    0.6161   26.6069 C.3     1  UNL1        0.1011
      5 C           2.9708    0.2079   25.3381 C.3     1  UNL1        0.0443
      6 C           3.8760   -0.9881   25.3271 C.2     1  UNL1       -0.0326
      7 C           4.5640   -1.3963   24.0582 C.2     1  UNL1        0.0412
      8 C           4.0933   -1.7758   26.5849 C.3     1  UNL1        0.0443
      9 C           3.4054   -1.3675   27.8538 C.3     1  UNL1        0.1011
     10 C           5.4692   -2.5923   24.0472 C.1     1  UNL1       -0.0598
     11 C           6.3746   -3.7883   24.0362 C.1     1  UNL1       -0.0597
     12 C           7.2798   -4.9842   24.0252 C.ar    1  UNL1        0.0426
     13 C           8.2439   -5.1848   22.8935 C.ar    1  UNL1        0.0083
     14 C           9.1491   -6.3807   22.8825 C.ar    1  UNL1        0.0013
     15 C           9.0904   -7.3762   24.0031 C.ar    1  UNL1        0.0103
     16 C           8.1264   -7.1757   25.1347 C.ar    1  UNL1        0.0691
     17 C           7.2211   -5.9797   25.1457 C.ar    1  UNL1        0.0185
     18 C           8.0677   -8.1711   26.2552 C.1     1  UNL1        0.1004
     19 N           8.0090   -9.1665   27.3758 N.1     1  UNL1       -0.1908
     20 O           0.9069    1.4327   29.1447 O.3     1  UNL1       -0.4345
     21 C          -1.1529   -0.1081   28.7795 C.3     1  UNL1        0.0513
     22 C          -0.5591    1.2662   28.8743 C.3     1  UNL1        0.2102
@<TRIPOS>BOND
     1    21    22    1
     2    22    20    1
     3    20     1    1
     4     1     2    2
     5     1     3   am
     6     3     4    1
     7     4     5    1
     8     5     6    1
     9     6     7    2
    10     7    10    1
    11    10    11    3
    12    11    12    1
    13    12    13   ar
    14    13    14   ar
    15    14    15   ar
    16    15    16   ar
    17    16    18    1
    18    18    19    3
    19    16    17   ar
    20     6     8    1
    21     8     9    1
    22     9     3    1
    23    17    12   ar
@<TRIPOS>MOLECULE
*****
 22 23 0 0 0
SMALL
GASTEIGER

@<TRIPOS>ATOM
      1 C           1.5519    1.1132   28.3768 C.2     1  UNL1        0.4049
      2 O           2.7383    0.3800   28.9288 O.2     1  UNL1       -0.2262
      3 N           1.3096    1.1412   26.8968 N.am    1  UNL1       -0.2454
      4 C           0.1231    1.8743   26.3448 C.3     1  UNL1        0.1011
      5 C          -0.1192    1.9024   24.8647 C.3     1  UNL1        0.0443
      6 C           0.8250    1.1973   23.9367 C.2     1  UNL1       -0.0326
      7 C           0.5827    1.2253   22.4567 C.2     1  UNL1        0.0412
      8 C           2.0114    0.4642   24.4887 C.3     1  UNL1        0.0443
      9 C           2.2537    0.4361   25.9687 C.3     1  UNL1        0.1011
     10 C           1.5268    0.5202   21.5286 C.1     1  UNL1       -0.0598
     11 C           2.4711   -0.1849   20.6005 C.1     1  UNL1       -0.0597
     12 C           3.4153   -0.8900   19.6725 C.ar    1  UNL1        0.0426
     13 C           4.2008   -0.1057   18.6635 C.ar    1  UNL1        0.0083
     14 C           5.1449   -0.8108   17.7354 C.ar    1  UNL1        0.0013
     15 C           5.3037   -2.3001   17.8163 C.ar    1  UNL1        0.0103
     16 C           4.5183   -3.0844   18.8252 C.ar    1  UNL1        0.0691
     17 C           3.5741   -2.3793   19.7534 C.ar    1  UNL1        0.0185
     18 C           4.6771   -4.5738   18.9061 C.1     1  UNL1        0.1004
     19 N           4.8359   -6.0632   18.9870 N.1     1  UNL1       -0.1908
     20 O           0.6077    1.8183   29.3049 O.3     1  UNL1       -0.4345
     21 C          -1.1212   -0.1108   29.1060 C.3     1  UNL1        0.0513
     22 C          -0.6124    1.1097   29.8141 C.3     1  UNL1        0.2102
@<TRIPOS>BOND
     1    21    22    1
     2    22    20    1
     3    20     1    1
     4     1     2    2
     5     1     3   am
     6     3     4    1
     7     4     5    1
     8     5     6    1
     9     6     7    2
    10     7    10    1
    11    10    11    3
    12    11    12    1
    13    12    13   ar
    14    13    14   ar
    15    14    15   ar
    16    15    16   ar
    17    16    18    1
    18    18    19    3
    19    16    17   ar
    20     6     8    1
    21     8     9    1
    22     9     3    1
    23    17    12   ar
