@<TRIPOS>MOLECULE
*****
 39 44 0 0 0
SMALL
GASTEIGER

@<TRIPOS>ATOM
      1 N           4.9527   -0.6902   25.0041 N.3     1  UNL1       -0.2672
      2 C           5.1869    0.7508   24.6593 C.3     1  UNL1        0.0898
      3 C           4.3102    1.8152   25.2496 C.3     1  UNL1        0.0899
      4 N           3.1994    1.4386   26.1848 N.3     1  UNL1       -0.2665
      5 C           2.9653   -0.0023   26.5295 C.3     1  UNL1        0.0899
      6 C           3.8419   -1.0667   25.9392 C.3     1  UNL1        0.0898
      7 C           5.8294   -1.7546   24.4138 C.3     1  UNL1        0.1201
      8 C           5.2228   -2.8620   23.6039 C.3     1  UNL1        0.2226
      9 O           4.0766   -2.5743   22.6801 O.3     1  UNL1       -0.4739
     10 C           4.8544    2.5868   18.2071 C.3     1  UNL1        0.0521
     11 C           4.7130    1.2938   18.9541 C.ar    1  UNL1        0.0593
     12 C           4.5006    1.3048   20.4389 C.ar    1  UNL1        0.0148
     13 C           4.3593    0.0118   21.1860 C.ar    1  UNL1        0.0057
     14 C           4.4303   -1.2923   20.4482 C.ar    1  UNL1        0.0516
     15 C           4.2890   -2.5853   21.1952 C.ar    1  UNL1        0.1400
     16 C           4.3601   -3.8894   20.4575 C.ar    1  UNL1        0.0370
     17 C           4.5725   -3.9004   18.9726 C.ar    1  UNL1        0.0047
     18 C           4.7139   -2.6074   18.2255 C.ar    1  UNL1        0.0193
     19 C           4.6428   -1.3033   18.9634 C.ar    1  UNL1        0.0838
     20 N           4.7841   -0.0103   18.2163 N.ar    1  UNL1       -0.2496
     21 C           2.3227    2.5030   26.7751 C.3     1  UNL1        0.0993
     22 C           0.9388    2.7182   26.2376 C.ar    1  UNL1       -0.0047
     23 C          -0.2412    2.6671   27.1623 C.ar    1  UNL1        0.0003
     24 C          -1.6249    2.8823   26.6248 C.ar    1  UNL1        0.0379
     25 C          -1.8287    3.1486   25.1628 C.ar    1  UNL1        0.1528
     26 C          -0.6487    3.1996   24.2382 C.ar    1  UNL1        0.0881
     27 C           0.7351    2.9845   24.7756 C.ar    1  UNL1        0.0151
     28 N          -0.8525    3.4659   22.7761 N.am    1  UNL1       -0.2486
     29 C          -2.2362    3.6811   22.2387 C.2     1  UNL1        0.2742
     30 O          -2.4400    3.9473   20.7766 O.2     1  UNL1       -0.2705
     31 C          -3.4163    3.6300   23.1633 C.3     1  UNL1        0.2900
     32 O          -3.2125    3.3637   24.6254 O.3     1  UNL1       -0.4643
     33 C           0.3275    3.5170   21.8515 C.3     1  UNL1        0.1249
     34 C           0.5921    2.3799   20.9097 C.ar    1  UNL1       -0.0020
     35 C           0.5360    0.9658   21.4067 C.ar    1  UNL1       -0.0026
     36 C           0.8006   -0.1713   20.4648 C.ar    1  UNL1       -0.0003
     37 C           1.1214    0.1058   19.0260 C.ar    1  UNL1       -0.0000
     38 C           1.1775    1.5199   18.5289 C.ar    1  UNL1       -0.0003
     39 C           0.9129    2.6570   19.4708 C.ar    1  UNL1       -0.0026
@<TRIPOS>BOND
     1    10    11    1
     2    11    12   ar
     3    12    13   ar
     4    13    14   ar
     5    14    15   ar
     6    15     9    1
     7     9     8    1
     8     8     7    1
     9     7     1    1
    10     1     2    1
    11     2     3    1
    12     3     4    1
    13     4    21    1
    14    21    22    1
    15    22    23   ar
    16    23    24   ar
    17    24    25   ar
    18    25    26   ar
    19    26    27   ar
    20    26    28    1
    21    28    33    1
    22    33    34    1
    23    34    35   ar
    24    35    36   ar
    25    36    37   ar
    26    37    38   ar
    27    38    39   ar
    28    28    29   am
    29    29    30    2
    30    29    31    1
    31    31    32    1
    32     4     5    1
    33     5     6    1
    34    15    16   ar
    35    16    17   ar
    36    17    18   ar
    37    18    19   ar
    38    19    20   ar
    39    20    11   ar
    40    19    14   ar
    41     6     1    1
    42    27    22   ar
    43    39    34   ar
    44    32    25    1
@<TRIPOS>MOLECULE
*****
 39 44 0 0 0
SMALL
GASTEIGER

@<TRIPOS>ATOM
      1 N           0.4318    3.4782   23.4770 N.3     1  UNL1       -0.2672
      2 C           1.2795    2.2531   23.6525 C.3     1  UNL1        0.0898
      3 C           1.2242    1.1510   22.6364 C.3     1  UNL1        0.0899
      4 N           0.3213    1.2740   21.4449 N.3     1  UNL1       -0.2665
      5 C          -0.5264    2.4990   21.2695 C.3     1  UNL1        0.0899
      6 C          -0.4711    3.6011   22.2856 C.3     1  UNL1        0.0898
      7 C           0.4870    4.5802   24.4931 C.3     1  UNL1        0.1201
      8 C           1.7793    4.8980   25.1854 C.3     1  UNL1        0.2226
      9 O           1.9398    4.6013   26.6469 O.3     1  UNL1       -0.4739
     10 C          -1.5868   -0.8509   28.9022 C.3     1  UNL1        0.0521
     11 C          -0.5889    0.1733   28.4492 C.ar    1  UNL1        0.0593
     12 C          -1.0539    1.5286   28.0058 C.ar    1  UNL1        0.0148
     13 C          -0.0560    2.5529   27.5528 C.ar    1  UNL1        0.0057
     14 C           1.4069    2.2217   27.5434 C.ar    1  UNL1        0.0516
     15 C           2.4048    3.2459   27.0904 C.ar    1  UNL1        0.1400
     16 C           3.8678    2.9148   27.0810 C.ar    1  UNL1        0.0370
     17 C           4.3329    1.5594   27.5245 C.ar    1  UNL1        0.0047
     18 C           3.3349    0.5352   27.9774 C.ar    1  UNL1        0.0193
     19 C           1.8719    0.8664   27.9868 C.ar    1  UNL1        0.0838
     20 N           0.8740   -0.1579   28.4398 N.ar    1  UNL1       -0.2496
     21 C           0.2660    0.1719   20.4289 C.3     1  UNL1        0.0993
     22 C           1.5227   -0.2855   19.7495 C.ar    1  UNL1       -0.0047
     23 C           1.9342    0.3258   18.4430 C.ar    1  UNL1        0.0003
     24 C           3.1909   -0.1316   17.7637 C.ar    1  UNL1        0.0379
     25 C           4.0361   -1.2004   18.3909 C.ar    1  UNL1        0.1528
     26 C           3.6246   -1.8118   19.6973 C.ar    1  UNL1        0.0881
     27 C           2.3679   -1.3543   20.3766 C.ar    1  UNL1        0.0151
     28 N           4.4697   -2.8806   20.3245 N.am    1  UNL1       -0.2486
     29 C           5.7264   -3.3381   19.6452 C.2     1  UNL1        0.2742
     30 O           6.5716   -4.4069   20.2723 O.2     1  UNL1       -0.2705
     31 C           6.1380   -2.7267   18.3386 C.3     1  UNL1        0.2900
     32 O           5.2928   -1.6579   17.7115 O.3     1  UNL1       -0.4643
     33 C           4.0583   -3.4920   21.6309 C.3     1  UNL1        0.1249
     34 C           4.5769   -2.9267   22.9199 C.ar    1  UNL1       -0.0020
     35 C           3.9437   -1.7018   23.5103 C.ar    1  UNL1       -0.0026
     36 C           4.4624   -1.1365   24.7993 C.ar    1  UNL1       -0.0003
     37 C           5.6142   -1.7962   25.4979 C.ar    1  UNL1       -0.0000
     38 C           6.2474   -3.0212   24.9075 C.ar    1  UNL1       -0.0003
     39 C           5.7288   -3.5865   23.6185 C.ar    1  UNL1       -0.0026
@<TRIPOS>BOND
     1    10    11    1
     2    11    12   ar
     3    12    13   ar
     4    13    14   ar
     5    14    15   ar
     6    15     9    1
     7     9     8    1
     8     8     7    1
     9     7     1    1
    10     1     2    1
    11     2     3    1
    12     3     4    1
    13     4    21    1
    14    21    22    1
    15    22    23   ar
    16    23    24   ar
    17    24    25   ar
    18    25    26   ar
    19    26    27   ar
    20    26    28    1
    21    28    33    1
    22    33    34    1
    23    34    35   ar
    24    35    36   ar
    25    36    37   ar
    26    37    38   ar
    27    38    39   ar
    28    28    29   am
    29    29    30    2
    30    29    31    1
    31    31    32    1
    32     4     5    1
    33     5     6    1
    34    15    16   ar
    35    16    17   ar
    36    17    18   ar
    37    18    19   ar
    38    19    20   ar
    39    20    11   ar
    40    19    14   ar
    41     6     1    1
    42    27    22   ar
    43    39    34   ar
    44    32    25    1
@<TRIPOS>MOLECULE
*****
 39 44 0 0 0
SMALL
GASTEIGER

@<TRIPOS>ATOM
      1 N           2.0143    2.6853   22.5051 N.3     1  UNL1       -0.2672
      2 C           1.1095    1.5954   22.9987 C.3     1  UNL1        0.0898
      3 C           1.3761    0.9413   24.3220 C.3     1  UNL1        0.0899
      4 N           2.5474    1.3770   25.1516 N.3     1  UNL1       -0.2665
      5 C           3.4522    2.4668   24.6580 C.3     1  UNL1        0.0899
      6 C           3.1856    3.1210   23.3347 C.3     1  UNL1        0.0898
      7 C           1.7478    3.3395   21.1818 C.3     1  UNL1        0.1201
      8 C           2.5043    2.9016   19.9628 C.3     1  UNL1        0.2226
      9 O           2.5277    1.4528   19.5748 O.3     1  UNL1       -0.4739
     10 C           4.7499   -4.9968   18.7299 C.3     1  UNL1        0.0521
     11 C           4.4823   -3.5209   18.7434 C.ar    1  UNL1        0.0593
     12 C           3.3307   -2.9747   19.5343 C.ar    1  UNL1        0.0148
     13 C           3.0630   -1.4989   19.5478 C.ar    1  UNL1        0.0057
     14 C           3.9469   -0.5692   18.7704 C.ar    1  UNL1        0.0516
     15 C           3.6792    0.9067   18.7839 C.ar    1  UNL1        0.1400
     16 C           4.5631    1.8363   18.0065 C.ar    1  UNL1        0.0370
     17 C           5.7147    1.2902   17.2155 C.ar    1  UNL1        0.0047
     18 C           5.9824   -0.1857   17.2020 C.ar    1  UNL1        0.0193
     19 C           5.0984   -1.1154   17.9795 C.ar    1  UNL1        0.0838
     20 N           5.3661   -2.5912   17.9660 N.ar    1  UNL1       -0.2496
     21 C           2.8140    0.7228   26.4749 C.3     1  UNL1        0.0993
     22 C           3.7803   -0.4210   26.5650 C.ar    1  UNL1       -0.0047
     23 C           4.3005   -0.8598   27.9016 C.ar    1  UNL1        0.0003
     24 C           5.2668   -2.0035   27.9917 C.ar    1  UNL1        0.0379
     25 C           5.7128   -2.7084   26.7450 C.ar    1  UNL1        0.1528
     26 C           5.1926   -2.2696   25.4083 C.ar    1  UNL1        0.0881
     27 C           4.2264   -1.1259   25.3183 C.ar    1  UNL1        0.0151
     28 N           5.6387   -2.9745   24.1617 N.am    1  UNL1       -0.2486
     29 C           6.6050   -4.1182   24.2517 C.2     1  UNL1        0.2742
     30 O           7.0511   -4.8231   23.0050 O.2     1  UNL1       -0.2705
     31 C           7.1252   -4.5571   25.5884 C.3     1  UNL1        0.2900
     32 O           6.6792   -3.8522   26.8351 O.3     1  UNL1       -0.4643
     33 C           5.1185   -2.5356   22.8250 C.3     1  UNL1        0.1249
     34 C           5.8205   -1.4480   22.0672 C.ar    1  UNL1       -0.0020
     35 C           5.3484   -0.0289   22.1822 C.ar    1  UNL1       -0.0026
     36 C           6.0504    1.0588   21.4245 C.ar    1  UNL1       -0.0003
     37 C           7.2245    0.7274   20.5517 C.ar    1  UNL1       -0.0000
     38 C           7.6966   -0.6918   20.4367 C.ar    1  UNL1       -0.0003
     39 C           6.9946   -1.7795   21.1945 C.ar    1  UNL1       -0.0026
@<TRIPOS>BOND
     1    10    11    1
     2    11    12   ar
     3    12    13   ar
     4    13    14   ar
     5    14    15   ar
     6    15     9    1
     7     9     8    1
     8     8     7    1
     9     7     1    1
    10     1     2    1
    11     2     3    1
    12     3     4    1
    13     4    21    1
    14    21    22    1
    15    22    23   ar
    16    23    24   ar
    17    24    25   ar
    18    25    26   ar
    19    26    27   ar
    20    26    28    1
    21    28    33    1
    22    33    34    1
    23    34    35   ar
    24    35    36   ar
    25    36    37   ar
    26    37    38   ar
    27    38    39   ar
    28    28    29   am
    29    29    30    2
    30    29    31    1
    31    31    32    1
    32     4     5    1
    33     5     6    1
    34    15    16   ar
    35    16    17   ar
    36    17    18   ar
    37    18    19   ar
    38    19    20   ar
    39    20    11   ar
    40    19    14   ar
    41     6     1    1
    42    27    22   ar
    43    39    34   ar
    44    32    25    1
@<TRIPOS>MOLECULE
*****
 39 44 0 0 0
SMALL
GASTEIGER

@<TRIPOS>ATOM
      1 N           2.2349    2.1802   21.0147 N.3     1  UNL1       -0.2672
      2 C           2.1684    3.5700   20.4541 C.3     1  UNL1        0.0898
      3 C           0.8729    4.1002   19.9152 C.3     1  UNL1        0.0899
      4 N          -0.3563    3.2406   19.9370 N.3     1  UNL1       -0.2665
      5 C          -0.2898    1.8509   20.4976 C.3     1  UNL1        0.0899
      6 C           1.0058    1.3207   21.0365 C.3     1  UNL1        0.0898
      7 C           3.5305    1.6501   21.5536 C.3     1  UNL1        0.1201
      8 C           3.6315    1.2372   22.9922 C.3     1  UNL1        0.2226
      9 O           3.0773   -0.0849   23.4337 O.3     1  UNL1       -0.4739
     10 C           4.5136   -4.8298   18.6721 C.3     1  UNL1        0.0521
     11 C           4.3770   -3.9452   19.8758 C.ar    1  UNL1        0.0593
     12 C           3.4870   -2.7389   19.8228 C.ar    1  UNL1        0.0148
     13 C           3.3505   -1.8542   21.0265 C.ar    1  UNL1        0.0057
     14 C           4.1038   -2.1758   22.2830 C.ar    1  UNL1        0.0516
     15 C           3.9672   -1.2912   23.4866 C.ar    1  UNL1        0.1400
     16 C           4.7205   -1.6128   24.7432 C.ar    1  UNL1        0.0370
     17 C           5.6105   -2.8192   24.7962 C.ar    1  UNL1        0.0047
     18 C           5.7471   -3.7038   23.5926 C.ar    1  UNL1        0.0193
     19 C           4.9937   -3.3821   22.3359 C.ar    1  UNL1        0.0838
     20 N           5.1303   -4.2668   21.1323 N.ar    1  UNL1       -0.2496
     21 C          -1.6519    3.7708   19.3981 C.3     1  UNL1        0.0993
     22 C          -2.8689    3.8090   20.2741 C.ar    1  UNL1       -0.0047
     23 C          -4.2253    3.5585   19.6848 C.ar    1  UNL1        0.0003
     24 C          -5.4423    3.5967   20.5608 C.ar    1  UNL1        0.0379
     25 C          -5.3029    3.8854   22.0262 C.ar    1  UNL1        0.1528
     26 C          -3.9465    4.1360   22.6155 C.ar    1  UNL1        0.0881
     27 C          -2.7295    4.0977   21.7395 C.ar    1  UNL1        0.0151
     28 N          -3.8070    4.4247   24.0808 N.am    1  UNL1       -0.2486
     29 C          -5.0240    4.4629   24.9568 C.2     1  UNL1        0.2742
     30 O          -4.8846    4.7517   26.4222 O.2     1  UNL1       -0.2705
     31 C          -6.3805    4.2124   24.3675 C.3     1  UNL1        0.2900
     32 O          -6.5200    3.9236   22.9022 O.3     1  UNL1       -0.4643
     33 C          -2.4506    4.6752   24.6701 C.3     1  UNL1        0.1249
     34 C          -1.6562    3.5352   25.2351 C.ar    1  UNL1       -0.0020
     35 C          -0.6787    2.7994   24.3673 C.ar    1  UNL1       -0.0026
     36 C           0.1157    1.6595   24.9324 C.ar    1  UNL1       -0.0003
     37 C          -0.0672    1.2553   26.3652 C.ar    1  UNL1       -0.0000
     38 C          -1.0447    1.9911   27.2331 C.ar    1  UNL1       -0.0003
     39 C          -1.8392    3.1311   26.6681 C.ar    1  UNL1       -0.0026
@<TRIPOS>BOND
     1    10    11    1
     2    11    12   ar
     3    12    13   ar
     4    13    14   ar
     5    14    15   ar
     6    15     9    1
     7     9     8    1
     8     8     7    1
     9     7     1    1
    10     1     2    1
    11     2     3    1
    12     3     4    1
    13     4    21    1
    14    21    22    1
    15    22    23   ar
    16    23    24   ar
    17    24    25   ar
    18    25    26   ar
    19    26    27   ar
    20    26    28    1
    21    28    33    1
    22    33    34    1
    23    34    35   ar
    24    35    36   ar
    25    36    37   ar
    26    37    38   ar
    27    38    39   ar
    28    28    29   am
    29    29    30    2
    30    29    31    1
    31    31    32    1
    32     4     5    1
    33     5     6    1
    34    15    16   ar
    35    16    17   ar
    36    17    18   ar
    37    18    19   ar
    38    19    20   ar
    39    20    11   ar
    40    19    14   ar
    41     6     1    1
    42    27    22   ar
    43    39    34   ar
    44    32    25    1
@<TRIPOS>MOLECULE
*****
 39 44 0 0 0
SMALL
GASTEIGER

@<TRIPOS>ATOM
      1 N         -10.9250   -2.8139   17.4135 N.3     1  UNL1       -0.2672
      2 C         -11.7170   -2.2387   16.2768 C.3     1  UNL1        0.0898
      3 C         -12.6709   -1.1078   16.5240 C.3     1  UNL1        0.0899
      4 N         -12.8327   -0.5520   17.9079 N.3     1  UNL1       -0.2665
      5 C         -12.0407   -1.1271   19.0445 C.3     1  UNL1        0.0899
      6 C         -11.0869   -2.2581   18.7973 C.3     1  UNL1        0.0898
      7 C          -9.9711   -3.9448   17.1663 C.3     1  UNL1        0.1201
      8 C          -9.5130   -4.8028   18.3084 C.3     1  UNL1        0.2226
      9 O         -10.5099   -5.6067   19.0894 O.3     1  UNL1       -0.4739
     10 C         -17.3272   -5.0059   19.7320 C.3     1  UNL1        0.0521
     11 C         -15.9026   -5.3316   19.3938 C.ar    1  UNL1        0.0593
     12 C         -14.7836   -4.6295   20.1042 C.ar    1  UNL1        0.0148
     13 C         -13.3591   -4.9552   19.7660 C.ar    1  UNL1        0.0057
     14 C         -13.0534   -5.9831   18.7172 C.ar    1  UNL1        0.0516
     15 C         -11.6288   -6.3089   18.3789 C.ar    1  UNL1        0.1400
     16 C         -11.3232   -7.3368   17.3302 C.ar    1  UNL1        0.0370
     17 C         -12.4422   -8.0390   16.6196 C.ar    1  UNL1        0.0047
     18 C         -13.8668   -7.7133   16.9579 C.ar    1  UNL1        0.0193
     19 C         -14.1724   -6.6853   18.0067 C.ar    1  UNL1        0.0838
     20 N         -15.5970   -6.3596   18.3450 N.ar    1  UNL1       -0.2496
     21 C         -13.7866    0.5790   18.1551 C.3     1  UNL1        0.0993
     22 C         -15.1003    0.3181   18.8305 C.ar    1  UNL1       -0.0047
     23 C         -15.6845   -1.0634   18.8262 C.ar    1  UNL1        0.0003
     24 C         -16.9982   -1.3243   19.5017 C.ar    1  UNL1        0.0379
     25 C         -17.7276   -0.2036   20.1814 C.ar    1  UNL1        0.1528
     26 C         -17.1434    1.1779   20.1857 C.ar    1  UNL1        0.0881
     27 C         -15.8297    1.4387   19.5103 C.ar    1  UNL1        0.0151
     28 N         -17.8728    2.2986   20.8655 N.am    1  UNL1       -0.2486
     29 C         -19.1864    2.0377   21.5409 C.2     1  UNL1        0.2742
     30 O         -19.9158    3.1584   22.2206 O.2     1  UNL1       -0.2705
     31 C         -19.7707    0.6562   21.5366 C.3     1  UNL1        0.2900
     32 O         -19.0413   -0.4645   20.8569 O.3     1  UNL1       -0.4643
     33 C         -17.2885    3.6801   20.8698 C.3     1  UNL1        0.1249
     34 C         -16.3566    4.0969   21.9688 C.ar    1  UNL1       -0.0020
     35 C         -16.7604    3.9189   23.4023 C.ar    1  UNL1       -0.0026
     36 C         -15.8285    4.3357   24.5013 C.ar    1  UNL1       -0.0003
     37 C         -14.4928    4.9305   24.1667 C.ar    1  UNL1       -0.0000
     38 C         -14.0889    5.1086   22.7331 C.ar    1  UNL1       -0.0003
     39 C         -15.0208    4.6918   21.6341 C.ar    1  UNL1       -0.0026
@<TRIPOS>BOND
     1    10    11    1
     2    11    12   ar
     3    12    13   ar
     4    13    14   ar
     5    14    15   ar
     6    15     9    1
     7     9     8    1
     8     8     7    1
     9     7     1    1
    10     1     2    1
    11     2     3    1
    12     3     4    1
    13     4    21    1
    14    21    22    1
    15    22    23   ar
    16    23    24   ar
    17    24    25   ar
    18    25    26   ar
    19    26    27   ar
    20    26    28    1
    21    28    33    1
    22    33    34    1
    23    34    35   ar
    24    35    36   ar
    25    36    37   ar
    26    37    38   ar
    27    38    39   ar
    28    28    29   am
    29    29    30    2
    30    29    31    1
    31    31    32    1
    32     4     5    1
    33     5     6    1
    34    15    16   ar
    35    16    17   ar
    36    17    18   ar
    37    18    19   ar
    38    19    20   ar
    39    20    11   ar
    40    19    14   ar
    41     6     1    1
    42    27    22   ar
    43    39    34   ar
    44    32    25    1
@<TRIPOS>MOLECULE
*****
 39 44 0 0 0
SMALL
GASTEIGER

@<TRIPOS>ATOM
      1 N           3.4826    0.8764   25.8266 N.3     1  UNL1       -0.2672
      2 C           3.1470   -0.5349   26.2082 C.3     1  UNL1        0.0898
      3 C           4.1162   -1.3432   27.0190 C.3     1  UNL1        0.0899
      4 N           5.4209   -0.7401   27.4482 N.3     1  UNL1       -0.2665
      5 C           5.7564    0.6712   27.0666 C.3     1  UNL1        0.0899
      6 C           4.7872    1.4794   26.2558 C.3     1  UNL1        0.0898
      7 C           2.5134    1.6847   25.0158 C.3     1  UNL1        0.1201
      8 C           2.5373    1.6029   23.5181 C.3     1  UNL1        0.2226
      9 O           2.4747    0.2670   22.8389 O.3     1  UNL1       -0.4739
     10 C           7.9737   -0.4971   18.7860 C.3     1  UNL1        0.0521
     11 C           6.6277   -0.3282   19.4260 C.ar    1  UNL1        0.0593
     12 C           6.5128   -0.2397   20.9189 C.ar    1  UNL1        0.0148
     13 C           5.1668   -0.0708   21.5589 C.ar    1  UNL1        0.0057
     14 C           3.9356    0.0096   20.7060 C.ar    1  UNL1        0.0516
     15 C           2.5895    0.1785   21.3460 C.ar    1  UNL1        0.1400
     16 C           1.3583    0.2589   20.4930 C.ar    1  UNL1        0.0370
     17 C           1.4731    0.1705   19.0000 C.ar    1  UNL1        0.0047
     18 C           2.8191    0.0016   18.3600 C.ar    1  UNL1        0.0193
     19 C           4.0504   -0.0788   19.2130 C.ar    1  UNL1        0.0838
     20 N           5.3965   -0.2477   18.5731 N.ar    1  UNL1       -0.2496
     21 C           6.3900   -1.5484   28.2591 C.3     1  UNL1        0.0993
     22 C           6.6462   -2.9843   27.9089 C.ar    1  UNL1       -0.0047
     23 C           6.5054   -4.0484   28.9567 C.ar    1  UNL1        0.0003
     24 C           6.7615   -5.4843   28.6065 C.ar    1  UNL1        0.0379
     25 C           7.1585   -5.8560   27.2086 C.ar    1  UNL1        0.1528
     26 C           7.2993   -4.7919   26.1608 C.ar    1  UNL1        0.0881
     27 C           7.0431   -3.3561   26.5110 C.ar    1  UNL1        0.0151
     28 N           7.6963   -5.1637   24.7629 N.am    1  UNL1       -0.2486
     29 C           7.9524   -6.5996   24.4127 C.2     1  UNL1        0.2742
     30 O           8.3494   -6.9713   23.0148 O.2     1  UNL1       -0.2705
     31 C           7.8116   -7.6637   25.4605 C.3     1  UNL1        0.2900
     32 O           7.4147   -7.2920   26.8584 O.3     1  UNL1       -0.4643
     33 C           7.8371   -4.0996   23.7151 C.3     1  UNL1        0.1249
     34 C           6.7815   -3.9403   22.6613 C.ar    1  UNL1       -0.0020
     35 C           7.1513   -4.0266   21.2102 C.ar    1  UNL1       -0.0026
     36 C           6.0958   -3.8672   20.1565 C.ar    1  UNL1       -0.0003
     37 C           4.6704   -3.6216   20.5538 C.ar    1  UNL1       -0.0000
     38 C           4.3005   -3.5353   22.0050 C.ar    1  UNL1       -0.0003
     39 C           5.3561   -3.6947   23.0588 C.ar    1  UNL1       -0.0026
@<TRIPOS>BOND
     1    10    11    1
     2    11    12   ar
     3    12    13   ar
     4    13    14   ar
     5    14    15   ar
     6    15     9    1
     7     9     8    1
     8     8     7    1
     9     7     1    1
    10     1     2    1
    11     2     3    1
    12     3     4    1
    13     4    21    1
    14    21    22    1
    15    22    23   ar
    16    23    24   ar
    17    24    25   ar
    18    25    26   ar
    19    26    27   ar
    20    26    28    1
    21    28    33    1
    22    33    34    1
    23    34    35   ar
    24    35    36   ar
    25    36    37   ar
    26    37    38   ar
    27    38    39   ar
    28    28    29   am
    29    29    30    2
    30    29    31    1
    31    31    32    1
    32     4     5    1
    33     5     6    1
    34    15    16   ar
    35    16    17   ar
    36    17    18   ar
    37    18    19   ar
    38    19    20   ar
    39    20    11   ar
    40    19    14   ar
    41     6     1    1
    42    27    22   ar
    43    39    34   ar
    44    32    25    1
@<TRIPOS>MOLECULE
*****
 39 44 0 0 0
SMALL
GASTEIGER

@<TRIPOS>ATOM
      1 N           7.2833   -5.0887   25.8537 N.3     1  UNL1       -0.2672
      2 C           6.8451   -3.8687   26.6085 C.3     1  UNL1        0.0898
      3 C           6.6884   -3.9251   28.0992 C.3     1  UNL1        0.0899
      4 N           6.9699   -5.2016   28.8351 N.3     1  UNL1       -0.2665
      5 C           7.4081   -6.4215   28.0803 C.3     1  UNL1        0.0899
      6 C           7.5648   -6.3650   26.5896 C.3     1  UNL1        0.0898
      7 C           7.4400   -5.0322   24.3630 C.3     1  UNL1        0.1201
      8 C           6.5652   -4.1239   23.5507 C.3     1  UNL1        0.2226
      9 O           6.2519   -4.4632   22.1236 O.3     1  UNL1       -0.4739
     10 C           3.7531   -0.9188   16.7904 C.3     1  UNL1        0.0521
     11 C           4.5526   -1.6244   17.8453 C.ar    1  UNL1        0.0593
     12 C           3.8534   -2.3464   18.9588 C.ar    1  UNL1        0.0148
     13 C           4.6529   -3.0520   20.0137 C.ar    1  UNL1        0.0057
     14 C           6.1516   -3.0357   19.9552 C.ar    1  UNL1        0.0516
     15 C           6.9511   -3.7413   21.0102 C.ar    1  UNL1        0.1400
     16 C           8.4499   -3.7250   20.9517 C.ar    1  UNL1        0.0370
     17 C           9.1492   -3.0030   19.8382 C.ar    1  UNL1        0.0047
     18 C           8.3497   -2.2973   18.7832 C.ar    1  UNL1        0.0193
     19 C           6.8509   -2.3137   18.8418 C.ar    1  UNL1        0.0838
     20 N           6.0514   -1.6081   17.7868 N.ar    1  UNL1       -0.2496
     21 C           6.8132   -5.2581   30.3259 C.3     1  UNL1        0.0993
     22 C           7.3757   -4.1616   31.1812 C.ar    1  UNL1       -0.0047
     23 C           8.8592   -3.9508   31.2506 C.ar    1  UNL1        0.0003
     24 C           9.4216   -2.8544   32.1058 C.ar    1  UNL1        0.0379
     25 C           8.5006   -1.9689   32.8918 C.ar    1  UNL1        0.1528
     26 C           7.0172   -2.1798   32.8224 C.ar    1  UNL1        0.0881
     27 C           6.4547   -3.2762   31.9671 C.ar    1  UNL1        0.0151
     28 N           6.0962   -1.2943   33.6083 N.am    1  UNL1       -0.2486
     29 C           6.6586   -0.1979   34.4636 C.2     1  UNL1        0.2742
     30 O           5.7376    0.6876   35.2495 O.2     1  UNL1       -0.2705
     31 C           8.1422    0.0130   34.5330 C.3     1  UNL1        0.2900
     32 O           9.0632   -0.8725   33.7471 O.3     1  UNL1       -0.4643
     33 C           4.6127   -1.5052   33.5389 C.3     1  UNL1        0.1249
     34 C           3.7773   -0.6613   32.6225 C.ar    1  UNL1       -0.0020
     35 C           3.4988   -1.1238   31.2230 C.ar    1  UNL1       -0.0026
     36 C           2.6633   -0.2799   30.3065 C.ar    1  UNL1       -0.0003
     37 C           2.1063    1.0264   30.7895 C.ar    1  UNL1       -0.0000
     38 C           2.3848    1.4888   32.1891 C.ar    1  UNL1       -0.0003
     39 C           3.2202    0.6450   33.1056 C.ar    1  UNL1       -0.0026
@<TRIPOS>BOND
     1    10    11    1
     2    11    12   ar
     3    12    13   ar
     4    13    14   ar
     5    14    15   ar
     6    15     9    1
     7     9     8    1
     8     8     7    1
     9     7     1    1
    10     1     2    1
    11     2     3    1
    12     3     4    1
    13     4    21    1
    14    21    22    1
    15    22    23   ar
    16    23    24   ar
    17    24    25   ar
    18    25    26   ar
    19    26    27   ar
    20    26    28    1
    21    28    33    1
    22    33    34    1
    23    34    35   ar
    24    35    36   ar
    25    36    37   ar
    26    37    38   ar
    27    38    39   ar
    28    28    29   am
    29    29    30    2
    30    29    31    1
    31    31    32    1
    32     4     5    1
    33     5     6    1
    34    15    16   ar
    35    16    17   ar
    36    17    18   ar
    37    18    19   ar
    38    19    20   ar
    39    20    11   ar
    40    19    14   ar
    41     6     1    1
    42    27    22   ar
    43    39    34   ar
    44    32    25    1
@<TRIPOS>MOLECULE
*****
 39 44 0 0 0
SMALL
GASTEIGER

@<TRIPOS>ATOM
      1 N           6.0645   -0.6404   24.7754 N.3     1  UNL1       -0.2672
      2 C           4.8382   -1.5034   24.7372 C.3     1  UNL1        0.0898
      3 C           3.6975   -1.2274   25.6714 C.3     1  UNL1        0.0899
      4 N           3.7832   -0.0885   26.6438 N.3     1  UNL1       -0.2665
      5 C           5.0095    0.7744   26.6820 C.3     1  UNL1        0.0899
      6 C           6.1502    0.4985   25.7478 C.3     1  UNL1        0.0898
      7 C           7.2051   -0.9164   23.8412 C.3     1  UNL1        0.1201
      8 C           7.0157   -1.8479   22.6808 C.3     1  UNL1        0.2226
      9 O           7.4982   -1.4540   21.3162 O.3     1  UNL1       -0.4739
     10 C           3.1308    3.1748   18.7181 C.3     1  UNL1        0.0521
     11 C           3.9905    1.9982   19.0738 C.ar    1  UNL1        0.0593
     12 C           4.9192    2.0759   20.2491 C.ar    1  UNL1        0.0148
     13 C           5.7789    0.8993   20.6048 C.ar    1  UNL1        0.0057
     14 C           5.7099   -0.3551   19.7852 C.ar    1  UNL1        0.0516
     15 C           6.5696   -1.5317   20.1409 C.ar    1  UNL1        0.1400
     16 C           6.5006   -2.7860   19.3213 C.ar    1  UNL1        0.0370
     17 C           5.5718   -2.8638   18.1459 C.ar    1  UNL1        0.0047
     18 C           4.7122   -1.6872   17.7902 C.ar    1  UNL1        0.0193
     19 C           4.7812   -0.4328   18.6099 C.ar    1  UNL1        0.0838
     20 N           3.9215    0.7438   18.2541 N.ar    1  UNL1       -0.2496
     21 C           2.6426    0.1875   27.5781 C.3     1  UNL1        0.0993
     22 C           1.4283    0.9168   27.0843 C.ar    1  UNL1       -0.0047
     23 C           0.2357    1.0797   27.9793 C.ar    1  UNL1        0.0003
     24 C          -0.9785    1.8090   27.4855 C.ar    1  UNL1        0.0379
     25 C          -1.0000    2.3754   26.0967 C.ar    1  UNL1        0.1528
     26 C           0.1926    2.2125   25.2017 C.ar    1  UNL1        0.0881
     27 C           1.4068    1.4832   25.6955 C.ar    1  UNL1        0.0151
     28 N           0.1711    2.7789   23.8129 N.am    1  UNL1       -0.2486
     29 C          -1.0431    3.5082   23.3191 C.2     1  UNL1        0.2742
     30 O          -1.0646    4.0745   21.9303 O.2     1  UNL1       -0.2705
     31 C          -2.2358    3.6711   24.2141 C.3     1  UNL1        0.2900
     32 O          -2.2143    3.1047   25.6029 O.3     1  UNL1       -0.4643
     33 C           1.3637    2.6160   22.9179 C.3     1  UNL1        0.1249
     34 C           1.4905    1.3980   22.0516 C.ar    1  UNL1       -0.0020
     35 C           0.6226    1.2475   20.8375 C.ar    1  UNL1       -0.0026
     36 C           0.7494    0.0296   19.9712 C.ar    1  UNL1       -0.0003
     37 C           1.7441   -1.0379   20.3189 C.ar    1  UNL1       -0.0000
     38 C           2.6121   -0.8875   21.5331 C.ar    1  UNL1       -0.0003
     39 C           2.4853    0.3305   22.3994 C.ar    1  UNL1       -0.0026
@<TRIPOS>BOND
     1    10    11    1
     2    11    12   ar
     3    12    13   ar
     4    13    14   ar
     5    14    15   ar
     6    15     9    1
     7     9     8    1
     8     8     7    1
     9     7     1    1
    10     1     2    1
    11     2     3    1
    12     3     4    1
    13     4    21    1
    14    21    22    1
    15    22    23   ar
    16    23    24   ar
    17    24    25   ar
    18    25    26   ar
    19    26    27   ar
    20    26    28    1
    21    28    33    1
    22    33    34    1
    23    34    35   ar
    24    35    36   ar
    25    36    37   ar
    26    37    38   ar
    27    38    39   ar
    28    28    29   am
    29    29    30    2
    30    29    31    1
    31    31    32    1
    32     4     5    1
    33     5     6    1
    34    15    16   ar
    35    16    17   ar
    36    17    18   ar
    37    18    19   ar
    38    19    20   ar
    39    20    11   ar
    40    19    14   ar
    41     6     1    1
    42    27    22   ar
    43    39    34   ar
    44    32    25    1
@<TRIPOS>MOLECULE
*****
 39 44 0 0 0
SMALL
GASTEIGER

@<TRIPOS>ATOM
      1 N           1.5929    1.8988   25.9721 N.3     1  UNL1       -0.2672
      2 C           1.7831    3.3266   25.5534 C.3     1  UNL1        0.0898
      3 C           0.5920    4.1764   25.2233 C.3     1  UNL1        0.0899
      4 N          -0.7894    3.5984   25.3120 N.3     1  UNL1       -0.2665
      5 C          -0.9796    2.1706   25.7307 C.3     1  UNL1        0.0899
      6 C           0.2116    1.3208   26.0607 C.3     1  UNL1        0.0898
      7 C           2.7841    1.0489   26.3021 C.3     1  UNL1        0.1201
      8 C           3.2083   -0.0438   25.3660 C.3     1  UNL1        0.2226
      9 O           3.7243    0.2976   23.9996 O.3     1  UNL1       -0.4739
     10 C           4.4792   -4.2072   18.8627 C.3     1  UNL1        0.0521
     11 C           4.0784   -3.1464   19.8447 C.ar    1  UNL1        0.0593
     12 C           4.9267   -2.8846   21.0537 C.ar    1  UNL1        0.0148
     13 C           4.5259   -1.8238   22.0356 C.ar    1  UNL1        0.0057
     14 C           3.2768   -1.0250   21.8086 C.ar    1  UNL1        0.0516
     15 C           2.8760    0.0357   22.7905 C.ar    1  UNL1        0.1400
     16 C           1.6270    0.8346   22.5635 C.ar    1  UNL1        0.0370
     17 C           0.7786    0.5728   21.3544 C.ar    1  UNL1        0.0047
     18 C           1.1794   -0.4880   20.3724 C.ar    1  UNL1        0.0193
     19 C           2.4285   -1.2868   20.5996 C.ar    1  UNL1        0.0838
     20 N           2.8293   -2.3476   19.6176 N.ar    1  UNL1       -0.2496
     21 C          -1.9806    4.4482   24.9820 C.3     1  UNL1        0.0993
     22 C          -2.8232    4.1255   23.7837 C.ar    1  UNL1       -0.0047
     23 C          -4.1357    3.4205   23.9576 C.ar    1  UNL1        0.0003
     24 C          -4.9783    3.0979   22.7593 C.ar    1  UNL1        0.0379
     25 C          -4.5084    3.4802   21.3871 C.ar    1  UNL1        0.1528
     26 C          -3.1959    4.1852   21.2132 C.ar    1  UNL1        0.0881
     27 C          -2.3533    4.5079   22.4114 C.ar    1  UNL1        0.0151
     28 N          -2.7260    4.5675   19.8409 N.am    1  UNL1       -0.2486
     29 C          -3.5685    4.2449   18.6427 C.2     1  UNL1        0.2742
     30 O          -3.0986    4.6272   17.2704 O.2     1  UNL1       -0.2705
     31 C          -4.8811    3.5399   18.8166 C.3     1  UNL1        0.2900
     32 O          -5.3510    3.1576   20.1888 O.3     1  UNL1       -0.4643
     33 C          -1.4135    5.2725   19.6670 C.3     1  UNL1        0.1249
     34 C          -0.1484    4.4787   19.5277 C.ar    1  UNL1       -0.0020
     35 C           0.9978    4.7238   20.4637 C.ar    1  UNL1       -0.0026
     36 C           2.2628    3.9299   20.3244 C.ar    1  UNL1       -0.0003
     37 C           2.3818    2.8910   19.2491 C.ar    1  UNL1       -0.0000
     38 C           1.2356    2.6459   18.3130 C.ar    1  UNL1       -0.0003
     39 C          -0.0295    3.4397   18.4523 C.ar    1  UNL1       -0.0026
@<TRIPOS>BOND
     1    10    11    1
     2    11    12   ar
     3    12    13   ar
     4    13    14   ar
     5    14    15   ar
     6    15     9    1
     7     9     8    1
     8     8     7    1
     9     7     1    1
    10     1     2    1
    11     2     3    1
    12     3     4    1
    13     4    21    1
    14    21    22    1
    15    22    23   ar
    16    23    24   ar
    17    24    25   ar
    18    25    26   ar
    19    26    27   ar
    20    26    28    1
    21    28    33    1
    22    33    34    1
    23    34    35   ar
    24    35    36   ar
    25    36    37   ar
    26    37    38   ar
    27    38    39   ar
    28    28    29   am
    29    29    30    2
    30    29    31    1
    31    31    32    1
    32     4     5    1
    33     5     6    1
    34    15    16   ar
    35    16    17   ar
    36    17    18   ar
    37    18    19   ar
    38    19    20   ar
    39    20    11   ar
    40    19    14   ar
    41     6     1    1
    42    27    22   ar
    43    39    34   ar
    44    32    25    1
