@<TRIPOS>MOLECULE
*****
 46 51 0 0 0
SMALL
GASTEIGER

@<TRIPOS>ATOM
      1 C          -2.9057    4.3174   21.8201 C.ar    1  UNL1        0.1348
      2 C          -2.7050    5.1343   23.0620 C.ar    1  UNL1        0.0346
      3 C          -1.5503    4.8417   23.9737 C.ar    1  UNL1        0.0065
      4 C          -0.5964    3.7323   23.6435 C.ar    1  UNL1        0.0432
      5 C          -0.7971    2.9154   22.4016 C.ar    1  UNL1        0.1256
      6 N          -1.9517    3.2079   21.4899 N.ar    1  UNL1       -0.2222
      7 C           0.5583    3.4397   24.5552 C.ar    1  UNL1        0.0851
      8 C           1.9455    3.9960   24.4274 C.ar    1  UNL1        0.1035
      9 N           2.7731    3.4396   25.5480 N.ar    1  UNL1       -0.2263
     10 C           1.8973    2.5395   26.3683 C.ar    1  UNL1        0.1475
     11 C           2.1694    1.7198   27.5947 C.ar    1  UNL1        0.0332
     12 C           1.0727    0.9002   28.2075 C.ar    1  UNL1       -0.0174
     13 C           1.3448    0.0806   29.4339 C.3     1  UNL1        0.0312
     14 C          -0.2961    0.9003   27.5940 C.ar    1  UNL1        0.0149
     15 C          -0.5682    1.7200   26.3676 C.ar    1  UNL1        0.0811
     16 N           0.5285    2.5396   25.7547 N.ar    1  UNL1       -0.2888
     17 C           2.4216    4.9424   23.3656 C.ar    1  UNL1        0.0723
     18 C           2.0227    6.3876   23.4153 C.ar    1  UNL1        0.0078
     19 C           2.4988    7.3341   22.3535 C.ar    1  UNL1        0.0209
     20 C           3.3737    6.8354   21.2418 C.ar    1  UNL1        0.1021
     21 N           3.7726    5.3902   21.1920 N.ar    1  UNL1       -0.2101
     22 C           3.2965    4.4438   22.2539 C.ar    1  UNL1        0.2264
     23 O           3.6954    2.9986   22.2041 O.3     1  UNL1       -0.4561
     24 C           4.4056    2.4579   20.9986 C.3     1  UNL1        0.2542
     25 C          -5.4224    4.0677   21.2256 C.2     1  UNL1        0.2414
     26 O          -5.6300    3.2329   22.4545 O.2     1  UNL1       -0.2733
     27 N          -4.0603    4.6099   20.9084 N.am    1  UNL1       -0.2682
     28 H          -3.9242    5.1578   20.1019 H       1  UNL1        0.1563
     29 C          -6.5771    4.3603   20.3139 C.3     1  UNL1        0.1319
     30 C          -6.6531    3.7060   18.9662 C.3     1  UNL1        0.0270
     31 C          -7.3218    6.4638   21.6445 C.3     1  UNL1        0.0862
     32 N          -7.6557    5.3070   20.7499 N.3     1  UNL1       -0.2902
     33 H          -8.0638    5.6993   19.9013 H       1  UNL1        0.1237
     34 C           0.1569    1.8059   22.0713 C.1     1  UNL1       -0.0404
     35 C           1.1108    0.6964   21.7411 C.1     1  UNL1       -0.0583
     36 C           2.0648   -0.4131   21.4108 C.ar    1  UNL1        0.0420
     37 C           2.1238   -0.9611   20.0158 C.ar    1  UNL1        0.0083
     38 C           3.0777   -2.0705   19.6856 C.ar    1  UNL1        0.0018
     39 C           3.9727   -2.6320   20.7504 C.ar    1  UNL1        0.0137
     40 C           4.9266   -3.7415   20.4202 C.ar    1  UNL1        0.0594
     41 C           4.9856   -4.2895   19.0251 C.3     1  UNL1        0.0521
     42 N           5.8215   -4.3030   21.4850 N.ar    1  UNL1       -0.2481
     43 C           5.7625   -3.7549   22.8801 C.ar    1  UNL1        0.0984
     44 C           4.8086   -2.6455   23.2103 C.ar    1  UNL1        0.0207
     45 C           3.9136   -2.0840   22.1455 C.ar    1  UNL1        0.0033
     46 C           2.9597   -0.9746   22.4757 C.ar    1  UNL1        0.0083
@<TRIPOS>BOND
     1    31    32    1
     2    32    29    1
     3    29    30    1
     4    29    25    1
     5    25    26    2
     6    25    27   am
     7    27     1    1
     8     1     2   ar
     9     2     3   ar
    10     3     4   ar
    11     4     7    1
    12     7     8   ar
    13     8    17    1
    14    17    18   ar
    15    18    19   ar
    16    19    20   ar
    17    20    21   ar
    18    21    22   ar
    19    22    23    1
    20    23    24    1
    21     8     9   ar
    22     9    10   ar
    23    10    11   ar
    24    11    12   ar
    25    12    13    1
    26    12    14   ar
    27    14    15   ar
    28    15    16   ar
    29     4     5   ar
    30     5    34    1
    31    34    35    3
    32    35    36    1
    33    36    37   ar
    34    37    38   ar
    35    38    39   ar
    36    39    40   ar
    37    40    41    1
    38    40    42   ar
    39    42    43   ar
    40    43    44   ar
    41    44    45   ar
    42    45    46   ar
    43     5     6   ar
    44     6     1   ar
    45    16     7   ar
    46    46    36   ar
    47    22    17   ar
    48    16    10   ar
    49    45    39   ar
    50    32    33    1
    51    27    28    1
@<TRIPOS>MOLECULE
*****
 46 51 0 0 0
SMALL
GASTEIGER

@<TRIPOS>ATOM
      1 C           4.1343   -0.7861   30.7615 C.ar    1  UNL1        0.1348
      2 C           5.4444   -1.3466   31.2299 C.ar    1  UNL1        0.0346
      3 C           6.4262   -1.8906   30.2348 C.ar    1  UNL1        0.0065
      4 C           6.0979   -1.8740   28.7713 C.ar    1  UNL1        0.0432
      5 C           4.7878   -1.3135   28.3029 C.ar    1  UNL1        0.1256
      6 N           3.8060   -0.7695   29.2980 N.ar    1  UNL1       -0.2222
      7 C           7.0796   -2.4180   27.7762 C.ar    1  UNL1        0.0851
      8 C           8.1607   -1.6387   27.0876 C.ar    1  UNL1        0.1035
      9 N           8.9019   -2.5759   26.1808 N.ar    1  UNL1       -0.2263
     10 C           8.2790   -3.9344   26.3089 C.ar    1  UNL1        0.1475
     11 C           8.5917   -5.2477   25.6551 C.ar    1  UNL1        0.0332
     12 C           7.7782   -6.4634   25.9872 C.ar    1  UNL1       -0.0174
     13 C           8.0910   -7.7766   25.3334 C.3     1  UNL1        0.0312
     14 C           6.6520   -6.3659   26.9732 C.ar    1  UNL1        0.0149
     15 C           6.3392   -5.0526   27.6270 C.ar    1  UNL1        0.0811
     16 N           7.1527   -3.8368   27.2949 N.ar    1  UNL1       -0.2888
     17 C           8.4498   -0.1786   27.2733 C.ar    1  UNL1        0.0723
     18 C           9.2467    0.2836   28.4572 C.ar    1  UNL1        0.0078
     19 C           9.5358    1.7437   28.6429 C.ar    1  UNL1        0.0209
     20 C           9.0280    2.7416   27.6448 C.ar    1  UNL1        0.1021
     21 N           8.2311    2.2795   26.4610 N.ar    1  UNL1       -0.2101
     22 C           7.9420    0.8194   26.2753 C.ar    1  UNL1        0.2264
     23 O           7.1450    0.3573   25.0915 O.3     1  UNL1       -0.4561
     24 C           7.8400    0.0157   23.8068 C.3     1  UNL1        0.2542
     25 C           3.0089    1.2403   31.9350 C.2     1  UNL1        0.2414
     26 O           3.8470    2.1788   31.1183 O.2     1  UNL1       -0.2733
     27 N           3.1526   -0.2421   31.7566 N.am    1  UNL1       -0.2682
     28 H           2.6025   -0.8580   32.2926 H       1  UNL1        0.1563
     29 C           2.0272    1.7843   32.9301 C.3     1  UNL1        0.1319
     30 C           2.4692    2.0874   34.3311 C.3     1  UNL1        0.0270
     31 C           0.2344    2.0662   31.0709 C.3     1  UNL1        0.0862
     32 N           0.6034    2.0252   32.5243 N.3     1  UNL1       -0.2902
     33 H           0.0467    1.2833   32.9486 H       1  UNL1        0.1237
     34 C           4.4594   -1.2969   26.8393 C.1     1  UNL1       -0.0404
     35 C           4.1310   -1.2803   25.3758 C.1     1  UNL1       -0.0583
     36 C           3.8027   -1.2637   23.9122 C.ar    1  UNL1        0.0420
     37 C           2.8927   -0.2070   23.3597 C.ar    1  UNL1        0.0083
     38 C           2.5643   -0.1905   21.8962 C.ar    1  UNL1        0.0018
     39 C           3.1460   -1.2305   20.9852 C.ar    1  UNL1        0.0137
     40 C           2.8177   -1.2139   19.5216 C.ar    1  UNL1        0.0594
     41 C           1.9077   -0.1573   18.9691 C.3     1  UNL1        0.0521
     42 N           3.3994   -2.2540   18.6107 N.ar    1  UNL1       -0.2481
     43 C           4.3094   -3.3107   19.1633 C.ar    1  UNL1        0.0984
     44 C           4.6378   -3.3272   20.6268 C.ar    1  UNL1        0.0207
     45 C           4.0561   -2.2872   21.5378 C.ar    1  UNL1        0.0033
     46 C           4.3844   -2.3037   23.0013 C.ar    1  UNL1        0.0083
@<TRIPOS>BOND
     1    31    32    1
     2    32    29    1
     3    29    30    1
     4    29    25    1
     5    25    26    2
     6    25    27   am
     7    27     1    1
     8     1     2   ar
     9     2     3   ar
    10     3     4   ar
    11     4     7    1
    12     7     8   ar
    13     8    17    1
    14    17    18   ar
    15    18    19   ar
    16    19    20   ar
    17    20    21   ar
    18    21    22   ar
    19    22    23    1
    20    23    24    1
    21     8     9   ar
    22     9    10   ar
    23    10    11   ar
    24    11    12   ar
    25    12    13    1
    26    12    14   ar
    27    14    15   ar
    28    15    16   ar
    29     4     5   ar
    30     5    34    1
    31    34    35    3
    32    35    36    1
    33    36    37   ar
    34    37    38   ar
    35    38    39   ar
    36    39    40   ar
    37    40    41    1
    38    40    42   ar
    39    42    43   ar
    40    43    44   ar
    41    44    45   ar
    42    45    46   ar
    43     5     6   ar
    44     6     1   ar
    45    16     7   ar
    46    46    36   ar
    47    22    17   ar
    48    16    10   ar
    49    45    39   ar
    50    32    33    1
    51    27    28    1
@<TRIPOS>MOLECULE
*****
 46 51 0 0 0
SMALL
GASTEIGER

@<TRIPOS>ATOM
      1 C          -2.5036    4.4460   24.6457 C.ar    1  UNL1        0.1348
      2 C          -1.9749    5.1221   25.8758 C.ar    1  UNL1        0.0346
      3 C          -0.6229    4.7544   26.4114 C.ar    1  UNL1        0.0065
      4 C           0.2004    3.7104   25.7169 C.ar    1  UNL1        0.0432
      5 C          -0.3284    3.0343   24.4868 C.ar    1  UNL1        0.1256
      6 N          -1.6804    3.4020   23.9512 N.ar    1  UNL1       -0.2222
      7 C           1.5524    3.3427   26.2525 C.ar    1  UNL1        0.0851
      8 C           1.8242    2.4080   27.3937 C.ar    1  UNL1        0.1035
      9 N           3.3098    2.3326   27.5874 N.ar    1  UNL1       -0.2263
     10 C           3.9560    3.2208   26.5659 C.ar    1  UNL1        0.1475
     11 C           5.3932    3.5418   26.2804 C.ar    1  UNL1        0.0332
     12 C           5.7442    4.4870   25.1699 C.ar    1  UNL1       -0.0174
     13 C           7.1814    4.8080   24.8843 C.3     1  UNL1        0.0312
     14 C           4.6581    5.1113   24.3448 C.ar    1  UNL1        0.0149
     15 C           3.2209    4.7903   24.6303 C.ar    1  UNL1        0.0811
     16 N           2.8699    3.8450   25.7409 N.ar    1  UNL1       -0.2888
     17 C           0.7918    1.6769   28.1997 C.ar    1  UNL1        0.0723
     18 C          -0.0616    0.6277   27.5508 C.ar    1  UNL1        0.0078
     19 C          -1.0940   -0.1034   28.3568 C.ar    1  UNL1        0.0209
     20 C          -1.2730    0.2147   29.8117 C.ar    1  UNL1        0.1021
     21 N          -0.4196    1.2638   30.4606 N.ar    1  UNL1       -0.2101
     22 C           0.6128    1.9949   29.6546 C.ar    1  UNL1        0.2264
     23 O           1.4662    3.0440   30.3036 O.3     1  UNL1       -0.4561
     24 C           0.8272    4.2447   30.9361 C.3     1  UNL1        0.2542
     25 C          -5.0937    4.3838   24.8397 C.2     1  UNL1        0.2414
     26 O          -4.9798    3.5860   26.1049 O.2     1  UNL1       -0.2733
     27 N          -3.8556    4.8137   24.1101 N.am    1  UNL1       -0.2682
     28 H          -3.9304    5.3373   23.2798 H       1  UNL1        0.1563
     29 C          -6.4457    4.7515   24.3041 C.3     1  UNL1        0.1319
     30 C          -7.2080    5.8919   24.9111 C.3     1  UNL1        0.0270
     31 C          -6.6754    4.3359   21.7498 C.3     1  UNL1        0.0862
     32 N          -7.0353    3.9790   23.1616 N.3     1  UNL1       -0.2902
     33 H          -6.7677    3.0039   23.2962 H       1  UNL1        0.1237
     34 C           0.4949    1.9903   23.7922 C.1     1  UNL1       -0.0404
     35 C           1.3182    0.9464   23.0977 C.1     1  UNL1       -0.0583
     36 C           2.1414   -0.0976   22.4031 C.ar    1  UNL1        0.0420
     37 C           1.9854   -0.3165   20.9274 C.ar    1  UNL1        0.0083
     38 C           2.8086   -1.3605   20.2329 C.ar    1  UNL1        0.0018
     39 C           3.7879   -2.1856   21.0141 C.ar    1  UNL1        0.0137
     40 C           4.6112   -3.2296   20.3195 C.ar    1  UNL1        0.0594
     41 C           4.4551   -3.4484   18.8438 C.3     1  UNL1        0.0521
     42 N           5.5905   -4.0546   21.1007 N.ar    1  UNL1       -0.2481
     43 C           5.7465   -3.8357   22.5764 C.ar    1  UNL1        0.0984
     44 C           4.9233   -2.7917   23.2709 C.ar    1  UNL1        0.0207
     45 C           3.9440   -1.9667   22.4898 C.ar    1  UNL1        0.0033
     46 C           3.1207   -0.9227   23.1843 C.ar    1  UNL1        0.0083
@<TRIPOS>BOND
     1    31    32    1
     2    32    29    1
     3    29    30    1
     4    29    25    1
     5    25    26    2
     6    25    27   am
     7    27     1    1
     8     1     2   ar
     9     2     3   ar
    10     3     4   ar
    11     4     7    1
    12     7     8   ar
    13     8    17    1
    14    17    18   ar
    15    18    19   ar
    16    19    20   ar
    17    20    21   ar
    18    21    22   ar
    19    22    23    1
    20    23    24    1
    21     8     9   ar
    22     9    10   ar
    23    10    11   ar
    24    11    12   ar
    25    12    13    1
    26    12    14   ar
    27    14    15   ar
    28    15    16   ar
    29     4     5   ar
    30     5    34    1
    31    34    35    3
    32    35    36    1
    33    36    37   ar
    34    37    38   ar
    35    38    39   ar
    36    39    40   ar
    37    40    41    1
    38    40    42   ar
    39    42    43   ar
    40    43    44   ar
    41    44    45   ar
    42    45    46   ar
    43     5     6   ar
    44     6     1   ar
    45    16     7   ar
    46    46    36   ar
    47    22    17   ar
    48    16    10   ar
    49    45    39   ar
    50    32    33    1
    51    27    28    1
@<TRIPOS>MOLECULE
*****
 46 51 0 0 0
SMALL
GASTEIGER

@<TRIPOS>ATOM
      1 C           2.9042   -0.2023   29.8944 C.ar    1  UNL1        0.1348
      2 C           2.4401    1.2031   30.1378 C.ar    1  UNL1        0.0346
      3 C           2.2098    2.1281   28.9796 C.ar    1  UNL1        0.0065
      4 C           2.4437    1.6476   27.5781 C.ar    1  UNL1        0.0432
      5 C           2.9078    0.2422   27.3347 C.ar    1  UNL1        0.1256
      6 N           3.1381   -0.6828   28.4929 N.ar    1  UNL1       -0.2222
      7 C           2.2134    2.5726   26.4199 C.ar    1  UNL1        0.0851
      8 C           3.2627    3.3778   25.7124 C.ar    1  UNL1        0.1035
      9 N           2.5913    4.1576   24.6211 N.ar    1  UNL1       -0.2263
     10 C           1.1269    3.8344   24.6541 C.ar    1  UNL1        0.1475
     11 C          -0.0241    4.3054   23.8154 C.ar    1  UNL1        0.0332
     12 C          -1.4086    3.7969   24.0886 C.ar    1  UNL1       -0.0174
     13 C          -2.5596    4.2680   23.2499 C.3     1  UNL1        0.0312
     14 C          -1.6422    2.8173   25.2003 C.ar    1  UNL1        0.0149
     15 C          -0.4912    2.3463   26.0389 C.ar    1  UNL1        0.0811
     16 N           0.8934    2.8548   25.7658 N.ar    1  UNL1       -0.2888
     17 C           4.7266    3.3994   26.0389 C.ar    1  UNL1        0.0723
     18 C           5.2079    4.0885   27.2814 C.ar    1  UNL1        0.0078
     19 C           6.6718    4.1101   27.6078 C.ar    1  UNL1        0.0209
     20 C           7.6544    3.4426   26.6919 C.ar    1  UNL1        0.1021
     21 N           7.1732    2.7535   25.4496 N.ar    1  UNL1       -0.2101
     22 C           5.7093    2.7319   25.1231 C.ar    1  UNL1        0.2264
     23 O           5.2281    2.0428   23.8806 O.3     1  UNL1       -0.4561
     24 C           5.3928    2.7044   22.5445 C.3     1  UNL1        0.2542
     25 C           4.4890   -1.2056   31.6921 C.2     1  UNL1        0.2414
     26 O           5.6134   -0.3589   31.1734 O.2     1  UNL1       -0.2733
     27 N           3.1345   -1.1273   31.0526 N.am    1  UNL1       -0.2682
     28 H           2.3965   -1.6830   31.3931 H       1  UNL1        0.1563
     29 C           4.7193   -2.1306   32.8503 C.3     1  UNL1        0.1319
     30 C           4.3105   -1.7171   34.2331 C.3     1  UNL1        0.0270
     31 C           6.7663   -3.5516   32.1151 C.3     1  UNL1        0.0862
     32 N           5.3583   -3.4689   32.6258 N.3     1  UNL1       -0.2902
     33 H           5.3406   -3.9576   33.5209 H       1  UNL1        0.1237
     34 C           3.1417   -0.2384   25.9331 C.1     1  UNL1       -0.0404
     35 C           3.3756   -0.7189   24.5315 C.1     1  UNL1       -0.0583
     36 C           3.6094   -1.1995   23.1299 C.ar    1  UNL1        0.0420
     37 C           4.1907   -2.5615   22.8912 C.ar    1  UNL1        0.0083
     38 C           4.4245   -3.0419   21.4897 C.ar    1  UNL1        0.0018
     39 C           4.0771   -2.1604   20.3268 C.ar    1  UNL1        0.0137
     40 C           4.3110   -2.6410   18.9252 C.ar    1  UNL1        0.0594
     41 C           4.8923   -4.0030   18.6865 C.3     1  UNL1        0.0521
     42 N           3.9636   -1.7594   17.7623 N.ar    1  UNL1       -0.2481
     43 C           3.3823   -0.3974   18.0011 C.ar    1  UNL1        0.0984
     44 C           3.1484    0.0831   19.4027 C.ar    1  UNL1        0.0207
     45 C           3.4959   -0.7984   20.5655 C.ar    1  UNL1        0.0033
     46 C           3.2620   -0.3179   21.9671 C.ar    1  UNL1        0.0083
@<TRIPOS>BOND
     1    31    32    1
     2    32    29    1
     3    29    30    1
     4    29    25    1
     5    25    26    2
     6    25    27   am
     7    27     1    1
     8     1     2   ar
     9     2     3   ar
    10     3     4   ar
    11     4     7    1
    12     7     8   ar
    13     8    17    1
    14    17    18   ar
    15    18    19   ar
    16    19    20   ar
    17    20    21   ar
    18    21    22   ar
    19    22    23    1
    20    23    24    1
    21     8     9   ar
    22     9    10   ar
    23    10    11   ar
    24    11    12   ar
    25    12    13    1
    26    12    14   ar
    27    14    15   ar
    28    15    16   ar
    29     4     5   ar
    30     5    34    1
    31    34    35    3
    32    35    36    1
    33    36    37   ar
    34    37    38   ar
    35    38    39   ar
    36    39    40   ar
    37    40    41    1
    38    40    42   ar
    39    42    43   ar
    40    43    44   ar
    41    44    45   ar
    42    45    46   ar
    43     5     6   ar
    44     6     1   ar
    45    16     7   ar
    46    46    36   ar
    47    22    17   ar
    48    16    10   ar
    49    45    39   ar
    50    32    33    1
    51    27    28    1
@<TRIPOS>MOLECULE
*****
 46 51 0 0 0
SMALL
GASTEIGER

@<TRIPOS>ATOM
      1 C          -3.2222    3.9741   21.8024 C.ar    1  UNL1        0.1348
      2 C          -2.7495    5.2302   22.4721 C.ar    1  UNL1        0.0346
      3 C          -1.3166    5.3603   22.8964 C.ar    1  UNL1        0.0065
      4 C          -0.3565    4.2343   22.6510 C.ar    1  UNL1        0.0432
      5 C          -0.8293    2.9782   21.9813 C.ar    1  UNL1        0.1256
      6 N          -2.2622    2.8480   21.5570 N.ar    1  UNL1       -0.2222
      7 C           1.0763    4.3644   23.0752 C.ar    1  UNL1        0.0851
      8 C           1.6533    3.9102   24.3832 C.ar    1  UNL1        0.1035
      9 N           3.1174    4.2367   24.3824 N.ar    1  UNL1       -0.2263
     10 C           3.4452    4.8926   23.0739 C.ar    1  UNL1        0.1475
     11 C           4.7294    5.4282   22.5136 C.ar    1  UNL1        0.0332
     12 C           4.7522    6.0427   21.1454 C.ar    1  UNL1       -0.0174
     13 C           6.0364    6.5783   20.5851 C.3     1  UNL1        0.0312
     14 C           3.4908    6.1217   20.3375 C.ar    1  UNL1        0.0149
     15 C           2.2066    5.5861   20.8978 C.ar    1  UNL1        0.0811
     16 N           2.1838    4.9715   22.2660 N.ar    1  UNL1       -0.2888
     17 C           0.8987    3.2462   25.4966 C.ar    1  UNL1        0.0723
     18 C          -0.1312    4.0167   26.2686 C.ar    1  UNL1        0.0078
     19 C          -0.8858    3.3527   27.3820 C.ar    1  UNL1        0.0209
     20 C          -0.6106    1.9182   27.7235 C.ar    1  UNL1        0.1021
     21 N           0.4192    1.1478   26.9515 N.ar    1  UNL1       -0.2101
     22 C           1.1738    1.8118   25.8381 C.ar    1  UNL1        0.2264
     23 O           2.2037    1.0413   25.0662 O.3     1  UNL1       -0.4561
     24 C           3.4184    0.5055   25.7643 C.3     1  UNL1        0.2542
     25 C          -5.1436    4.5630   20.1558 C.2     1  UNL1        0.2414
     26 O          -4.1992    5.4123   19.3576 O.2     1  UNL1       -0.2733
     27 N          -4.6551    3.8439   21.3782 N.am    1  UNL1       -0.2682
     28 H          -5.2749    3.2866   21.9020 H       1  UNL1        0.1563
     29 C          -6.5764    4.4329   19.7315 C.3     1  UNL1        0.1319
     30 C          -6.9580    3.4415   18.6724 C.3     1  UNL1        0.0270
     31 C          -7.3046    6.0871   21.5979 C.3     1  UNL1        0.0862
     32 N          -7.6278    5.2941   20.3663 N.3     1  UNL1       -0.2902
     33 H          -7.9292    5.9620   19.6568 H       1  UNL1        0.1237
     34 C           0.1308    1.8520   21.7358 C.1     1  UNL1       -0.0404
     35 C           1.0908    0.7260   21.4903 C.1     1  UNL1       -0.0583
     36 C           2.0509   -0.4001   21.2448 C.ar    1  UNL1        0.0420
     37 C           2.1521   -1.0155   19.8806 C.ar    1  UNL1        0.0083
     38 C           3.1121   -2.1416   19.6352 C.ar    1  UNL1        0.0018
     39 C           3.9710   -2.6522   20.7540 C.ar    1  UNL1        0.0137
     40 C           4.9311   -3.7783   20.5085 C.ar    1  UNL1        0.0594
     41 C           5.0323   -4.3937   19.1443 C.3     1  UNL1        0.0521
     42 N           5.7900   -4.2889   21.6272 N.ar    1  UNL1       -0.2481
     43 C           5.6888   -3.6734   22.9914 C.ar    1  UNL1        0.0984
     44 C           4.7288   -2.5474   23.2369 C.ar    1  UNL1        0.0207
     45 C           3.8699   -2.0368   22.1181 C.ar    1  UNL1        0.0033
     46 C           2.9098   -0.9107   22.3635 C.ar    1  UNL1        0.0083
@<TRIPOS>BOND
     1    31    32    1
     2    32    29    1
     3    29    30    1
     4    29    25    1
     5    25    26    2
     6    25    27   am
     7    27     1    1
     8     1     2   ar
     9     2     3   ar
    10     3     4   ar
    11     4     7    1
    12     7     8   ar
    13     8    17    1
    14    17    18   ar
    15    18    19   ar
    16    19    20   ar
    17    20    21   ar
    18    21    22   ar
    19    22    23    1
    20    23    24    1
    21     8     9   ar
    22     9    10   ar
    23    10    11   ar
    24    11    12   ar
    25    12    13    1
    26    12    14   ar
    27    14    15   ar
    28    15    16   ar
    29     4     5   ar
    30     5    34    1
    31    34    35    3
    32    35    36    1
    33    36    37   ar
    34    37    38   ar
    35    38    39   ar
    36    39    40   ar
    37    40    41    1
    38    40    42   ar
    39    42    43   ar
    40    43    44   ar
    41    44    45   ar
    42    45    46   ar
    43     5     6   ar
    44     6     1   ar
    45    16     7   ar
    46    46    36   ar
    47    22    17   ar
    48    16    10   ar
    49    45    39   ar
    50    32    33    1
    51    27    28    1
@<TRIPOS>MOLECULE
*****
 46 51 0 0 0
SMALL
GASTEIGER

@<TRIPOS>ATOM
      1 C           6.2770   -3.2937   24.9938 C.ar    1  UNL1        0.1348
      2 C           7.2558   -2.9858   23.8998 C.ar    1  UNL1        0.0346
      3 C           6.9984   -1.8431   22.9628 C.ar    1  UNL1        0.0065
      4 C           5.7621   -1.0084   23.1198 C.ar    1  UNL1        0.0432
      5 C           4.7832   -1.3163   24.2138 C.ar    1  UNL1        0.1256
      6 N           5.0406   -2.4590   25.1508 N.ar    1  UNL1       -0.2222
      7 C           5.5046    0.1343   22.1828 C.ar    1  UNL1        0.0851
      8 C           5.0567    0.0206   20.7557 C.ar    1  UNL1        0.1035
      9 N           4.9252    1.4074   20.1992 N.ar    1  UNL1       -0.2263
     10 C           5.2917    2.3781   21.2824 C.ar    1  UNL1        0.1475
     11 C           5.3456    3.8769   21.3109 C.ar    1  UNL1        0.0332
     12 C           5.7577    4.5888   22.5652 C.ar    1  UNL1       -0.0174
     13 C           5.8116    6.0876   22.5936 C.3     1  UNL1        0.0312
     14 C           6.1158    3.8021   23.7911 C.ar    1  UNL1        0.0149
     15 C           6.0619    2.3034   23.7626 C.ar    1  UNL1        0.0811
     16 N           5.6498    1.5913   22.5083 N.ar    1  UNL1       -0.2888
     17 C           4.7877   -1.2558   20.0151 C.ar    1  UNL1        0.0723
     18 C           5.8708   -1.8878   19.1918 C.ar    1  UNL1        0.0078
     19 C           5.6017   -3.1641   18.4512 C.ar    1  UNL1        0.0209
     20 C           4.2497   -3.8085   18.5338 C.ar    1  UNL1        0.1021
     21 N           3.1667   -3.1765   19.3570 N.ar    1  UNL1       -0.2101
     22 C           3.4358   -1.9002   20.0977 C.ar    1  UNL1        0.2264
     23 O           2.3527   -1.2682   20.9209 O.3     1  UNL1       -0.4561
     24 C           1.2280   -0.5388   20.2478 C.3     1  UNL1        0.2542
     25 C           7.3064   -4.2090   27.1966 C.2     1  UNL1        0.2414
     26 O           7.8209   -2.8389   27.5255 O.2     1  UNL1       -0.2733
     27 N           6.5344   -4.4364   25.9308 N.am    1  UNL1       -0.2682
     28 H           6.1967   -5.3357   25.7150 H       1  UNL1        0.1563
     29 C           7.5638   -5.3517   28.1336 C.3     1  UNL1        0.1319
     30 C           8.8389   -6.1350   28.0288 C.3     1  UNL1        0.0270
     31 C           6.9111   -5.6589   30.6295 C.3     1  UNL1        0.0862
     32 N           6.5464   -5.7112   29.1755 N.3     1  UNL1       -0.2902
     33 H           5.7570   -5.0780   29.0470 H       1  UNL1        0.1237
     34 C           3.5468   -0.4816   24.3708 C.1     1  UNL1       -0.0404
     35 C           2.3104    0.3531   24.5279 C.1     1  UNL1       -0.0583
     36 C           1.0740    1.1878   24.6849 C.ar    1  UNL1        0.0420
     37 C           0.3759    1.2521   26.0110 C.ar    1  UNL1        0.0083
     38 C          -0.8604    2.0868   26.1680 C.ar    1  UNL1        0.0018
     39 C          -1.3987    2.8572   24.9989 C.ar    1  UNL1        0.0137
     40 C          -2.6351    3.6919   25.1559 C.ar    1  UNL1        0.0594
     41 C          -3.3332    3.7562   26.4820 C.3     1  UNL1        0.0521
     42 N          -3.1733    4.4624   23.9869 N.ar    1  UNL1       -0.2481
     43 C          -2.4752    4.3980   22.6607 C.ar    1  UNL1        0.0984
     44 C          -1.2388    3.5633   22.5038 C.ar    1  UNL1        0.0207
     45 C          -0.7006    2.7929   23.6728 C.ar    1  UNL1        0.0033
     46 C           0.5357    1.9582   23.5158 C.ar    1  UNL1        0.0083
@<TRIPOS>BOND
     1    31    32    1
     2    32    29    1
     3    29    30    1
     4    29    25    1
     5    25    26    2
     6    25    27   am
     7    27     1    1
     8     1     2   ar
     9     2     3   ar
    10     3     4   ar
    11     4     7    1
    12     7     8   ar
    13     8    17    1
    14    17    18   ar
    15    18    19   ar
    16    19    20   ar
    17    20    21   ar
    18    21    22   ar
    19    22    23    1
    20    23    24    1
    21     8     9   ar
    22     9    10   ar
    23    10    11   ar
    24    11    12   ar
    25    12    13    1
    26    12    14   ar
    27    14    15   ar
    28    15    16   ar
    29     4     5   ar
    30     5    34    1
    31    34    35    3
    32    35    36    1
    33    36    37   ar
    34    37    38   ar
    35    38    39   ar
    36    39    40   ar
    37    40    41    1
    38    40    42   ar
    39    42    43   ar
    40    43    44   ar
    41    44    45   ar
    42    45    46   ar
    43     5     6   ar
    44     6     1   ar
    45    16     7   ar
    46    46    36   ar
    47    22    17   ar
    48    16    10   ar
    49    45    39   ar
    50    32    33    1
    51    27    28    1
@<TRIPOS>MOLECULE
*****
 46 51 0 0 0
SMALL
GASTEIGER

@<TRIPOS>ATOM
      1 C          -0.2105    1.8081   20.4952 C.ar    1  UNL1        0.1348
      2 C           0.2168    1.8000   19.0574 C.ar    1  UNL1        0.0346
      3 C           1.4829    1.1037   18.6551 C.ar    1  UNL1        0.0065
      4 C           2.3219    0.4153   19.6906 C.ar    1  UNL1        0.0432
      5 C           1.8947    0.4234   21.1284 C.ar    1  UNL1        0.1256
      6 N           0.6285    1.1198   21.5307 N.ar    1  UNL1       -0.2222
      7 C           3.5881   -0.2810   19.2883 C.ar    1  UNL1        0.0851
      8 C           4.8838    0.3835   18.9285 C.ar    1  UNL1        0.1035
      9 N           5.8774   -0.6890   18.5930 N.ar    1  UNL1       -0.2263
     10 C           5.1957   -2.0164   18.7455 C.ar    1  UNL1        0.1475
     11 C           5.6806   -3.4222   18.5486 C.ar    1  UNL1        0.0332
     12 C           4.7506   -4.5758   18.7814 C.ar    1  UNL1       -0.0174
     13 C           5.2354   -5.9815   18.5845 C.3     1  UNL1        0.0312
     14 C           3.3357   -4.3237   19.2111 C.ar    1  UNL1        0.0149
     15 C           2.8508   -2.9180   19.4080 C.ar    1  UNL1        0.0811
     16 N           3.7809   -1.7643   19.1752 N.ar    1  UNL1       -0.2888
     17 C           5.1408    1.8612   18.9077 C.ar    1  UNL1        0.0723
     18 C           5.0373    2.6225   17.6193 C.ar    1  UNL1        0.0078
     19 C           5.2944    4.1002   17.5986 C.ar    1  UNL1        0.0209
     20 C           5.6548    4.8166   18.8662 C.ar    1  UNL1        0.1021
     21 N           5.7582    4.0554   20.1545 N.ar    1  UNL1       -0.2101
     22 C           5.5012    2.5777   20.1752 C.ar    1  UNL1        0.2264
     23 O           5.6047    1.8165   21.4636 O.3     1  UNL1       -0.4561
     24 C           5.1358    2.4419   22.7439 C.3     1  UNL1        0.2542
     25 C          -1.4140    3.8315   21.5940 C.2     1  UNL1        0.2414
     26 O          -0.0852    4.4621   21.8882 O.2     1  UNL1       -0.2733
     27 N          -1.4766    2.5045   20.8975 N.am    1  UNL1       -0.2682
     28 H          -2.3488    2.0906   20.7044 H       1  UNL1        0.1563
     29 C          -2.6802    4.5278   21.9963 C.3     1  UNL1        0.1319
     30 C          -2.6327    5.6659   22.9723 C.3     1  UNL1        0.0270
     31 C          -4.8719    3.1470   22.1953 C.3     1  UNL1        0.0862
     32 N          -3.9939    4.0862   21.4226 N.3     1  UNL1       -0.2902
     33 H          -4.5411    4.9306   21.2557 H       1  UNL1        0.1237
     34 C           2.7336   -0.2650   22.1640 C.1     1  UNL1       -0.0404
     35 C           3.5725   -0.9533   23.1995 C.1     1  UNL1       -0.0583
     36 C           4.4115   -1.6417   24.2351 C.ar    1  UNL1        0.0420
     37 C           4.3412   -1.2053   25.6685 C.ar    1  UNL1        0.0083
     38 C           5.1801   -1.8936   26.7040 C.ar    1  UNL1        0.0018
     39 C           6.0893   -3.0183   26.3062 C.ar    1  UNL1        0.0137
     40 C           6.9283   -3.7067   27.3418 C.ar    1  UNL1        0.0594
     41 C           6.8580   -3.2703   28.7751 C.3     1  UNL1        0.0521
     42 N           7.8375   -4.8314   26.9439 N.ar    1  UNL1       -0.2481
     43 C           7.9078   -5.2678   25.5105 C.ar    1  UNL1        0.0984
     44 C           7.0689   -4.5794   24.4750 C.ar    1  UNL1        0.0207
     45 C           6.1597   -3.4547   24.8728 C.ar    1  UNL1        0.0033
     46 C           5.3207   -2.7664   23.8373 C.ar    1  UNL1        0.0083
@<TRIPOS>BOND
     1    31    32    1
     2    32    29    1
     3    29    30    1
     4    29    25    1
     5    25    26    2
     6    25    27   am
     7    27     1    1
     8     1     2   ar
     9     2     3   ar
    10     3     4   ar
    11     4     7    1
    12     7     8   ar
    13     8    17    1
    14    17    18   ar
    15    18    19   ar
    16    19    20   ar
    17    20    21   ar
    18    21    22   ar
    19    22    23    1
    20    23    24    1
    21     8     9   ar
    22     9    10   ar
    23    10    11   ar
    24    11    12   ar
    25    12    13    1
    26    12    14   ar
    27    14    15   ar
    28    15    16   ar
    29     4     5   ar
    30     5    34    1
    31    34    35    3
    32    35    36    1
    33    36    37   ar
    34    37    38   ar
    35    38    39   ar
    36    39    40   ar
    37    40    41    1
    38    40    42   ar
    39    42    43   ar
    40    43    44   ar
    41    44    45   ar
    42    45    46   ar
    43     5     6   ar
    44     6     1   ar
    45    16     7   ar
    46    46    36   ar
    47    22    17   ar
    48    16    10   ar
    49    45    39   ar
    50    32    33    1
    51    27    28    1
@<TRIPOS>MOLECULE
*****
 46 51 0 0 0
SMALL
GASTEIGER

@<TRIPOS>ATOM
      1 C          -2.9101    3.9016   20.6705 C.ar    1  UNL1        0.1348
      2 C          -2.9151    4.9029   21.7872 C.ar    1  UNL1        0.0346
      3 C          -1.8753    4.8287   22.8658 C.ar    1  UNL1        0.0065
      4 C          -0.8306    3.7531   22.8277 C.ar    1  UNL1        0.0432
      5 C          -0.8256    2.7517   21.7109 C.ar    1  UNL1        0.1256
      6 N          -1.8654    2.8259   20.6323 N.ar    1  UNL1       -0.2222
      7 C           0.2092    3.6788   23.9063 C.ar    1  UNL1        0.0851
      8 C           1.6048    4.2225   23.8245 C.ar    1  UNL1        0.1035
      9 N           2.2941    3.9275   25.1237 N.ar    1  UNL1       -0.2263
     10 C           1.3244    3.2016   26.0085 C.ar    1  UNL1        0.1475
     11 C           1.4483    2.6606   27.4020 C.ar    1  UNL1        0.0332
     12 C           0.2837    1.9660   28.0432 C.ar    1  UNL1       -0.0174
     13 C           0.4076    1.4250   29.4367 C.3     1  UNL1        0.0312
     14 C          -1.0049    1.8122   27.2908 C.ar    1  UNL1        0.0149
     15 C          -1.1288    2.3532   25.8972 C.ar    1  UNL1        0.0811
     16 N           0.0359    3.0479   25.2560 N.ar    1  UNL1       -0.2888
     17 C           2.2057    4.9359   22.6497 C.ar    1  UNL1        0.0723
     18 C           1.7597    6.3269   22.3086 C.ar    1  UNL1        0.0078
     19 C           2.3606    7.0403   21.1339 C.ar    1  UNL1        0.0209
     20 C           3.4074    6.3627   20.3002 C.ar    1  UNL1        0.1021
     21 N           3.8534    4.9718   20.6413 N.ar    1  UNL1       -0.2101
     22 C           3.2525    4.2584   21.8161 C.ar    1  UNL1        0.2264
     23 O           3.6986    2.8674   22.1571 O.3     1  UNL1       -0.4561
     24 C           5.0391    2.6442   22.7920 C.3     1  UNL1        0.2542
     25 C          -3.8131    4.9800   18.4861 C.2     1  UNL1        0.2414
     26 O          -2.6364    5.9099   18.4588 O.2     1  UNL1       -0.2733
     27 N          -3.9499    3.9758   19.5919 N.am    1  UNL1       -0.2682
     28 H          -4.7222    3.3654   19.6098 H       1  UNL1        0.1563
     29 C          -4.8529    5.0542   17.4075 C.3     1  UNL1        0.1319
     30 C          -4.6123    4.3854   16.0865 C.3     1  UNL1        0.0270
     31 C          -6.5386    6.1565   19.0486 C.3     1  UNL1        0.0862
     32 N          -6.1331    5.7972   17.6498 N.3     1  UNL1       -0.2902
     33 H          -6.0696    6.6713   17.1280 H       1  UNL1        0.1237
     34 C           0.2192    1.6760   21.6727 C.1     1  UNL1       -0.0404
     35 C           1.2639    0.6003   21.6346 C.1     1  UNL1       -0.0583
     36 C           2.3087   -0.4754   21.5964 C.ar    1  UNL1        0.0420
     37 C           3.1132   -0.7834   22.8243 C.ar    1  UNL1        0.0083
     38 C           4.1579   -1.8590   22.7860 C.ar    1  UNL1        0.0018
     39 C           4.3981   -2.6267   21.5199 C.ar    1  UNL1        0.0137
     40 C           5.4429   -3.7024   21.4817 C.ar    1  UNL1        0.0594
     41 C           6.2474   -4.0104   22.7096 C.3     1  UNL1        0.0521
     42 N           5.6830   -4.4700   20.2156 N.ar    1  UNL1       -0.2481
     43 C           4.8784   -4.1619   18.9876 C.ar    1  UNL1        0.0984
     44 C           3.8337   -3.0862   19.0259 C.ar    1  UNL1        0.0207
     45 C           3.5935   -2.3186   20.2920 C.ar    1  UNL1        0.0033
     46 C           2.5488   -1.2430   20.3303 C.ar    1  UNL1        0.0083
@<TRIPOS>BOND
     1    31    32    1
     2    32    29    1
     3    29    30    1
     4    29    25    1
     5    25    26    2
     6    25    27   am
     7    27     1    1
     8     1     2   ar
     9     2     3   ar
    10     3     4   ar
    11     4     7    1
    12     7     8   ar
    13     8    17    1
    14    17    18   ar
    15    18    19   ar
    16    19    20   ar
    17    20    21   ar
    18    21    22   ar
    19    22    23    1
    20    23    24    1
    21     8     9   ar
    22     9    10   ar
    23    10    11   ar
    24    11    12   ar
    25    12    13    1
    26    12    14   ar
    27    14    15   ar
    28    15    16   ar
    29     4     5   ar
    30     5    34    1
    31    34    35    3
    32    35    36    1
    33    36    37   ar
    34    37    38   ar
    35    38    39   ar
    36    39    40   ar
    37    40    41    1
    38    40    42   ar
    39    42    43   ar
    40    43    44   ar
    41    44    45   ar
    42    45    46   ar
    43     5     6   ar
    44     6     1   ar
    45    16     7   ar
    46    46    36   ar
    47    22    17   ar
    48    16    10   ar
    49    45    39   ar
    50    32    33    1
    51    27    28    1
@<TRIPOS>MOLECULE
*****
 46 51 0 0 0
SMALL
GASTEIGER

@<TRIPOS>ATOM
      1 C           6.9857   -3.1976   26.7871 C.ar    1  UNL1        0.1348
      2 C           7.8819   -2.6633   27.8647 C.ar    1  UNL1        0.0346
      3 C           7.5339   -1.3821   28.5629 C.ar    1  UNL1        0.0065
      4 C           6.2896   -0.6353   28.1835 C.ar    1  UNL1        0.0432
      5 C           5.3934   -1.1697   27.1059 C.ar    1  UNL1        0.1256
      6 N           5.7414   -2.4508   26.4077 N.ar    1  UNL1       -0.2222
      7 C           5.9415    0.6459   28.8816 C.ar    1  UNL1        0.0851
      8 C           5.4610    0.7766   30.2966 C.ar    1  UNL1        0.1035
      9 N           5.2354    2.2328   30.5769 N.ar    1  UNL1       -0.2263
     10 C           5.5764    3.0021   29.3352 C.ar    1  UNL1        0.1475
     11 C           5.5459    4.4690   29.0231 C.ar    1  UNL1        0.0332
     12 C           5.9518    4.9550   27.6634 C.ar    1  UNL1       -0.0174
     13 C           5.9213    6.4219   27.3513 C.3     1  UNL1        0.0312
     14 C           6.3883    3.9743   26.6156 C.ar    1  UNL1        0.0149
     15 C           6.4187    2.5075   26.9276 C.ar    1  UNL1        0.0811
     16 N           6.0128    2.0213   28.2875 N.ar    1  UNL1       -0.2888
     17 C           5.2442   -0.3510   31.2618 C.ar    1  UNL1        0.0723
     18 C           6.4203   -1.0915   31.8264 C.ar    1  UNL1        0.0078
     19 C           6.2035   -2.2191   32.7916 C.ar    1  UNL1        0.0209
     20 C           4.8108   -2.6061   33.1923 C.ar    1  UNL1        0.1021
     21 N           3.6348   -1.8656   32.6277 N.ar    1  UNL1       -0.2101
     22 C           3.8516   -0.7380   31.6625 C.ar    1  UNL1        0.2264
     23 O           2.6755    0.0024   31.0979 O.3     1  UNL1       -0.4561
     24 C           2.0307   -0.4702   29.8288 C.3     1  UNL1        0.2542
     25 C           7.0221   -5.7950   26.7374 C.2     1  UNL1        0.2414
     26 O           6.3622   -5.8300   28.0841 O.2     1  UNL1       -0.2733
     27 N           7.3338   -4.4788   26.0890 N.am    1  UNL1       -0.2682
     28 H           7.7668   -4.4558   25.2051 H       1  UNL1        0.1563
     29 C           7.3701   -7.0761   26.0392 C.3     1  UNL1        0.1319
     30 C           7.9815   -7.0419   24.6698 C.3     1  UNL1        0.0270
     31 C           8.1902   -9.0577   27.5058 C.3     1  UNL1        0.0862
     32 N           7.1069   -8.3915   26.7104 N.3     1  UNL1       -0.2902
     33 H           6.3222   -8.2461   27.3456 H       1  UNL1        0.1237
     34 C           4.1490   -0.4229   26.7264 C.1     1  UNL1       -0.0404
     35 C           2.9047    0.3239   26.3470 C.1     1  UNL1       -0.0583
     36 C           1.6603    1.0707   25.9675 C.ar    1  UNL1        0.0420
     37 C           0.6501    1.4272   27.0174 C.ar    1  UNL1        0.0083
     38 C          -0.5942    2.1740   26.6379 C.ar    1  UNL1        0.0018
     39 C          -0.8283    2.5642   25.2086 C.ar    1  UNL1        0.0137
     40 C          -2.0726    3.3110   24.8291 C.ar    1  UNL1        0.0594
     41 C          -3.0829    3.6676   25.8790 C.3     1  UNL1        0.0521
     42 N          -2.3067    3.7012   23.3998 N.ar    1  UNL1       -0.2481
     43 C          -1.2963    3.3446   22.3499 C.ar    1  UNL1        0.0984
     44 C          -0.0521    2.5978   22.7294 C.ar    1  UNL1        0.0207
     45 C           0.1820    2.2076   24.1587 C.ar    1  UNL1        0.0033
     46 C           1.4263    1.4609   24.5382 C.ar    1  UNL1        0.0083
@<TRIPOS>BOND
     1    31    32    1
     2    32    29    1
     3    29    30    1
     4    29    25    1
     5    25    26    2
     6    25    27   am
     7    27     1    1
     8     1     2   ar
     9     2     3   ar
    10     3     4   ar
    11     4     7    1
    12     7     8   ar
    13     8    17    1
    14    17    18   ar
    15    18    19   ar
    16    19    20   ar
    17    20    21   ar
    18    21    22   ar
    19    22    23    1
    20    23    24    1
    21     8     9   ar
    22     9    10   ar
    23    10    11   ar
    24    11    12   ar
    25    12    13    1
    26    12    14   ar
    27    14    15   ar
    28    15    16   ar
    29     4     5   ar
    30     5    34    1
    31    34    35    3
    32    35    36    1
    33    36    37   ar
    34    37    38   ar
    35    38    39   ar
    36    39    40   ar
    37    40    41    1
    38    40    42   ar
    39    42    43   ar
    40    43    44   ar
    41    44    45   ar
    42    45    46   ar
    43     5     6   ar
    44     6     1   ar
    45    16     7   ar
    46    46    36   ar
    47    22    17   ar
    48    16    10   ar
    49    45    39   ar
    50    32    33    1
    51    27    28    1
