@<TRIPOS>MOLECULE
*****
 34 36 0 0 0
SMALL
GASTEIGER

@<TRIPOS>ATOM
      1 C           6.9282   -5.0934   29.2438 C.ar    1  UNL1        0.0696
      2 C           7.0206   -5.5178   30.6795 C.ar    1  UNL1        0.0057
      3 C           6.8970   -4.4979   31.7725 C.ar    1  UNL1       -0.0041
      4 C           6.6812   -3.0537   31.4298 C.ar    1  UNL1       -0.0185
      5 C           6.5888   -2.6293   29.9941 C.ar    1  UNL1        0.0677
      6 C           6.7123   -3.6491   28.9011 C.ar    1  UNL1        0.0095
      7 C           6.5576   -2.0338   32.5228 C.3     1  UNL1        0.0257
      8 C           5.2050   -1.6683   33.0582 C.3     1  UNL1        0.0259
      9 C           5.0815   -0.6485   34.1512 C.3     1  UNL1        0.0940
     10 N           6.3106    0.0059   34.7088 N.am    1  UNL1       -0.2761
     11 C           6.1871    1.0258   35.8018 C.2     1  UNL1        0.2491
     12 O           7.4162    1.6801   36.3594 O.2     1  UNL1       -0.2699
     13 C           7.6633   -0.3596   34.1734 C.3     1  UNL1        0.0940
     14 C           7.7868   -1.3794   33.0804 C.3     1  UNL1        0.0259
     15 C           4.8344    1.3912   36.3372 C.ar    1  UNL1        0.0567
     16 C           4.0183    2.4487   35.6547 C.ar    1  UNL1        0.0252
     17 C           2.6656    2.8141   36.1901 C.ar    1  UNL1        0.0990
     18 N           2.1291    2.1222   37.4080 N.ar    1  UNL1       -0.2423
     19 C           2.9451    1.0648   38.0905 C.ar    1  UNL1        0.0990
     20 C           4.2979    0.6993   37.5551 C.ar    1  UNL1        0.0252
     21 N           7.8593   -7.3574   28.3737 N.am    1  UNL1       -0.1708
     22 C           7.0517   -6.1132   28.1508 C.2     1  UNL1        0.3078
     23 O           6.3676   -5.8889   26.8349 O.2     1  UNL1       -0.2516
     24 H           8.3083   -7.5047   29.2374 H       1  UNL1        0.2545
     25 N           7.5190   -9.7848   27.5123 N.pl3   1  UNL1       -0.1313
     26 C           7.9828   -8.3773   27.2807 C.2     1  UNL1        0.3751
     27 N           8.5702   -7.9895   25.9560 N.pl3   1  UNL1       -0.2906
     28 H           7.6001  -10.4541   26.7949 H       1  UNL1        0.3060
     29 H           8.6513   -8.6589   25.2386 H       1  UNL1        0.2545
     30 H           8.8746   -7.0657   25.8040 H       1  UNL1        0.2545
     31 C           6.3729   -1.1849   29.6513 C.3     1  UNL1        0.4183
     32 F           6.1571    0.2593   29.3085 F       1  UNL1       -0.1659
     33 F           4.8888   -1.4017   29.6726 F       1  UNL1       -0.1659
     34 F           7.8570   -0.9682   29.6300 F       1  UNL1       -0.1659
@<TRIPOS>BOND
     1    25    26    2
     2    26    27    1
     3    26    21    1
     4    21    22   am
     5    22    23    2
     6    22     1    1
     7     1     2   ar
     8     2     3   ar
     9     3     4   ar
    10     4     7    1
    11     7     8    1
    12     8     9    1
    13     9    10    1
    14    10    11   am
    15    11    12    2
    16    11    15    1
    17    15    16   ar
    18    16    17   ar
    19    17    18   ar
    20    18    19   ar
    21    19    20   ar
    22    10    13    1
    23    13    14    1
    24     4     5   ar
    25     5    31    1
    26    31    32    1
    27    31    33    1
    28    31    34    1
    29     5     6   ar
    30     6     1   ar
    31    14     7    1
    32    20    15   ar
    33    25    28    1
    34    27    29    1
    35    27    30    1
    36    21    24    1
@<TRIPOS>MOLECULE
*****
 34 36 0 0 0
SMALL
GASTEIGER

@<TRIPOS>ATOM
      1 C           1.9423   -0.0180   20.2895 C.ar    1  UNL1        0.0696
      2 C           2.4869    0.1972   21.6704 C.ar    1  UNL1        0.0057
      3 C           3.5541   -0.7109   22.2058 C.ar    1  UNL1       -0.0041
      4 C           4.0765   -1.8342   21.3602 C.ar    1  UNL1       -0.0185
      5 C           3.5319   -2.0495   19.9793 C.ar    1  UNL1        0.0677
      6 C           2.4648   -1.1414   19.4439 C.ar    1  UNL1        0.0095
      7 C           5.1437   -2.7423   21.8955 C.3     1  UNL1        0.0257
      8 C           5.0205   -3.3109   23.2781 C.3     1  UNL1        0.0259
      9 C           6.0876   -4.2190   23.8134 C.3     1  UNL1        0.0940
     10 N           7.2779   -4.5585   22.9662 N.am    1  UNL1       -0.2761
     11 C           8.3451   -5.4666   23.5015 C.2     1  UNL1        0.2491
     12 O           9.5354   -5.8062   22.6543 O.2     1  UNL1       -0.2699
     13 C           7.4011   -3.9900   21.5836 C.3     1  UNL1        0.0940
     14 C           6.3340   -3.0819   21.0483 C.3     1  UNL1        0.0259
     15 C           8.2219   -6.0352   24.8841 C.ar    1  UNL1        0.0567
     16 C           7.8511   -7.4765   25.0720 C.ar    1  UNL1        0.0252
     17 C           7.7279   -8.0450   26.4546 C.ar    1  UNL1        0.0990
     18 N           7.9755   -7.1724   27.6492 N.ar    1  UNL1       -0.2423
     19 C           8.3463   -5.7312   27.4613 C.ar    1  UNL1        0.0990
     20 C           8.4695   -5.1625   26.0787 C.ar    1  UNL1        0.0252
     21 N           0.0882    1.7569   20.6918 N.am    1  UNL1       -0.1708
     22 C           0.8751    0.8901   19.7542 C.2     1  UNL1        0.3078
     23 O           0.5950    0.9314   18.2812 O.2     1  UNL1       -0.2516
     24 H           0.2721    1.7299   21.6586 H       1  UNL1        0.2545
     25 N          -0.6958    3.5365   18.9689 N.pl3   1  UNL1       -0.1313
     26 C          -0.9789    2.6650   20.1565 C.2     1  UNL1        0.3751
     27 N          -2.3292    2.7017   20.8088 N.pl3   1  UNL1       -0.2906
     28 H          -1.3962    4.1325   18.6176 H       1  UNL1        0.3060
     29 H          -3.0296    3.2977   20.4575 H       1  UNL1        0.2545
     30 H          -2.5150    2.1297   21.5883 H       1  UNL1        0.2545
     31 C           4.0544   -3.1728   19.1336 C.3     1  UNL1        0.4183
     32 F           4.5768   -4.2961   18.2880 F       1  UNL1       -0.1659
     33 F           3.2130   -4.1454   19.9057 F       1  UNL1       -0.1659
     34 F           4.8957   -2.2003   18.3615 F       1  UNL1       -0.1659
@<TRIPOS>BOND
     1    25    26    2
     2    26    27    1
     3    26    21    1
     4    21    22   am
     5    22    23    2
     6    22     1    1
     7     1     2   ar
     8     2     3   ar
     9     3     4   ar
    10     4     7    1
    11     7     8    1
    12     8     9    1
    13     9    10    1
    14    10    11   am
    15    11    12    2
    16    11    15    1
    17    15    16   ar
    18    16    17   ar
    19    17    18   ar
    20    18    19   ar
    21    19    20   ar
    22    10    13    1
    23    13    14    1
    24     4     5   ar
    25     5    31    1
    26    31    32    1
    27    31    33    1
    28    31    34    1
    29     5     6   ar
    30     6     1   ar
    31    14     7    1
    32    20    15   ar
    33    25    28    1
    34    27    29    1
    35    27    30    1
    36    21    24    1
@<TRIPOS>MOLECULE
*****
 34 36 0 0 0
SMALL
GASTEIGER

@<TRIPOS>ATOM
      1 C           6.7738   -2.6570   32.2512 C.ar    1  UNL1        0.0696
      2 C           5.3168   -2.7493   32.5955 C.ar    1  UNL1        0.0057
      3 C           4.7134   -1.7808   33.5691 C.ar    1  UNL1       -0.0041
      4 C           5.5670   -0.7201   34.1984 C.ar    1  UNL1       -0.0185
      5 C           7.0240   -0.6278   33.8541 C.ar    1  UNL1        0.0677
      6 C           7.6274   -1.5963   32.8805 C.ar    1  UNL1        0.0095
      7 C           4.9636    0.2484   35.1721 C.3     1  UNL1        0.0257
      8 C           4.4478    1.5722   34.6911 C.3     1  UNL1        0.0259
      9 C           3.8444    2.5407   35.6647 C.3     1  UNL1        0.0940
     10 N           3.7568    2.1854   37.1194 N.am    1  UNL1       -0.2761
     11 C           3.1535    3.1538   38.0930 C.2     1  UNL1        0.2491
     12 O           3.0659    2.7985   39.5476 O.2     1  UNL1       -0.2699
     13 C           4.2727    0.8616   37.6004 C.3     1  UNL1        0.0940
     14 C           4.8761   -0.1069   36.6267 C.3     1  UNL1        0.0259
     15 C           2.6376    4.4776   37.6120 C.ar    1  UNL1        0.0567
     16 C           1.2721    4.5724   36.9983 C.ar    1  UNL1        0.0252
     17 C           0.7563    5.8962   36.5173 C.ar    1  UNL1        0.0990
     18 N           1.6059    7.1253   36.6499 N.ar    1  UNL1       -0.2423
     19 C           2.9713    7.0306   37.2636 C.ar    1  UNL1        0.0990
     20 C           3.4872    5.7067   37.7446 C.ar    1  UNL1        0.0252
     21 N           6.5611   -4.7707   30.7555 N.am    1  UNL1       -0.1708
     22 C           7.3771   -3.6255   31.2775 C.2     1  UNL1        0.3078
     23 O           8.7966   -3.4488   30.8259 O.2     1  UNL1       -0.2516
     24 H           5.6295   -4.8867   31.0519 H       1  UNL1        0.2545
     25 N           8.4199   -6.4781   30.1394 N.pl3   1  UNL1       -0.1313
     26 C           7.1645   -5.7392   29.7819 C.2     1  UNL1        0.3751
     27 N           6.5124   -5.9687   28.4506 N.pl3   1  UNL1       -0.2906
     28 H           8.8159   -7.1138   29.5004 H       1  UNL1        0.3060
     29 H           6.9084   -6.6044   27.8116 H       1  UNL1        0.2545
     30 H           5.6884   -5.4837   28.2159 H       1  UNL1        0.2545
     31 C           7.8777    0.4330   34.4835 C.3     1  UNL1        0.4183
     32 F           8.7313    1.4937   35.1128 F       1  UNL1       -0.1659
     33 F           7.5635    1.3602   33.3470 F       1  UNL1       -0.1659
     34 F           8.1919   -0.4942   35.6199 F       1  UNL1       -0.1659
@<TRIPOS>BOND
     1    25    26    2
     2    26    27    1
     3    26    21    1
     4    21    22   am
     5    22    23    2
     6    22     1    1
     7     1     2   ar
     8     2     3   ar
     9     3     4   ar
    10     4     7    1
    11     7     8    1
    12     8     9    1
    13     9    10    1
    14    10    11   am
    15    11    12    2
    16    11    15    1
    17    15    16   ar
    18    16    17   ar
    19    17    18   ar
    20    18    19   ar
    21    19    20   ar
    22    10    13    1
    23    13    14    1
    24     4     5   ar
    25     5    31    1
    26    31    32    1
    27    31    33    1
    28    31    34    1
    29     5     6   ar
    30     6     1   ar
    31    14     7    1
    32    20    15   ar
    33    25    28    1
    34    27    29    1
    35    27    30    1
    36    21    24    1
@<TRIPOS>MOLECULE
*****
 34 36 0 0 0
SMALL
GASTEIGER

@<TRIPOS>ATOM
      1 C           2.4154   -0.0637   18.8921 C.ar    1  UNL1        0.0696
      2 C           1.7010   -0.5692   20.1103 C.ar    1  UNL1        0.0057
      3 C           0.7205    0.3129   20.8248 C.ar    1  UNL1       -0.0041
      4 C           0.4544    1.7005   20.3211 C.ar    1  UNL1       -0.0185
      5 C           1.1688    2.2060   19.1029 C.ar    1  UNL1        0.0677
      6 C           2.1493    1.3239   18.3884 C.ar    1  UNL1        0.0095
      7 C          -0.5261    2.5826   21.0356 C.3     1  UNL1        0.0257
      8 C          -1.9415    2.6791   20.5486 C.3     1  UNL1        0.0259
      9 C          -2.9220    3.5612   21.2631 C.3     1  UNL1        0.0940
     10 N          -2.4871    4.3468   22.4646 N.am    1  UNL1       -0.2761
     11 C          -3.4676    5.2289   23.1791 C.2     1  UNL1        0.2491
     12 O          -3.0327    6.0145   24.3806 O.2     1  UNL1       -0.2699
     13 C          -1.0717    4.2503   22.9516 C.3     1  UNL1        0.0940
     14 C          -0.0912    3.3682   22.2371 C.3     1  UNL1        0.0259
     15 C          -4.8831    5.3254   22.6921 C.ar    1  UNL1        0.0567
     16 C          -5.2581    6.3652   21.6780 C.ar    1  UNL1        0.0252
     17 C          -6.6735    6.4617   21.1910 C.ar    1  UNL1        0.0990
     18 N          -7.7140    5.5185   21.7180 N.ar    1  UNL1       -0.2423
     19 C          -7.3390    4.4787   22.7320 C.ar    1  UNL1        0.0990
     20 C          -5.9235    4.3822   23.2191 C.ar    1  UNL1        0.0252
     21 N           4.1948   -1.9559   18.9465 N.am    1  UNL1       -0.1708
     22 C           3.3959   -0.9458   18.1776 C.2     1  UNL1        0.3078
     23 O           3.5775   -0.8177   16.6941 O.2     1  UNL1       -0.2516
     24 H           4.0757   -2.0400   19.9201 H       1  UNL1        0.2545
     25 N           6.3261   -2.2302   17.4862 N.pl3   1  UNL1       -0.1313
     26 C           5.1753   -2.8380   18.2320 C.2     1  UNL1        0.3751
     27 N           5.0050   -4.3280   18.2632 N.pl3   1  UNL1       -0.2906
     28 H           6.9696   -2.8091   17.0173 H       1  UNL1        0.3060
     29 H           5.6486   -4.9070   17.7943 H       1  UNL1        0.2545
     30 H           4.2497   -4.7270   18.7527 H       1  UNL1        0.2545
     31 C           0.9027    3.5936   18.5991 C.3     1  UNL1        0.4183
     32 F           0.6366    4.9812   18.0954 F       1  UNL1       -0.1659
     33 F          -0.1718    3.0606   17.6983 F       1  UNL1       -0.1659
     34 F           1.9771    4.1266   19.4998 F       1  UNL1       -0.1659
@<TRIPOS>BOND
     1    25    26    2
     2    26    27    1
     3    26    21    1
     4    21    22   am
     5    22    23    2
     6    22     1    1
     7     1     2   ar
     8     2     3   ar
     9     3     4   ar
    10     4     7    1
    11     7     8    1
    12     8     9    1
    13     9    10    1
    14    10    11   am
    15    11    12    2
    16    11    15    1
    17    15    16   ar
    18    16    17   ar
    19    17    18   ar
    20    18    19   ar
    21    19    20   ar
    22    10    13    1
    23    13    14    1
    24     4     5   ar
    25     5    31    1
    26    31    32    1
    27    31    33    1
    28    31    34    1
    29     5     6   ar
    30     6     1   ar
    31    14     7    1
    32    20    15   ar
    33    25    28    1
    34    27    29    1
    35    27    30    1
    36    21    24    1
@<TRIPOS>MOLECULE
*****
 34 36 0 0 0
SMALL
GASTEIGER

@<TRIPOS>ATOM
      1 C           4.3930   -2.2002   22.8158 C.ar    1  UNL1        0.0696
      2 C           3.6809   -1.3568   23.8314 C.ar    1  UNL1        0.0057
      3 C           2.7761   -0.2475   23.3835 C.ar    1  UNL1       -0.0041
      4 C           2.5834    0.0184   21.9199 C.ar    1  UNL1       -0.0185
      5 C           3.2954   -0.8250   20.9043 C.ar    1  UNL1        0.0677
      6 C           4.2003   -1.9343   21.3522 C.ar    1  UNL1        0.0095
      7 C           1.6785    1.1278   21.4719 C.3     1  UNL1        0.0257
      8 C           0.3183    0.8114   20.9246 C.3     1  UNL1        0.0259
      9 C          -0.5865    1.9207   20.4767 C.3     1  UNL1        0.0940
     10 N          -0.1311    3.3464   20.5760 N.am    1  UNL1       -0.2761
     11 C          -1.0359    4.4558   20.1281 C.2     1  UNL1        0.2491
     12 O          -0.5805    5.8815   20.2274 O.2     1  UNL1       -0.2699
     13 C           1.2291    3.6628   21.1233 C.3     1  UNL1        0.0940
     14 C           2.1340    2.5535   21.5713 C.3     1  UNL1        0.0259
     15 C          -2.3962    4.1394   19.5808 C.ar    1  UNL1        0.0567
     16 C          -2.6267    4.1386   18.0985 C.ar    1  UNL1        0.0252
     17 C          -3.9869    3.8223   17.5512 C.ar    1  UNL1        0.0990
     18 N          -5.1167    3.5067   18.4861 N.ar    1  UNL1       -0.2423
     19 C          -4.8863    3.5075   19.9683 C.ar    1  UNL1        0.0990
     20 C          -3.5260    3.8239   20.5156 C.ar    1  UNL1        0.0252
     21 N           5.7366   -3.3875   24.6960 N.am    1  UNL1       -0.1708
     22 C           5.2978   -3.3096   23.2638 C.2     1  UNL1        0.3078
     23 O           5.7639   -4.3410   22.2795 O.2     1  UNL1       -0.2516
     24 H           5.4307   -2.7105   25.3421 H       1  UNL1        0.2545
     25 N           7.7566   -4.9605   24.2545 N.pl3   1  UNL1       -0.1313
     26 C           6.6414   -4.4968   25.1440 C.2     1  UNL1        0.3751
     27 N           6.4309   -5.1425   26.4815 N.pl3   1  UNL1       -0.2906
     28 H           8.3505   -5.6886   24.5485 H       1  UNL1        0.3060
     29 H           7.0248   -5.8706   26.7755 H       1  UNL1        0.2545
     30 H           5.6990   -4.8382   27.0653 H       1  UNL1        0.2545
     31 C           3.1027   -0.5591   19.4406 C.3     1  UNL1        0.4183
     32 F           2.9100   -0.2933   17.9770 F       1  UNL1       -0.1659
     33 F           4.2186    0.4426   19.4756 F       1  UNL1       -0.1659
     34 F           1.9868   -1.5608   19.4056 F       1  UNL1       -0.1659
@<TRIPOS>BOND
     1    25    26    2
     2    26    27    1
     3    26    21    1
     4    21    22   am
     5    22    23    2
     6    22     1    1
     7     1     2   ar
     8     2     3   ar
     9     3     4   ar
    10     4     7    1
    11     7     8    1
    12     8     9    1
    13     9    10    1
    14    10    11   am
    15    11    12    2
    16    11    15    1
    17    15    16   ar
    18    16    17   ar
    19    17    18   ar
    20    18    19   ar
    21    19    20   ar
    22    10    13    1
    23    13    14    1
    24     4     5   ar
    25     5    31    1
    26    31    32    1
    27    31    33    1
    28    31    34    1
    29     5     6   ar
    30     6     1   ar
    31    14     7    1
    32    20    15   ar
    33    25    28    1
    34    27    29    1
    35    27    30    1
    36    21    24    1
@<TRIPOS>MOLECULE
*****
 34 36 0 0 0
SMALL
GASTEIGER

@<TRIPOS>ATOM
      1 C           3.1581   -0.1815   29.8551 C.ar    1  UNL1        0.0696
      2 C           3.7352    0.7696   28.8490 C.ar    1  UNL1        0.0057
      3 C           2.8247    1.5861   27.9805 C.ar    1  UNL1       -0.0041
      4 C           1.3372    1.4516   28.1181 C.ar    1  UNL1       -0.0185
      5 C           0.7600    0.5005   29.1242 C.ar    1  UNL1        0.0677
      6 C           1.6705   -0.3160   29.9927 C.ar    1  UNL1        0.0095
      7 C           0.4267    2.2682   27.2496 C.3     1  UNL1        0.0257
      8 C          -0.1387    1.6778   25.9919 C.3     1  UNL1        0.0259
      9 C          -1.0492    2.4944   25.1234 C.3     1  UNL1        0.0940
     10 N          -1.3942    3.9013   25.5126 N.am    1  UNL1       -0.2761
     11 C          -2.3046    4.7179   24.6441 C.2     1  UNL1        0.2491
     12 O          -2.6497    6.1248   25.0332 O.2     1  UNL1       -0.2699
     13 C          -0.8288    4.4917   26.7702 C.3     1  UNL1        0.0940
     14 C           0.0817    3.6751   27.6387 C.3     1  UNL1        0.0259
     15 C          -2.8701    4.1276   23.3864 C.ar    1  UNL1        0.0567
     16 C          -2.0610    4.1379   22.1233 C.ar    1  UNL1        0.0252
     17 C          -2.6265    3.5476   20.8656 C.ar    1  UNL1        0.0990
     18 N          -4.0009    2.9468   20.8710 N.ar    1  UNL1       -0.2423
     19 C          -4.8099    2.9364   22.1341 C.ar    1  UNL1        0.0990
     20 C          -4.2445    3.5268   23.3918 C.ar    1  UNL1        0.0252
     21 N           5.4495   -1.3409   30.2489 N.am    1  UNL1       -0.1708
     22 C           4.0685   -0.9981   30.7236 C.2     1  UNL1        0.3078
     23 O           3.5980   -1.4718   32.0667 O.2     1  UNL1       -0.2516
     24 H           5.7583   -1.0300   29.3673 H       1  UNL1        0.2545
     25 N           5.8419   -3.3905   31.7965 N.pl3   1  UNL1       -0.1313
     26 C           6.3599   -2.1575   31.1174 C.2     1  UNL1        0.3751
     27 N           7.7885   -1.7410   31.3068 N.pl3   1  UNL1       -0.2906
     28 H           6.4395   -3.9265   32.3665 H       1  UNL1        0.3060
     29 H           8.3861   -2.2769   31.8768 H       1  UNL1        0.2545
     30 H           8.1285   -0.9316   30.8611 H       1  UNL1        0.2545
     31 C          -0.7276    0.3660   29.2619 C.3     1  UNL1        0.4183
     32 F          -2.2152    0.2315   29.3996 F       1  UNL1       -0.1659
     33 F          -0.7309   -0.6891   28.1957 F       1  UNL1       -0.1659
     34 F          -0.7243    1.4211   30.3280 F       1  UNL1       -0.1659
@<TRIPOS>BOND
     1    25    26    2
     2    26    27    1
     3    26    21    1
     4    21    22   am
     5    22    23    2
     6    22     1    1
     7     1     2   ar
     8     2     3   ar
     9     3     4   ar
    10     4     7    1
    11     7     8    1
    12     8     9    1
    13     9    10    1
    14    10    11   am
    15    11    12    2
    16    11    15    1
    17    15    16   ar
    18    16    17   ar
    19    17    18   ar
    20    18    19   ar
    21    19    20   ar
    22    10    13    1
    23    13    14    1
    24     4     5   ar
    25     5    31    1
    26    31    32    1
    27    31    33    1
    28    31    34    1
    29     5     6   ar
    30     6     1   ar
    31    14     7    1
    32    20    15   ar
    33    25    28    1
    34    27    29    1
    35    27    30    1
    36    21    24    1
@<TRIPOS>MOLECULE
*****
 34 36 0 0 0
SMALL
GASTEIGER

@<TRIPOS>ATOM
      1 C           7.3280   -3.8922   27.5858 C.ar    1  UNL1        0.0696
      2 C           6.2319   -2.8909   27.3723 C.ar    1  UNL1        0.0057
      3 C           5.7985   -2.5387   25.9801 C.ar    1  UNL1       -0.0041
      4 C           6.4612   -3.1878   24.8014 C.ar    1  UNL1       -0.0185
      5 C           7.5574   -4.1891   25.0149 C.ar    1  UNL1        0.0677
      6 C           7.9908   -4.5413   26.4071 C.ar    1  UNL1        0.0095
      7 C           6.0278   -2.8356   23.4093 C.3     1  UNL1        0.0257
      8 C           6.5662   -1.6029   22.7454 C.3     1  UNL1        0.0259
      9 C           6.1328   -1.2507   21.3533 C.3     1  UNL1        0.0940
     10 N           5.1610   -2.1312   20.6249 N.am    1  UNL1       -0.2761
     11 C           4.7276   -1.7790   19.2328 C.2     1  UNL1        0.2491
     12 O           3.7559   -2.6594   18.5045 O.2     1  UNL1       -0.2699
     13 C           4.6227   -3.3638   21.2888 C.3     1  UNL1        0.0940
     14 C           5.0561   -3.7160   22.6809 C.3     1  UNL1        0.0259
     15 C           5.2660   -0.5463   18.5690 C.ar    1  UNL1        0.0567
     16 C           4.5903    0.7760   18.7816 C.ar    1  UNL1        0.0252
     17 C           5.1287    2.0086   18.1178 C.ar    1  UNL1        0.0990
     18 N           6.3426    1.9191   17.2413 N.ar    1  UNL1       -0.2423
     19 C           7.0183    0.5969   17.0286 C.ar    1  UNL1        0.0990
     20 C           6.4800   -0.6359   17.6925 C.ar    1  UNL1        0.0252
     21 N           6.7353   -4.5565   30.0265 N.am    1  UNL1       -0.1708
     22 C           7.7614   -4.2444   28.9779 C.2     1  UNL1        0.3078
     23 O           9.2210   -4.2846   29.3215 O.2     1  UNL1       -0.2516
     24 H           5.7773   -4.5301   29.8010 H       1  UNL1        0.2545
     25 N           6.5458   -6.0759   32.1254 N.pl3   1  UNL1       -0.1313
     26 C           7.1687   -4.9087   31.4187 C.2     1  UNL1        0.3751
     27 N           8.2251   -4.0936   32.1041 N.pl3   1  UNL1       -0.2906
     28 H           6.8302   -6.3070   33.0391 H       1  UNL1        0.3060
     29 H           8.5096   -4.3248   33.0178 H       1  UNL1        0.2545
     30 H           8.6340   -3.3275   31.6402 H       1  UNL1        0.2545
     31 C           8.2203   -4.8383   23.8362 C.3     1  UNL1        0.4183
     32 F           8.8831   -5.4875   22.6576 F       1  UNL1       -0.1659
     33 F           7.2891   -6.0081   23.9568 F       1  UNL1       -0.1659
     34 F           9.1515   -3.6686   23.7157 F       1  UNL1       -0.1659
@<TRIPOS>BOND
     1    25    26    2
     2    26    27    1
     3    26    21    1
     4    21    22   am
     5    22    23    2
     6    22     1    1
     7     1     2   ar
     8     2     3   ar
     9     3     4   ar
    10     4     7    1
    11     7     8    1
    12     8     9    1
    13     9    10    1
    14    10    11   am
    15    11    12    2
    16    11    15    1
    17    15    16   ar
    18    16    17   ar
    19    17    18   ar
    20    18    19   ar
    21    19    20   ar
    22    10    13    1
    23    13    14    1
    24     4     5   ar
    25     5    31    1
    26    31    32    1
    27    31    33    1
    28    31    34    1
    29     5     6   ar
    30     6     1   ar
    31    14     7    1
    32    20    15   ar
    33    25    28    1
    34    27    29    1
    35    27    30    1
    36    21    24    1
@<TRIPOS>MOLECULE
*****
 34 36 0 0 0
SMALL
GASTEIGER

@<TRIPOS>ATOM
      1 C           2.3658    0.0049   18.8843 C.ar    1  UNL1        0.0696
      2 C           1.5064   -0.6039   19.9523 C.ar    1  UNL1        0.0057
      3 C           0.4615    0.2257   20.6377 C.ar    1  UNL1       -0.0041
      4 C           0.2759    1.6641   20.2552 C.ar    1  UNL1       -0.0185
      5 C           1.1353    2.2730   19.1872 C.ar    1  UNL1        0.0677
      6 C           2.1803    1.4434   18.5017 C.ar    1  UNL1        0.0095
      7 C          -0.7691    2.4937   20.9407 C.3     1  UNL1        0.0257
      8 C          -0.6464    2.7944   22.4051 C.3     1  UNL1        0.0259
      9 C          -1.6913    3.6239   23.0905 C.3     1  UNL1        0.0940
     10 N          -2.8590    4.1529   22.3116 N.am    1  UNL1       -0.2761
     11 C          -3.9039    4.9824   22.9971 C.2     1  UNL1        0.2491
     12 O          -5.0716    5.5114   22.2181 O.2     1  UNL1       -0.2699
     13 C          -2.9817    3.8522   20.8472 C.3     1  UNL1        0.0940
     14 C          -1.9367    3.0226   20.1617 C.3     1  UNL1        0.0259
     15 C          -3.7812    5.2831   24.4615 C.ar    1  UNL1        0.0567
     16 C          -3.0716    6.5243   24.9154 C.ar    1  UNL1        0.0252
     17 C          -2.9489    6.8250   26.3798 C.ar    1  UNL1        0.0990
     18 N          -3.5358    5.8845   27.3903 N.ar    1  UNL1       -0.2423
     19 C          -4.2453    4.6434   26.9364 C.ar    1  UNL1        0.0990
     20 C          -4.3681    4.3426   25.4720 C.ar    1  UNL1        0.0252
     21 N           4.0761   -1.9502   18.9340 N.am    1  UNL1       -0.1708
     22 C           3.4108   -0.8246   18.1988 C.2     1  UNL1        0.3078
     23 O           3.7904   -0.5287   16.7782 O.2     1  UNL1       -0.2516
     24 H           3.8269   -2.1444   19.8664 H       1  UNL1        0.2545
     25 N           6.2595   -2.1125   17.5353 N.pl3   1  UNL1       -0.1313
     26 C           5.1210   -2.7797   18.2485 C.2     1  UNL1        0.3751
     27 N           5.0275   -4.2766   18.2763 N.pl3   1  UNL1       -0.2906
     28 H           6.9453   -2.6570   17.0854 H       1  UNL1        0.3060
     29 H           5.7133   -4.8211   17.8264 H       1  UNL1        0.2545
     30 H           4.2803   -4.7145   18.7444 H       1  UNL1        0.2545
     31 C           0.9498    3.7115   18.8046 C.3     1  UNL1        0.4183
     32 F           0.7643    5.1500   18.4221 F       1  UNL1       -0.1659
     33 F           0.1053    3.2924   17.6379 F       1  UNL1       -0.1659
     34 F           1.7942    4.1307   19.9713 F       1  UNL1       -0.1659
@<TRIPOS>BOND
     1    25    26    2
     2    26    27    1
     3    26    21    1
     4    21    22   am
     5    22    23    2
     6    22     1    1
     7     1     2   ar
     8     2     3   ar
     9     3     4   ar
    10     4     7    1
    11     7     8    1
    12     8     9    1
    13     9    10    1
    14    10    11   am
    15    11    12    2
    16    11    15    1
    17    15    16   ar
    18    16    17   ar
    19    17    18   ar
    20    18    19   ar
    21    19    20   ar
    22    10    13    1
    23    13    14    1
    24     4     5   ar
    25     5    31    1
    26    31    32    1
    27    31    33    1
    28    31    34    1
    29     5     6   ar
    30     6     1   ar
    31    14     7    1
    32    20    15   ar
    33    25    28    1
    34    27    29    1
    35    27    30    1
    36    21    24    1
@<TRIPOS>MOLECULE
*****
 34 36 0 0 0
SMALL
GASTEIGER

@<TRIPOS>ATOM
      1 C          -3.0664    3.8823   22.3435 C.ar    1  UNL1        0.0696
      2 C          -2.9360    3.4125   20.9250 C.ar    1  UNL1        0.0057
      3 C          -1.6746    2.7397   20.4707 C.ar    1  UNL1       -0.0041
      4 C          -0.5437    2.5368   21.4349 C.ar    1  UNL1       -0.0185
      5 C          -0.6742    3.0066   22.8534 C.ar    1  UNL1        0.0677
      6 C          -1.9355    3.6794   23.3077 C.ar    1  UNL1        0.0095
      7 C           0.7176    1.8640   20.9806 C.3     1  UNL1        0.0257
      8 C           0.8936    0.3877   21.1792 C.3     1  UNL1        0.0259
      9 C           2.1550   -0.2851   20.7249 C.3     1  UNL1        0.0940
     10 N           3.2404    0.5185   20.0721 N.am    1  UNL1       -0.2761
     11 C           4.5017   -0.1542   19.6178 C.2     1  UNL1        0.2491
     12 O           5.5871    0.6493   18.9650 O.2     1  UNL1       -0.2699
     13 C           3.0644    1.9948   19.8735 C.3     1  UNL1        0.0940
     14 C           1.8030    2.6676   20.3278 C.3     1  UNL1        0.0259
     15 C           4.6777   -1.6306   19.8164 C.ar    1  UNL1        0.0567
     16 C           5.3437   -2.1463   21.0576 C.ar    1  UNL1        0.0252
     17 C           5.5197   -3.6226   21.2562 C.ar    1  UNL1        0.0990
     18 N           5.0298   -4.5833   20.2135 N.ar    1  UNL1       -0.2423
     19 C           4.3638   -4.0676   18.9723 C.ar    1  UNL1        0.0990
     20 C           4.1878   -2.5912   18.7737 C.ar    1  UNL1        0.0252
     21 N          -5.6570    4.0734   22.2967 N.am    1  UNL1       -0.1708
     22 C          -4.3278    4.5550   22.7977 C.2     1  UNL1        0.3078
     23 O          -4.2599    5.7094   23.7531 O.2     1  UNL1       -0.2516
     24 H          -5.7016    3.3157   21.6697 H       1  UNL1        0.2545
     25 N          -8.0760    3.9228   23.2326 N.pl3   1  UNL1       -0.1313
     26 C          -6.9184    4.7462   22.7510 C.2     1  UNL1        0.3751
     27 N          -7.0222    6.2424   22.7235 N.pl3   1  UNL1       -0.2906
     28 H          -8.9038    4.3644   23.5308 H       1  UNL1        0.3060
     29 H          -7.8500    6.6839   23.0217 H       1  UNL1        0.2545
     30 H          -6.2624    6.7828   22.4074 H       1  UNL1        0.2545
     31 C           0.4568    2.8037   23.8177 C.3     1  UNL1        0.4183
     32 F           1.5877    2.6008   24.7820 F       1  UNL1       -0.1659
     33 F          -0.1471    1.5011   24.2519 F       1  UNL1       -0.1659
     34 F           1.0607    4.1063   23.3836 F       1  UNL1       -0.1659
@<TRIPOS>BOND
     1    25    26    2
     2    26    27    1
     3    26    21    1
     4    21    22   am
     5    22    23    2
     6    22     1    1
     7     1     2   ar
     8     2     3   ar
     9     3     4   ar
    10     4     7    1
    11     7     8    1
    12     8     9    1
    13     9    10    1
    14    10    11   am
    15    11    12    2
    16    11    15    1
    17    15    16   ar
    18    16    17   ar
    19    17    18   ar
    20    18    19   ar
    21    19    20   ar
    22    10    13    1
    23    13    14    1
    24     4     5   ar
    25     5    31    1
    26    31    32    1
    27    31    33    1
    28    31    34    1
    29     5     6   ar
    30     6     1   ar
    31    14     7    1
    32    20    15   ar
    33    25    28    1
    34    27    29    1
    35    27    30    1
    36    21    24    1
