@<TRIPOS>MOLECULE
*****
 29 31 0 0 0
SMALL
GASTEIGER

@<TRIPOS>ATOM
      1 C          -6.1188  -15.2431   27.1284 C.3     1  UNL1        0.0937
      2 N          -5.4194  -15.8041   25.9260 N.3     1  UNL1       -0.2683
      3 C          -5.5458  -15.1194   24.5973 C.3     1  UNL1        0.0939
      4 C          -4.8463  -15.6804   23.3949 C.3     1  UNL1        0.1081
      5 N          -4.0204  -16.9262   23.5210 N.pl3   1  UNL1       -0.3049
      6 C          -3.8939  -17.6109   24.8495 C.3     1  UNL1        0.1081
      7 C          -4.5934  -17.0499   26.0521 C.3     1  UNL1        0.0939
      8 C          -3.3209  -17.4872   22.3185 C.ar    1  UNL1        0.0436
      9 C          -2.0859  -16.8197   21.7898 C.ar    1  UNL1        0.0142
     10 C          -1.3865  -17.3807   20.5874 C.ar    1  UNL1        0.0009
     11 C          -1.9218  -18.6093   19.9136 C.ar    1  UNL1       -0.0045
     12 C          -3.1567  -19.2768   20.4422 C.ar    1  UNL1       -0.0246
     13 C          -3.6921  -20.5054   19.7684 C.3     1  UNL1        0.0307
     14 C          -3.8563  -18.7158   21.6447 C.ar    1  UNL1       -0.0125
     15 C          -5.0911  -19.3833   22.1734 C.3     1  UNL1        0.0320
     16 C          -7.6171  -15.2551   27.1979 C.3     1  UNL1        0.1070
     17 C          -8.8564  -15.8937   25.0055 C.2     1  UNL1        0.2637
     18 O          -8.5348  -14.5459   24.4311 O.2     1  UNL1       -0.2685
     19 N          -8.3976  -16.2483   26.3889 N.am    1  UNL1       -0.2982
     20 H          -8.6087  -17.1329   26.7659 H       1  UNL1        0.1498
     21 C         -11.3201  -17.4070   22.2870 C.ar    1  UNL1        0.1898
     22 N         -11.1977  -18.8733   22.5785 N.ar    1  UNL1       -0.2256
     23 C         -10.2948  -19.3464   23.6789 C.ar    1  UNL1        0.0632
     24 C         -10.1724  -20.8128   23.9704 C.3     1  UNL1        0.0522
     25 C          -9.5144  -18.3532   24.4879 C.ar    1  UNL1        0.0386
     26 C          -9.6368  -16.8870   24.1965 C.ar    1  UNL1        0.1377
     27 N         -10.5397  -16.4138   23.0960 N.ar    1  UNL1       -0.2166
     28 C         -11.6480  -16.2189   20.0000 C.3     1  UNL1        0.0772
     29 S         -12.2230  -16.9339   21.1866 S.3     1  UNL1       -0.0748
@<TRIPOS>BOND
     1    28    29    1
     2    29    21    1
     3    21    22   ar
     4    22    23   ar
     5    23    24    1
     6    23    25   ar
     7    25    26   ar
     8    26    17    1
     9    17    18    2
    10    17    19   am
    11    19    16    1
    12    16     1    1
    13     1     2    1
    14     2     3    1
    15     3     4    1
    16     4     5    1
    17     5     8    1
    18     8     9   ar
    19     9    10   ar
    20    10    11   ar
    21    11    12   ar
    22    12    13    1
    23    12    14   ar
    24    14    15    1
    25     5     6    1
    26     6     7    1
    27    26    27   ar
    28    27    21   ar
    29     7     2    1
    30    14     8   ar
    31    19    20    1
@<TRIPOS>MOLECULE
*****
 29 31 0 0 0
SMALL
GASTEIGER

@<TRIPOS>ATOM
      1 C          -9.6328   -6.2895   17.6732 C.3     1  UNL1        0.0937
      2 N         -10.3262   -4.9595   17.6836 N.3     1  UNL1       -0.2683
      3 C         -10.1106   -4.0101   18.8247 C.3     1  UNL1        0.0939
      4 C         -10.8040   -2.6801   18.8351 C.3     1  UNL1        0.1081
      5 N         -11.7131   -2.2994   17.7043 N.pl3   1  UNL1       -0.3049
      6 C         -11.9288   -3.2488   16.5632 C.3     1  UNL1        0.1081
      7 C         -11.2354   -4.5789   16.5529 C.3     1  UNL1        0.0939
      8 C         -12.4066   -0.9694   17.7147 C.ar    1  UNL1        0.0436
      9 C         -11.8101    0.1932   16.9780 C.ar    1  UNL1        0.0142
     10 C         -12.5036    1.5232   16.9883 C.ar    1  UNL1        0.0009
     11 C         -13.7935    1.6907   17.7353 C.ar    1  UNL1       -0.0045
     12 C         -14.3899    0.5282   18.4720 C.ar    1  UNL1       -0.0246
     13 C         -15.6799    0.6957   19.2191 C.3     1  UNL1        0.0307
     14 C         -13.6965   -0.8019   18.4617 C.ar    1  UNL1       -0.0125
     15 C         -14.2930   -1.9644   19.1984 C.3     1  UNL1        0.0320
     16 C         -10.1830   -7.4285   18.4794 C.3     1  UNL1        0.1070
     17 C         -12.7233   -7.6580   17.9852 C.2     1  UNL1        0.2637
     18 O         -12.4167   -7.9554   16.5473 O.2     1  UNL1       -0.2685
     19 N         -11.6065   -7.3946   18.9513 N.am    1  UNL1       -0.2982
     20 H         -11.8078   -7.1994   19.8950 H       1  UNL1        0.1498
     21 C         -16.3574   -8.8631   19.0299 C.ar    1  UNL1        0.1898
     22 N         -16.9937   -7.5563   19.4007 N.ar    1  UNL1       -0.2256
     23 C         -16.2066   -6.2834   19.2996 C.ar    1  UNL1        0.0632
     24 C         -16.8429   -4.9767   19.6704 C.3     1  UNL1        0.0522
     25 C         -14.7831   -6.3173   18.8278 C.ar    1  UNL1        0.0386
     26 C         -14.1469   -7.6241   18.4571 C.ar    1  UNL1        0.1377
     27 N         -14.9340   -8.8969   18.5581 N.ar    1  UNL1       -0.2166
     28 C         -18.2377  -10.4221   18.1444 C.3     1  UNL1        0.0772
     29 S         -17.1446  -10.1359   19.1309 S.3     1  UNL1       -0.0748
@<TRIPOS>BOND
     1    28    29    1
     2    29    21    1
     3    21    22   ar
     4    22    23   ar
     5    23    24    1
     6    23    25   ar
     7    25    26   ar
     8    26    17    1
     9    17    18    2
    10    17    19   am
    11    19    16    1
    12    16     1    1
    13     1     2    1
    14     2     3    1
    15     3     4    1
    16     4     5    1
    17     5     8    1
    18     8     9   ar
    19     9    10   ar
    20    10    11   ar
    21    11    12   ar
    22    12    13    1
    23    12    14   ar
    24    14    15    1
    25     5     6    1
    26     6     7    1
    27    26    27   ar
    28    27    21   ar
    29     7     2    1
    30    14     8   ar
    31    19    20    1
@<TRIPOS>MOLECULE
*****
 29 31 0 0 0
SMALL
GASTEIGER

@<TRIPOS>ATOM
      1 C          -6.1019  -15.3638   27.0774 C.3     1  UNL1        0.0937
      2 N          -5.3790  -15.8709   25.8649 N.3     1  UNL1       -0.2683
      3 C          -4.5547  -17.1211   25.9513 C.3     1  UNL1        0.0939
      4 C          -3.8318  -17.6282   24.7387 C.3     1  UNL1        0.1081
      5 N          -3.9333  -16.8851   23.4397 N.pl3   1  UNL1       -0.3049
      6 C          -4.7576  -15.6349   23.3532 C.3     1  UNL1        0.1081
      7 C          -5.4805  -15.1278   24.5658 C.3     1  UNL1        0.0939
      8 C          -3.2104  -17.3922   22.2272 C.ar    1  UNL1        0.0436
      9 C          -2.0030  -16.6644   21.7147 C.ar    1  UNL1        0.0142
     10 C          -1.2802  -17.1714   20.5022 C.ar    1  UNL1        0.0009
     11 C          -1.7647  -18.4063   19.8020 C.ar    1  UNL1       -0.0045
     12 C          -2.9720  -19.1342   20.3143 C.ar    1  UNL1       -0.0246
     13 C          -3.4565  -20.3691   19.6141 C.3     1  UNL1        0.0307
     14 C          -3.6950  -18.6271   21.5270 C.ar    1  UNL1       -0.0125
     15 C          -4.9023  -19.3549   22.0393 C.3     1  UNL1        0.0320
     16 C          -7.5918  -15.1935   27.0457 C.3     1  UNL1        0.1070
     17 C          -8.8309  -15.7079   24.8208 C.2     1  UNL1        0.2637
     18 O          -8.3856  -14.3868   24.2673 O.2     1  UNL1       -0.2685
     19 N          -8.4340  -16.1113   26.2100 N.am    1  UNL1       -0.2982
     20 H          -8.7263  -16.9784   26.5732 H       1  UNL1        0.1498
     21 C         -10.3855  -19.0298   23.3048 C.ar    1  UNL1        0.1898
     22 N         -11.3575  -18.4613   22.3138 N.ar    1  UNL1       -0.2256
     23 C         -11.4873  -16.9750   22.1585 C.ar    1  UNL1        0.0632
     24 C         -12.4593  -16.4065   21.1675 C.3     1  UNL1        0.0522
     25 C         -10.6451  -16.0572   22.9942 C.ar    1  UNL1        0.0386
     26 C          -9.6732  -16.6257   23.9851 C.ar    1  UNL1        0.1377
     27 N          -9.5434  -18.1120   24.1404 N.ar    1  UNL1       -0.2166
     28 C          -9.6454  -21.0897   24.7044 C.3     1  UNL1        0.0772
     29 S         -10.2557  -20.5161   23.4601 S.3     1  UNL1       -0.0748
@<TRIPOS>BOND
     1    28    29    1
     2    29    21    1
     3    21    22   ar
     4    22    23   ar
     5    23    24    1
     6    23    25   ar
     7    25    26   ar
     8    26    17    1
     9    17    18    2
    10    17    19   am
    11    19    16    1
    12    16     1    1
    13     1     2    1
    14     2     3    1
    15     3     4    1
    16     4     5    1
    17     5     8    1
    18     8     9   ar
    19     9    10   ar
    20    10    11   ar
    21    11    12   ar
    22    12    13    1
    23    12    14   ar
    24    14    15    1
    25     5     6    1
    26     6     7    1
    27    26    27   ar
    28    27    21   ar
    29     7     2    1
    30    14     8   ar
    31    19    20    1
@<TRIPOS>MOLECULE
*****
 29 31 0 0 0
SMALL
GASTEIGER

@<TRIPOS>ATOM
      1 C          -0.2143    3.0781   20.0652 C.3     1  UNL1        0.0937
      2 N           0.7124    1.8986   20.0680 N.3     1  UNL1       -0.2683
      3 C           0.1641    0.5144   20.2511 C.3     1  UNL1        0.0939
      4 C           1.0907   -0.6651   20.2539 C.3     1  UNL1        0.1081
      5 N           2.5657   -0.4605   20.0736 N.pl3   1  UNL1       -0.3049
      6 C           3.1141    0.9236   19.8905 C.3     1  UNL1        0.1081
      7 C           2.1874    2.1032   19.8877 C.3     1  UNL1        0.0939
      8 C           3.4924   -1.6400   20.0764 C.ar    1  UNL1        0.0436
      9 C           3.8729   -2.2979   18.7831 C.ar    1  UNL1        0.0142
     10 C           4.7996   -3.4774   18.7859 C.ar    1  UNL1        0.0009
     11 C           5.3457   -3.9991   20.0819 C.ar    1  UNL1       -0.0045
     12 C           4.9652   -3.3413   21.3751 C.ar    1  UNL1       -0.0246
     13 C           5.5113   -3.8629   22.6711 C.3     1  UNL1        0.0307
     14 C           4.0385   -2.1617   21.3723 C.ar    1  UNL1       -0.0125
     15 C           3.6580   -1.5039   22.6655 C.3     1  UNL1        0.0320
     16 C          -1.6938    2.8697   20.1970 C.3     1  UNL1        0.1070
     17 C          -3.8880    3.3823   21.4904 C.2     1  UNL1        0.2637
     18 O          -4.6814    3.1386   20.2410 O.2     1  UNL1       -0.2685
     19 N          -2.3942    3.2478   21.4684 N.am    1  UNL1       -0.2982
     20 H          -1.8735    3.4078   22.2885 H       1  UNL1        0.1498
     21 C          -6.6971    4.6531   23.9893 C.ar    1  UNL1        0.1898
     22 N          -5.9892    4.5167   25.3046 N.ar    1  UNL1       -0.2256
     23 C          -4.5809    4.0022   25.3486 C.ar    1  UNL1        0.0632
     24 C          -3.8730    3.8658   26.6641 C.3     1  UNL1        0.0522
     25 C          -3.8805    3.6240   24.0772 C.ar    1  UNL1        0.0386
     26 C          -4.5884    3.7604   22.7619 C.ar    1  UNL1        0.1377
     27 N          -5.9967    4.2750   22.7179 N.ar    1  UNL1       -0.2166
     28 C          -8.6560    5.9459   25.1033 C.3     1  UNL1        0.0772
     29 S          -8.1054    5.1677   23.9453 S.3     1  UNL1       -0.0748
@<TRIPOS>BOND
     1    28    29    1
     2    29    21    1
     3    21    22   ar
     4    22    23   ar
     5    23    24    1
     6    23    25   ar
     7    25    26   ar
     8    26    17    1
     9    17    18    2
    10    17    19   am
    11    19    16    1
    12    16     1    1
    13     1     2    1
    14     2     3    1
    15     3     4    1
    16     4     5    1
    17     5     8    1
    18     8     9   ar
    19     9    10   ar
    20    10    11   ar
    21    11    12   ar
    22    12    13    1
    23    12    14   ar
    24    14    15    1
    25     5     6    1
    26     6     7    1
    27    26    27   ar
    28    27    21   ar
    29     7     2    1
    30    14     8   ar
    31    19    20    1
@<TRIPOS>MOLECULE
*****
 29 31 0 0 0
SMALL
GASTEIGER

@<TRIPOS>ATOM
      1 C          -9.9766   -5.1407   16.7361 C.3     1  UNL1        0.0937
      2 N         -11.2117   -5.9008   17.1190 N.3     1  UNL1       -0.2683
      3 C         -11.2627   -6.6417   18.4223 C.3     1  UNL1        0.0939
      4 C         -12.4978   -7.4018   18.8051 C.3     1  UNL1        0.1081
      5 N         -13.6820   -7.4211   17.8847 N.pl3   1  UNL1       -0.3049
      6 C         -13.6311   -6.6803   16.5814 C.3     1  UNL1        0.1081
      7 C         -12.3959   -5.9201   16.1985 C.3     1  UNL1        0.0939
      8 C         -14.9172   -8.1812   18.2675 C.ar    1  UNL1        0.0436
      9 C         -15.0470   -9.6316   17.9075 C.ar    1  UNL1        0.0142
     10 C         -16.2822  -10.3918   18.2903 C.ar    1  UNL1        0.0009
     11 C         -17.3875   -9.7015   19.0331 C.ar    1  UNL1       -0.0045
     12 C         -17.2577   -8.2512   19.3931 C.ar    1  UNL1       -0.0246
     13 C         -18.3631   -7.5610   20.1360 C.3     1  UNL1        0.0307
     14 C         -16.0225   -7.4910   19.0103 C.ar    1  UNL1       -0.0125
     15 C         -15.8927   -6.0407   19.3703 C.3     1  UNL1        0.0320
     16 C          -9.6074   -3.8886   17.4749 C.3     1  UNL1        0.1070
     17 C         -11.6310   -2.5293   18.3736 C.2     1  UNL1        0.2637
     18 O         -11.8719   -3.5786   19.4181 O.2     1  UNL1       -0.2685
     19 N         -10.4988   -2.6843   17.4020 N.am    1  UNL1       -0.2982
     20 H         -10.3407   -1.9956   16.7165 H       1  UNL1        0.1498
     21 C         -14.7499   -0.1344   18.9095 C.ar    1  UNL1        0.1898
     22 N         -14.3051    1.0833   18.1550 N.ar    1  UNL1       -0.2256
     23 C         -12.9690    1.0968   17.4733 C.ar    1  UNL1        0.0632
     24 C         -12.5243    2.3146   16.7188 C.3     1  UNL1        0.0522
     25 C         -12.0777   -0.1073   17.5462 C.ar    1  UNL1        0.0386
     26 C         -12.5224   -1.3251   18.3007 C.ar    1  UNL1        0.1377
     27 N         -13.8585   -1.3386   18.9823 N.ar    1  UNL1       -0.2166
     28 C         -16.9704    1.0621   19.5319 C.3     1  UNL1        0.0772
     29 S         -16.0860   -0.1479   19.5911 S.3     1  UNL1       -0.0748
@<TRIPOS>BOND
     1    28    29    1
     2    29    21    1
     3    21    22   ar
     4    22    23   ar
     5    23    24    1
     6    23    25   ar
     7    25    26   ar
     8    26    17    1
     9    17    18    2
    10    17    19   am
    11    19    16    1
    12    16     1    1
    13     1     2    1
    14     2     3    1
    15     3     4    1
    16     4     5    1
    17     5     8    1
    18     8     9   ar
    19     9    10   ar
    20    10    11   ar
    21    11    12   ar
    22    12    13    1
    23    12    14   ar
    24    14    15    1
    25     5     6    1
    26     6     7    1
    27    26    27   ar
    28    27    21   ar
    29     7     2    1
    30    14     8   ar
    31    19    20    1
@<TRIPOS>MOLECULE
*****
 29 31 0 0 0
SMALL
GASTEIGER

@<TRIPOS>ATOM
      1 C          -0.1364    3.2607   19.9146 C.3     1  UNL1        0.0937
      2 N           0.7503    2.0520   19.9662 N.3     1  UNL1       -0.2683
      3 C           0.1541    0.6933   20.1865 C.3     1  UNL1        0.0939
      4 C           1.0408   -0.5154   20.2382 C.3     1  UNL1        0.1081
      5 N           2.5237   -0.3655   20.0696 N.pl3   1  UNL1       -0.3049
      6 C           3.1199    0.9931   19.8493 C.3     1  UNL1        0.1081
      7 C           2.2332    2.2019   19.7976 C.3     1  UNL1        0.0939
      8 C           3.4104   -1.5742   20.1212 C.ar    1  UNL1        0.0436
      9 C           3.7939   -2.2779   18.8532 C.ar    1  UNL1        0.0142
     10 C           4.6806   -3.4866   18.9048 C.ar    1  UNL1        0.0009
     11 C           5.1838   -3.9917   20.2245 C.ar    1  UNL1       -0.0045
     12 C           4.8004   -3.2881   21.4925 C.ar    1  UNL1       -0.0246
     13 C           5.3037   -3.7933   22.8122 C.3     1  UNL1        0.0307
     14 C           3.9137   -2.0794   21.4409 C.ar    1  UNL1       -0.0125
     15 C           3.5303   -1.3758   22.7089 C.3     1  UNL1        0.0320
     16 C          -1.6250    3.1034   20.0101 C.3     1  UNL1        0.1070
     17 C          -3.8267    3.4727   21.3392 C.2     1  UNL1        0.2637
     18 O          -4.6204    3.2520   20.0857 O.2     1  UNL1       -0.2685
     19 N          -2.3291    3.3984   21.3014 N.am    1  UNL1       -0.2982
     20 H          -1.8082    3.5433   22.1242 H       1  UNL1        0.1498
     21 C          -4.4810    4.0037   25.2173 C.ar    1  UNL1        0.1898
     22 N          -5.9387    4.3576   25.2130 N.ar    1  UNL1       -0.2256
     23 C          -6.6923    4.4165   23.9174 C.ar    1  UNL1        0.0632
     24 C          -8.1500    4.7704   23.9132 C.3     1  UNL1        0.0522
     25 C          -5.9884    4.1215   22.6262 C.ar    1  UNL1        0.0386
     26 C          -4.5308    3.7677   22.6305 C.ar    1  UNL1        0.1377
     27 N          -3.7771    3.7088   23.9261 N.ar    1  UNL1       -0.2166
     28 C          -2.2787    4.3314   26.5561 C.3     1  UNL1        0.0772
     29 S          -3.7274    3.9448   26.5129 S.3     1  UNL1       -0.0748
@<TRIPOS>BOND
     1    28    29    1
     2    29    21    1
     3    21    22   ar
     4    22    23   ar
     5    23    24    1
     6    23    25   ar
     7    25    26   ar
     8    26    17    1
     9    17    18    2
    10    17    19   am
    11    19    16    1
    12    16     1    1
    13     1     2    1
    14     2     3    1
    15     3     4    1
    16     4     5    1
    17     5     8    1
    18     8     9   ar
    19     9    10   ar
    20    10    11   ar
    21    11    12   ar
    22    12    13    1
    23    12    14   ar
    24    14    15    1
    25     5     6    1
    26     6     7    1
    27    26    27   ar
    28    27    21   ar
    29     7     2    1
    30    14     8   ar
    31    19    20    1
@<TRIPOS>MOLECULE
*****
 29 31 0 0 0
SMALL
GASTEIGER

@<TRIPOS>ATOM
      1 C         -10.1567   -4.8167   17.0382 C.3     1  UNL1        0.0937
      2 N         -11.3752   -5.6285   17.3639 N.3     1  UNL1       -0.2683
      3 C         -11.4404   -6.4011   18.6481 C.3     1  UNL1        0.0939
      4 C         -12.6589   -7.2130   18.9738 C.3     1  UNL1        0.1081
      5 N         -13.8122   -7.2522   18.0155 N.pl3   1  UNL1       -0.3049
      6 C         -13.7470   -6.4796   16.7314 C.3     1  UNL1        0.1081
      7 C         -12.5285   -5.6678   16.4056 C.3     1  UNL1        0.0939
      8 C         -15.0307   -8.0640   18.3412 C.ar    1  UNL1        0.0436
      9 C         -15.0907   -9.5133   17.9588 C.ar    1  UNL1        0.0142
     10 C         -16.3092  -10.3251   18.2845 C.ar    1  UNL1        0.0009
     11 C         -17.4678   -9.6878   18.9926 C.ar    1  UNL1       -0.0045
     12 C         -17.4079   -8.2386   19.3750 C.ar    1  UNL1       -0.0246
     13 C         -18.5665   -7.6013   20.0832 C.3     1  UNL1        0.0307
     14 C         -16.1893   -7.4267   19.0493 C.ar    1  UNL1       -0.0125
     15 C         -16.1294   -5.9775   19.4317 C.3     1  UNL1        0.0320
     16 C          -9.8630   -3.5631   17.8077 C.3     1  UNL1        0.1070
     17 C         -11.9463   -2.1533   18.4578 C.2     1  UNL1        0.2637
     18 O         -12.3154   -3.1755   19.4917 O.2     1  UNL1       -0.2685
     19 N         -10.7202   -2.3471   17.6158 N.am    1  UNL1       -0.2982
     20 H         -10.4780   -1.6762   16.9372 H       1  UNL1        0.1498
     21 C         -13.2155    1.3714   17.1479 C.ar    1  UNL1        0.1898
     22 N         -14.5176    1.4945   17.8821 N.ar    1  UNL1       -0.2256
     23 C         -14.9627    0.4018   18.8082 C.ar    1  UNL1        0.0632
     24 C         -16.2650    0.5249   19.5425 C.3     1  UNL1        0.0522
     25 C         -14.1057   -0.8142   19.0002 C.ar    1  UNL1        0.0386
     26 C         -12.8035   -0.9373   18.2659 C.ar    1  UNL1        0.1377
     27 N         -12.3584    0.1555   17.3398 N.ar    1  UNL1       -0.2166
     28 C         -12.9794    3.9003   16.6011 C.3     1  UNL1        0.0772
     29 S         -12.7704    2.4642   16.2218 S.3     1  UNL1       -0.0748
@<TRIPOS>BOND
     1    28    29    1
     2    29    21    1
     3    21    22   ar
     4    22    23   ar
     5    23    24    1
     6    23    25   ar
     7    25    26   ar
     8    26    17    1
     9    17    18    2
    10    17    19   am
    11    19    16    1
    12    16     1    1
    13     1     2    1
    14     2     3    1
    15     3     4    1
    16     4     5    1
    17     5     8    1
    18     8     9   ar
    19     9    10   ar
    20    10    11   ar
    21    11    12   ar
    22    12    13    1
    23    12    14   ar
    24    14    15    1
    25     5     6    1
    26     6     7    1
    27    26    27   ar
    28    27    21   ar
    29     7     2    1
    30    14     8   ar
    31    19    20    1
@<TRIPOS>MOLECULE
*****
 29 31 0 0 0
SMALL
GASTEIGER

@<TRIPOS>ATOM
      1 C         -11.0511   -4.1662   17.0099 C.3     1  UNL1        0.0937
      2 N         -12.1299   -5.1451   17.3673 N.3     1  UNL1       -0.2683
      3 C         -13.2504   -5.4105   16.4059 C.3     1  UNL1        0.0939
      4 C         -14.3293   -6.3893   16.7632 C.3     1  UNL1        0.1081
      5 N         -14.2878   -7.1029   18.0820 N.pl3   1  UNL1       -0.3049
      6 C         -13.1674   -6.8375   19.0434 C.3     1  UNL1        0.1081
      7 C         -12.0885   -5.8586   18.6860 C.3     1  UNL1        0.0939
      8 C         -15.3667   -8.0817   18.4394 C.ar    1  UNL1        0.0436
      9 C         -15.2392   -9.5200   18.0329 C.ar    1  UNL1        0.0142
     10 C         -16.3181  -10.4989   18.3903 C.ar    1  UNL1        0.0009
     11 C         -17.5245  -10.0395   19.1542 C.ar    1  UNL1       -0.0045
     12 C         -17.6521   -8.6013   19.5606 C.ar    1  UNL1       -0.0246
     13 C         -18.8586   -8.1420   20.3245 C.3     1  UNL1        0.0307
     14 C         -16.5732   -7.6224   19.2032 C.ar    1  UNL1       -0.0125
     15 C         -16.7007   -6.1842   19.6097 C.3     1  UNL1        0.0320
     16 C         -11.2080   -2.7162   17.3602 C.3     1  UNL1        0.1070
     17 C         -13.2272   -2.1376   18.8893 C.2     1  UNL1        0.2637
     18 O         -12.5065   -2.7287   20.0645 O.2     1  UNL1       -0.2685
     19 N         -12.5779   -2.1313   17.5371 N.am    1  UNL1       -0.2982
     20 H         -13.0509   -1.7433   16.7657 H       1  UNL1        0.1498
     21 C         -17.1187   -1.8543   19.6144 C.ar    1  UNL1        0.1898
     22 N         -17.3369   -0.3831   19.4201 N.ar    1  UNL1       -0.2256
     23 C         -16.1852    0.5033   19.0489 C.ar    1  UNL1        0.0632
     24 C         -16.4034    1.9747   18.8546 C.3     1  UNL1        0.0522
     25 C         -14.8153   -0.0815   18.8720 C.ar    1  UNL1        0.0386
     26 C         -14.5971   -1.5527   19.0662 C.ar    1  UNL1        0.1377
     27 N         -15.7488   -2.4391   19.4374 N.ar    1  UNL1       -0.2166
     28 C         -19.5570   -2.1373   20.4655 C.3     1  UNL1        0.0772
     29 S         -18.2704   -2.7408   19.9856 S.3     1  UNL1       -0.0748
@<TRIPOS>BOND
     1    28    29    1
     2    29    21    1
     3    21    22   ar
     4    22    23   ar
     5    23    24    1
     6    23    25   ar
     7    25    26   ar
     8    26    17    1
     9    17    18    2
    10    17    19   am
    11    19    16    1
    12    16     1    1
    13     1     2    1
    14     2     3    1
    15     3     4    1
    16     4     5    1
    17     5     8    1
    18     8     9   ar
    19     9    10   ar
    20    10    11   ar
    21    11    12   ar
    22    12    13    1
    23    12    14   ar
    24    14    15    1
    25     5     6    1
    26     6     7    1
    27    26    27   ar
    28    27    21   ar
    29     7     2    1
    30    14     8   ar
    31    19    20    1
@<TRIPOS>MOLECULE
*****
 29 31 0 0 0
SMALL
GASTEIGER

@<TRIPOS>ATOM
      1 C           0.9493    4.2096   18.8850 C.3     1  UNL1        0.0937
      2 N           1.6397    2.8828   18.9978 N.3     1  UNL1       -0.2683
      3 C           0.9163    1.6259   18.6143 C.3     1  UNL1        0.0939
      4 C           1.6068    0.2991   18.7271 C.3     1  UNL1        0.1081
      5 N           3.0206    0.2290   19.2234 N.pl3   1  UNL1       -0.3049
      6 C           3.7439    1.4859   19.6069 C.3     1  UNL1        0.1081
      7 C           3.0535    2.8128   19.4941 C.3     1  UNL1        0.0939
      8 C           3.7110   -1.0978   19.3362 C.ar    1  UNL1        0.0436
      9 C           4.3387   -1.7220   18.1252 C.ar    1  UNL1        0.0142
     10 C           5.0291   -3.0489   18.2380 C.ar    1  UNL1        0.0009
     11 C           5.0919   -3.7515   19.5618 C.ar    1  UNL1       -0.0045
     12 C           4.4642   -3.1274   20.7727 C.ar    1  UNL1       -0.0246
     13 C           4.5270   -3.8301   22.0965 C.3     1  UNL1        0.0307
     14 C           3.7738   -1.8005   20.6600 C.ar    1  UNL1       -0.0125
     15 C           3.1461   -1.1763   21.8709 C.3     1  UNL1        0.0320
     16 C           0.3499    4.8490   20.1023 C.3     1  UNL1        0.1070
     17 C          -1.8818    3.7330   20.8264 C.2     1  UNL1        0.2637
     18 O          -1.1327    2.4983   21.2320 O.2     1  UNL1       -0.2685
     19 N          -1.1405    4.9083   20.2615 N.am    1  UNL1       -0.2982
     20 H          -1.6322    5.7187   19.9953 H       1  UNL1        0.1498
     21 C          -5.4628    4.1116   22.4946 C.ar    1  UNL1        0.1898
     22 N          -6.3528    3.9108   21.3041 N.ar    1  UNL1       -0.2256
     23 C          -5.7525    3.6507   19.9542 C.ar    1  UNL1        0.0632
     24 C          -6.6426    3.4499   18.7636 C.3     1  UNL1        0.0522
     25 C          -4.2622    3.5915   19.7950 C.ar    1  UNL1        0.0386
     26 C          -3.3722    3.7922   20.9856 C.ar    1  UNL1        0.1377
     27 N          -3.9725    4.0523   22.3354 N.ar    1  UNL1       -0.2166
     28 C          -5.3105    3.9931   25.0855 C.3     1  UNL1        0.0772
     29 S          -6.0631    4.3716   23.8445 S.3     1  UNL1       -0.0748
@<TRIPOS>BOND
     1    28    29    1
     2    29    21    1
     3    21    22   ar
     4    22    23   ar
     5    23    24    1
     6    23    25   ar
     7    25    26   ar
     8    26    17    1
     9    17    18    2
    10    17    19   am
    11    19    16    1
    12    16     1    1
    13     1     2    1
    14     2     3    1
    15     3     4    1
    16     4     5    1
    17     5     8    1
    18     8     9   ar
    19     9    10   ar
    20    10    11   ar
    21    11    12   ar
    22    12    13    1
    23    12    14   ar
    24    14    15    1
    25     5     6    1
    26     6     7    1
    27    26    27   ar
    28    27    21   ar
    29     7     2    1
    30    14     8   ar
    31    19    20    1
