@<TRIPOS>MOLECULE
*****
 42 47 0 0 0
SMALL
GASTEIGER

@<TRIPOS>ATOM
      1 C           7.5594   -5.1706   24.6526 C.ar    1  UNL1        0.2400
      2 N           7.2860   -5.0390   23.1837 N.ar    1  UNL1       -0.2090
      3 C           6.2606   -4.0587   22.6965 C.ar    1  UNL1        0.1021
      4 C           5.3304   -3.0574   23.4099 C.ar    1  UNL1        0.0207
      5 C           6.1994   -3.8370   24.3517 C.ar    1  UNL1        0.0221
      6 C           6.8072   -4.3218   25.6344 C.ar    1  UNL1        0.1178
      7 N           7.0805   -4.4534   27.1035 N.pl3   1  UNL1       -0.2104
      8 S           6.9863   -4.2158   28.5815 S.O2    1  UNL1        0.0759
      9 O           7.6912   -4.8074   29.7661 O.2     1  UNL1       -0.1499
     10 O           7.9950   -5.2625   28.2110 O.2     1  UNL1       -0.1499
     11 C           6.5360   -3.6378   29.8903 C.ar    1  UNL1        0.1527
     12 C           5.7839   -2.7890   30.8721 C.ar    1  UNL1        0.0293
     13 C           4.8207   -1.7718   31.4084 C.ar    1  UNL1        0.0822
     14 C           5.6354   -2.4817   32.5081 C.ar    1  UNL1        0.1468
     15 F           5.1851   -1.9036   33.8169 F       1  UNL1       -0.2039
     16 C           6.6936   -3.5446   32.4820 C.ar    1  UNL1        0.0608
     17 C           7.1439   -4.1226   31.1731 C.ar    1  UNL1        0.1611
     18 F           8.2020   -5.1855   31.1470 F       1  UNL1       -0.2027
     19 C           3.7626   -0.7089   31.4345 C.2     1  UNL1        0.2483
     20 O           3.6684   -0.4714   32.9125 O.2     1  UNL1       -0.2701
     21 N           2.7372    0.2714   30.9473 N.am    1  UNL1       -0.2968
     22 C           1.8682    1.0510   30.0055 C.3     1  UNL1        0.1181
     23 C           1.2603    1.5359   28.7227 C.ar    1  UNL1        0.0166
     24 C           0.2022    2.5987   28.7488 C.ar    1  UNL1        0.0962
     25 N          -0.4056    3.0835   27.4661 N.ar    1  UNL1       -0.2426
     26 C           0.0447    2.5055   26.1572 C.ar    1  UNL1        0.0988
     27 C           1.1028    1.4427   26.1311 C.ar    1  UNL1        0.0190
     28 C           1.7106    0.9579   27.4138 C.ar    1  UNL1        0.0005
     29 C           1.5315    0.8519   24.4668 C.ar    1  UNL1        0.0045
     30 C           0.5061    1.8322   23.9796 C.ar    1  UNL1        0.0207
     31 C           0.2327    1.9638   22.5105 C.ar    1  UNL1        0.0988
     32 N           0.9849    1.1150   21.5288 N.ar    1  UNL1       -0.2438
     33 C           2.0103    0.1346   22.0160 C.ar    1  UNL1        0.0813
     34 C           2.9380   -0.8876   21.0607 C.ar    1  UNL1        0.0191
     35 C           3.9768   -1.8888   21.4711 C.ar    1  UNL1        0.0016
     36 C           4.3049   -2.0770   22.9227 C.ar    1  UNL1        0.0016
     37 C           3.2468   -1.0141   22.9487 C.ar    1  UNL1        0.0015
     38 C           2.2836    0.0030   23.4851 C.ar    1  UNL1        0.0177
     39 H           7.7750   -5.1510   27.0864 H       1  UNL1        0.1739
     40 H           2.4416    0.6508   31.8063 H       1  UNL1        0.1501
     41 C           8.2146   -7.5926   25.3269 C.3     1  UNL1        0.2543
     42 O           8.5847   -6.1510   25.1399 O.3     1  UNL1       -0.4553
@<TRIPOS>BOND
     1    41    42    1
     2    42     1    1
     3     1     2   ar
     4     2     3   ar
     5     3     4   ar
     6     4     5   ar
     7     5     6   ar
     8     6     7    1
     9     7     8    1
    10     8     9    2
    11     8    10    2
    12     8    11    1
    13    11    12   ar
    14    12    13   ar
    15    13    14   ar
    16    14    15    1
    17    14    16   ar
    18    16    17   ar
    19    17    18    1
    20    13    19    1
    21    19    20    2
    22    19    21   am
    23    21    22    1
    24    22    23    1
    25    23    24   ar
    26    24    25   ar
    27    25    26   ar
    28    26    27   ar
    29    27    28   ar
    30    27    29    1
    31    29    30   ar
    32    30    31   ar
    33    31    32   ar
    34    32    33   ar
    35    33    34   ar
    36    34    35   ar
    37    35    36   ar
    38    36    37   ar
    39    37    38   ar
    40     6     1   ar
    41    17    11   ar
    42    28    23   ar
    43    38    29   ar
    44    36     4    1
    45    38    33   ar
    46     7    39    1
    47    21    40    1
@<TRIPOS>MOLECULE
*****
 42 47 0 0 0
SMALL
GASTEIGER

@<TRIPOS>ATOM
      1 C           0.5746    1.6632   29.9259 C.ar    1  UNL1        0.2400
      2 N          -0.2354    2.3551   28.8699 N.ar    1  UNL1       -0.2090
      3 C           0.0313    2.0798   27.4196 C.ar    1  UNL1        0.1021
      4 C           1.0334    1.1698   26.6816 C.ar    1  UNL1        0.0207
      5 C           1.1554    1.1009   28.1751 C.ar    1  UNL1        0.0221
      6 C           1.6513    0.6960   29.5316 C.ar    1  UNL1        0.1178
      7 N           2.4614    0.0041   30.5876 N.pl3   1  UNL1       -0.2104
      8 S           3.4878   -0.8914   31.2156 S.O2    1  UNL1        0.0759
      9 O           3.8636   -1.1878   32.6373 O.2     1  UNL1       -0.1499
     10 O           2.6664   -0.1351   32.2174 O.2     1  UNL1       -0.1499
     11 C           4.6068   -1.8825   31.3401 C.ar    1  UNL1        0.1527
     12 C           5.6835   -2.8496   30.9459 C.ar    1  UNL1        0.0293
     13 C           6.5879   -3.6762   30.0805 C.ar    1  UNL1        0.0822
     14 C           6.8449   -3.8647   31.5889 C.ar    1  UNL1        0.1468
     15 F           7.9640   -4.8558   31.7134 F       1  UNL1       -0.2039
     16 C           6.2218   -3.2784   32.8211 C.ar    1  UNL1        0.0608
     17 C           5.1028   -2.2873   32.6967 C.ar    1  UNL1        0.1611
     18 F           4.4797   -1.7011   33.9287 F       1  UNL1       -0.2027
     19 C           7.2111   -4.2624   28.8485 C.2     1  UNL1        0.2483
     20 O           8.2375   -5.1579   29.4765 O.2     1  UNL1       -0.2701
     21 N           7.4777   -4.5377   27.3983 N.am    1  UNL1       -0.2968
     22 C           7.3557   -4.4687   25.9048 C.3     1  UNL1        0.1181
     23 C           6.8598   -4.0638   24.5482 C.ar    1  UNL1        0.0166
     24 C           7.4829   -4.6501   23.3162 C.ar    1  UNL1        0.0962
     25 N           6.9870   -4.2452   21.9597 N.ar    1  UNL1       -0.2426
     26 C           5.8679   -3.2541   21.8353 C.ar    1  UNL1        0.0988
     27 C           5.2448   -2.6679   23.0673 C.ar    1  UNL1        0.0190
     28 C           5.7407   -3.0728   24.4238 C.ar    1  UNL1        0.0005
     29 C           3.9043   -1.4854   22.7397 C.ar    1  UNL1        0.0045
     30 C           4.1709   -1.7606   21.2895 C.ar    1  UNL1        0.0207
     31 C           3.3609   -1.0687   20.2335 C.ar    1  UNL1        0.0988
     32 N           2.2842   -0.1016   20.6278 N.ar    1  UNL1       -0.2438
     33 C           2.0176    0.1737   22.0780 C.ar    1  UNL1        0.0813
     34 C           0.8577    1.2205   22.6921 C.ar    1  UNL1        0.0191
     35 C           0.5329    1.5469   24.1197 C.ar    1  UNL1        0.0016
     36 C           1.3001    0.8946   25.2314 C.ar    1  UNL1        0.0016
     37 C           1.9232    0.3083   23.9993 C.ar    1  UNL1        0.0015
     38 C           2.8276   -0.5182   23.1340 C.ar    1  UNL1        0.0177
     39 H           2.0524    0.3889   31.3962 H       1  UNL1        0.1739
     40 H           8.2122   -5.1882   27.4799 H       1  UNL1        0.1501
     41 C           0.9374    3.1261   32.0420 C.3     1  UNL1        0.2543
     42 O           0.3080    1.9384   31.3761 O.3     1  UNL1       -0.4553
@<TRIPOS>BOND
     1    41    42    1
     2    42     1    1
     3     1     2   ar
     4     2     3   ar
     5     3     4   ar
     6     4     5   ar
     7     5     6   ar
     8     6     7    1
     9     7     8    1
    10     8     9    2
    11     8    10    2
    12     8    11    1
    13    11    12   ar
    14    12    13   ar
    15    13    14   ar
    16    14    15    1
    17    14    16   ar
    18    16    17   ar
    19    17    18    1
    20    13    19    1
    21    19    20    2
    22    19    21   am
    23    21    22    1
    24    22    23    1
    25    23    24   ar
    26    24    25   ar
    27    25    26   ar
    28    26    27   ar
    29    27    28   ar
    30    27    29    1
    31    29    30   ar
    32    30    31   ar
    33    31    32   ar
    34    32    33   ar
    35    33    34   ar
    36    34    35   ar
    37    35    36   ar
    38    36    37   ar
    39    37    38   ar
    40     6     1   ar
    41    17    11   ar
    42    28    23   ar
    43    38    29   ar
    44    36     4    1
    45    38    33   ar
    46     7    39    1
    47    21    40    1
@<TRIPOS>MOLECULE
*****
 42 47 0 0 0
SMALL
GASTEIGER

@<TRIPOS>ATOM
      1 C           8.1771   -5.7184   25.5883 C.ar    1  UNL1        0.2400
      2 N           8.7835   -6.1398   26.8939 N.ar    1  UNL1       -0.2090
      3 C           8.3269   -5.5033   28.1731 C.ar    1  UNL1        0.1021
      4 C           7.2846   -4.4158   28.5013 C.ar    1  UNL1        0.0207
      5 C           7.3839   -4.7218   27.0362 C.ar    1  UNL1        0.0221
      6 C           7.1140   -4.6603   25.5620 C.ar    1  UNL1        0.1178
      7 N           6.5075   -4.2389   24.2564 N.pl3   1  UNL1       -0.2104
      8 S           5.6376   -3.5082   23.2770 S.O2    1  UNL1        0.0759
      9 O           5.4894   -3.5707   21.7855 O.2     1  UNL1       -0.1499
     10 O           6.5487   -4.5094   22.6307 O.2     1  UNL1       -0.1499
     11 C           4.6091   -2.5565   22.7418 C.ar    1  UNL1        0.1527
     12 C           3.5462   -1.4985   22.7154 C.ar    1  UNL1        0.0293
     13 C           2.5769   -0.4618   23.2010 C.ar    1  UNL1        0.0822
     14 C           2.5522   -0.6530   21.6714 C.ar    1  UNL1        0.1468
     15 F           1.5237    0.2988   21.1362 F       1  UNL1       -0.2039
     16 C           3.3108   -1.5433   20.7323 C.ar    1  UNL1        0.0608
     17 C           4.3393   -2.4950   21.2675 C.ar    1  UNL1        0.1611
     18 F           5.0979   -3.3853   20.3284 F       1  UNL1       -0.2027
     19 C           1.8183    0.4285   24.1401 C.2     1  UNL1        0.2483
     20 O           0.9484    1.1592   23.1607 O.2     1  UNL1       -0.2701
     21 N           1.3618    1.0651   25.4193 N.am    1  UNL1       -0.2968
     22 C           1.2625    1.3710   26.8844 C.3     1  UNL1        0.1181
     23 C           1.5323    1.3096   28.3587 C.ar    1  UNL1        0.0166
     24 C           0.7737    2.1999   29.2977 C.ar    1  UNL1        0.0962
     25 N           1.0435    2.1385   30.7719 N.ar    1  UNL1       -0.2426
     26 C           2.0720    1.1867   31.3071 C.ar    1  UNL1        0.0988
     27 C           2.8306    0.2964   30.3681 C.ar    1  UNL1        0.0190
     28 C           2.5608    0.3579   28.8939 C.ar    1  UNL1        0.0005
     29 C           4.0372   -0.7943   31.1789 C.ar    1  UNL1        0.0045
     30 C           3.5806   -0.1577   32.4581 C.ar    1  UNL1        0.0207
     31 C           4.1871   -0.5792   33.7637 C.ar    1  UNL1        0.0988
     32 N           5.2501   -1.6372   33.7900 N.ar    1  UNL1       -0.2438
     33 C           5.7066   -2.2738   32.5108 C.ar    1  UNL1        0.0813
     34 C           6.8788   -3.4659   32.3592 C.ar    1  UNL1        0.0191
     35 C           7.3865   -4.1475   31.1231 C.ar    1  UNL1        0.0016
     36 C           6.8280   -3.7793   29.7805 C.ar    1  UNL1        0.0016
     37 C           6.0694   -2.8889   30.7196 C.ar    1  UNL1        0.0015
     38 C           5.1001   -1.8523   31.2052 C.ar    1  UNL1        0.0177
     39 H           7.0054   -4.8232   23.6400 H       1  UNL1        0.1739
     40 H           0.6867    1.6897   25.0680 H       1  UNL1        0.1501
     41 C           9.4037   -7.6416   24.3448 C.3     1  UNL1        0.2543
     42 O           8.6335   -6.3549   24.3091 O.3     1  UNL1       -0.4553
@<TRIPOS>BOND
     1    41    42    1
     2    42     1    1
     3     1     2   ar
     4     2     3   ar
     5     3     4   ar
     6     4     5   ar
     7     5     6   ar
     8     6     7    1
     9     7     8    1
    10     8     9    2
    11     8    10    2
    12     8    11    1
    13    11    12   ar
    14    12    13   ar
    15    13    14   ar
    16    14    15    1
    17    14    16   ar
    18    16    17   ar
    19    17    18    1
    20    13    19    1
    21    19    20    2
    22    19    21   am
    23    21    22    1
    24    22    23    1
    25    23    24   ar
    26    24    25   ar
    27    25    26   ar
    28    26    27   ar
    29    27    28   ar
    30    27    29    1
    31    29    30   ar
    32    30    31   ar
    33    31    32   ar
    34    32    33   ar
    35    33    34   ar
    36    34    35   ar
    37    35    36   ar
    38    36    37   ar
    39    37    38   ar
    40     6     1   ar
    41    17    11   ar
    42    28    23   ar
    43    38    29   ar
    44    36     4    1
    45    38    33   ar
    46     7    39    1
    47    21    40    1
@<TRIPOS>MOLECULE
*****
 42 47 0 0 0
SMALL
GASTEIGER

@<TRIPOS>ATOM
      1 C           0.0705    2.3385   26.5918 C.ar    1  UNL1        0.2400
      2 N          -0.2448    2.4479   25.1294 N.ar    1  UNL1       -0.2090
      3 C           0.5199    1.6270   24.1338 C.ar    1  UNL1        0.1021
      4 C           1.6616    0.5990   24.2634 C.ar    1  UNL1        0.0207
      5 C           1.2186    1.1651   25.5799 C.ar    1  UNL1        0.0221
      6 C           1.1506    1.4081   27.0585 C.ar    1  UNL1        0.1178
      7 N           1.4660    1.2986   28.5210 N.pl3   1  UNL1       -0.2104
      8 S           2.1266    0.8500   29.7907 S.O2    1  UNL1        0.0759
      9 O           1.9303    1.2060   31.2346 O.2     1  UNL1       -0.1499
     10 O           1.0449    1.8658   30.0105 O.2     1  UNL1       -0.1499
     11 C           3.0528    0.1162   30.7147 C.ar    1  UNL1        0.1527
     12 C           4.1328   -0.8141   31.1814 C.ar    1  UNL1        0.0293
     13 C           5.2365   -1.8289   31.1347 C.ar    1  UNL1        0.0822
     14 C           4.9052   -1.3513   32.5627 C.ar    1  UNL1        0.1468
     15 F           5.8313   -2.0851   33.4866 F       1  UNL1       -0.2039
     16 C           3.9110   -0.3745   33.1173 C.ar    1  UNL1        0.0608
     17 C           2.9848    0.3592   32.1934 C.ar    1  UNL1        0.1611
     18 F           1.9907    1.3360   32.7480 F       1  UNL1       -0.2027
     19 C           6.2306   -2.8057   30.5801 C.2     1  UNL1        0.2483
     20 O           6.8912   -3.2543   31.8498 O.2     1  UNL1       -0.2701
     21 N           6.9953   -3.6266   29.5845 N.am    1  UNL1       -0.2968
     22 C           7.4384   -4.1927   28.2680 C.3     1  UNL1        0.1181
     23 C           7.5063   -4.4357   26.7893 C.ar    1  UNL1        0.0166
     24 C           8.5005   -5.4125   26.2347 C.ar    1  UNL1        0.0962
     25 N           8.5684   -5.6555   24.7561 N.ar    1  UNL1       -0.2426
     26 C           7.6422   -4.9217   23.8321 C.ar    1  UNL1        0.0988
     27 C           6.6481   -3.9450   24.3867 C.ar    1  UNL1        0.0190
     28 C           6.5801   -3.7020   25.8653 C.ar    1  UNL1        0.0005
     29 C           5.6042   -3.1439   23.1332 C.ar    1  UNL1        0.0045
     30 C           6.3689   -3.9648   22.1376 C.ar    1  UNL1        0.0207
     31 C           6.0536   -3.8554   20.6751 C.ar    1  UNL1        0.0988
     32 N           4.9735   -2.9250   20.2084 N.ar    1  UNL1       -0.2438
     33 C           4.2088   -2.1040   21.2040 C.ar    1  UNL1        0.0813
     34 C           2.9757   -1.0191   20.8568 C.ar    1  UNL1        0.0191
     35 C           2.1687   -0.1670   21.7911 C.ar    1  UNL1        0.0016
     36 C           2.4263   -0.2219   23.2678 C.ar    1  UNL1        0.0016
     37 C           3.4205   -1.1987   22.7131 C.ar    1  UNL1        0.0015
     38 C           4.5241   -2.2135   22.6665 C.ar    1  UNL1        0.0177
     39 H           0.8135    1.9397   28.8850 H       1  UNL1        0.1739
     40 H           7.6032   -4.1082   30.1909 H       1  UNL1        0.1501
     41 C          -0.2088    4.5288   27.9609 C.3     1  UNL1        0.2543
     42 O          -0.6941    3.1594   27.5875 O.3     1  UNL1       -0.4553
@<TRIPOS>BOND
     1    41    42    1
     2    42     1    1
     3     1     2   ar
     4     2     3   ar
     5     3     4   ar
     6     4     5   ar
     7     5     6   ar
     8     6     7    1
     9     7     8    1
    10     8     9    2
    11     8    10    2
    12     8    11    1
    13    11    12   ar
    14    12    13   ar
    15    13    14   ar
    16    14    15    1
    17    14    16   ar
    18    16    17   ar
    19    17    18    1
    20    13    19    1
    21    19    20    2
    22    19    21   am
    23    21    22    1
    24    22    23    1
    25    23    24   ar
    26    24    25   ar
    27    25    26   ar
    28    26    27   ar
    29    27    28   ar
    30    27    29    1
    31    29    30   ar
    32    30    31   ar
    33    31    32   ar
    34    32    33   ar
    35    33    34   ar
    36    34    35   ar
    37    35    36   ar
    38    36    37   ar
    39    37    38   ar
    40     6     1   ar
    41    17    11   ar
    42    28    23   ar
    43    38    29   ar
    44    36     4    1
    45    38    33   ar
    46     7    39    1
    47    21    40    1
@<TRIPOS>MOLECULE
*****
 42 47 0 0 0
SMALL
GASTEIGER

@<TRIPOS>ATOM
      1 C         -10.5962   -5.7634   17.3956 C.ar    1  UNL1        0.2400
      2 N          -9.6901   -4.6177   17.0545 N.ar    1  UNL1       -0.2090
      3 C         -10.2114   -3.2118   17.0934 C.ar    1  UNL1        0.1021
      4 C         -11.5861   -2.6014   17.4321 C.ar    1  UNL1        0.0207
      5 C         -11.5570   -4.0974   17.5379 C.ar    1  UNL1        0.0221
      6 C         -12.0238   -5.5029   17.7757 C.ar    1  UNL1        0.1178
      7 N         -12.9300   -6.6486   18.1169 N.pl3   1  UNL1       -0.2104
      8 S         -14.1663   -7.3960   18.5202 S.O2    1  UNL1        0.0759
      9 O         -14.4711   -8.8516   18.7165 O.2     1  UNL1       -0.1499
     10 O         -12.9904   -8.2899   18.2588 O.2     1  UNL1       -0.1499
     11 C         -15.5837   -7.6552   18.9371 C.ar    1  UNL1        0.1527
     12 C         -17.0112   -7.3949   19.3172 C.ar    1  UNL1        0.0293
     13 C         -18.2766   -6.6464   19.6147 C.ar    1  UNL1        0.0822
     14 C         -18.4185   -8.1736   19.7708 C.ar    1  UNL1        0.1468
     15 F         -19.8359   -8.4328   20.1877 F       1  UNL1       -0.2039
     16 C         -17.4678   -9.3201   19.5918 C.ar    1  UNL1        0.0608
     17 C         -16.0504   -9.0609   19.1749 C.ar    1  UNL1        0.1611
     18 F         -15.0998  -10.2072   18.9959 F       1  UNL1       -0.2027
     19 C         -19.2273   -5.5001   19.7938 C.2     1  UNL1        0.2483
     20 O         -20.4636   -6.2475   20.1971 O.2     1  UNL1       -0.2701
     21 N         -19.7486   -4.0941   19.8328 N.am    1  UNL1       -0.2968
     22 C         -19.7776   -2.5982   19.7269 C.3     1  UNL1        0.1181
     23 C         -19.3109   -1.1925   19.4891 C.ar    1  UNL1        0.0166
     24 C         -20.2616   -0.0462   19.6681 C.ar    1  UNL1        0.0962
     25 N         -19.7948    1.3593   19.4303 N.ar    1  UNL1       -0.2426
     26 C         -18.3774    1.6185   19.0134 C.ar    1  UNL1        0.0988
     27 C         -17.4268    0.4722   18.8344 C.ar    1  UNL1        0.0190
     28 C         -17.8935   -0.9333   19.0722 C.ar    1  UNL1        0.0005
     29 C         -15.7510    0.9598   18.3277 C.ar    1  UNL1        0.0045
     30 C         -16.2723    2.3657   18.3667 C.ar    1  UNL1        0.0207
     31 C         -15.3661    3.5113   18.0255 C.ar    1  UNL1        0.0988
     32 N         -13.9386    3.2509   17.6454 N.ar    1  UNL1       -0.2438
     33 C         -13.4173    1.8450   17.6065 C.ar    1  UNL1        0.0813
     34 C         -11.8560    1.3767   17.2047 C.ar    1  UNL1        0.0191
     35 C         -11.2630    0.0002   17.1434 C.ar    1  UNL1        0.0016
     36 C         -12.1074   -1.1955   17.4710 C.ar    1  UNL1        0.0016
     37 C         -13.0581   -0.0491   17.6501 C.ar    1  UNL1        0.0015
     38 C         -14.3235    0.6993   17.9476 C.ar    1  UNL1        0.0177
     39 H         -12.3060   -7.4010   17.9994 H       1  UNL1        0.1739
     40 H         -20.6789   -4.2642   20.1064 H       1  UNL1        0.1501
     41 C          -9.4765   -7.7816   18.5883 C.3     1  UNL1        0.2543
     42 O         -10.0750   -7.1693   17.3567 O.3     1  UNL1       -0.4553
@<TRIPOS>BOND
     1    41    42    1
     2    42     1    1
     3     1     2   ar
     4     2     3   ar
     5     3     4   ar
     6     4     5   ar
     7     5     6   ar
     8     6     7    1
     9     7     8    1
    10     8     9    2
    11     8    10    2
    12     8    11    1
    13    11    12   ar
    14    12    13   ar
    15    13    14   ar
    16    14    15    1
    17    14    16   ar
    18    16    17   ar
    19    17    18    1
    20    13    19    1
    21    19    20    2
    22    19    21   am
    23    21    22    1
    24    22    23    1
    25    23    24   ar
    26    24    25   ar
    27    25    26   ar
    28    26    27   ar
    29    27    28   ar
    30    27    29    1
    31    29    30   ar
    32    30    31   ar
    33    31    32   ar
    34    32    33   ar
    35    33    34   ar
    36    34    35   ar
    37    35    36   ar
    38    36    37   ar
    39    37    38   ar
    40     6     1   ar
    41    17    11   ar
    42    28    23   ar
    43    38    29   ar
    44    36     4    1
    45    38    33   ar
    46     7    39    1
    47    21    40    1
@<TRIPOS>MOLECULE
*****
 42 47 0 0 0
SMALL
GASTEIGER

@<TRIPOS>ATOM
      1 C           7.0879   -3.6493   26.2957 C.ar    1  UNL1        0.2400
      2 N           7.8842   -4.2741   25.1886 N.ar    1  UNL1       -0.2090
      3 C           7.5536   -3.9628   23.7590 C.ar    1  UNL1        0.1021
      4 C           6.4908   -3.0697   23.0884 C.ar    1  UNL1        0.0207
      5 C           6.4216   -3.0539   24.5868 C.ar    1  UNL1        0.0221
      6 C           5.9611   -2.7131   25.9730 C.ar    1  UNL1        0.1178
      7 N           5.1648   -2.0882   27.0801 N.pl3   1  UNL1       -0.2104
      8 S           4.1289   -1.2548   27.7743 S.O2    1  UNL1        0.0759
      9 O           3.7949   -1.0196   29.2177 O.2     1  UNL1       -0.1499
     10 O           5.0151   -2.0101   28.7199 O.2     1  UNL1       -0.1499
     11 C           2.9781   -0.3132   27.9720 C.ar    1  UNL1        0.1527
     12 C           1.8513    0.6229   27.6494 C.ar    1  UNL1        0.0293
     13 C           0.8845    1.4407   26.8453 C.ar    1  UNL1        0.0822
     14 C           0.6765    1.5700   28.3675 C.ar    1  UNL1        0.1468
     15 F          -0.4743    2.5116   28.5653 F       1  UNL1       -0.2039
     16 C           1.3668    0.9693   29.5561 C.ar    1  UNL1        0.0608
     17 C           2.5176    0.0277   29.3584 C.ar    1  UNL1        0.1611
     18 F           3.2079   -0.5731   30.5469 F       1  UNL1       -0.2027
     19 C           0.1942    2.0414   25.6569 C.2     1  UNL1        0.2483
     20 O          -0.8418    2.8749   26.3511 O.2     1  UNL1       -0.2701
     21 N          -0.1363    2.3527   24.2272 N.am    1  UNL1       -0.2968
     22 C          -0.0671    2.3370   22.7289 C.3     1  UNL1        0.1181
     23 C           0.3934    1.9961   21.3426 C.ar    1  UNL1        0.0166
     24 C          -0.2969    2.5968   20.1541 C.ar    1  UNL1        0.0962
     25 N           0.1636    2.2560   18.7678 N.ar    1  UNL1       -0.2426
     26 C           1.3143    1.3144   18.5701 C.ar    1  UNL1        0.0988
     27 C           2.0046    0.7137   19.7586 C.ar    1  UNL1        0.0190
     28 C           1.5441    1.0545   21.1448 C.ar    1  UNL1        0.0005
     29 C           3.3764   -0.4038   19.3436 C.ar    1  UNL1        0.0045
     30 C           3.0459   -0.0925   17.9139 C.ar    1  UNL1        0.0207
     31 C           3.8422   -0.7174   16.8069 C.ar    1  UNL1        0.0988
     32 N           4.9689   -1.6535   17.1296 N.ar    1  UNL1       -0.2438
     33 C           5.2995   -1.9648   18.5592 C.ar    1  UNL1        0.0813
     34 C           6.5204   -2.9843   19.0957 C.ar    1  UNL1        0.0191
     35 C           6.9102   -3.3437   20.4990 C.ar    1  UNL1        0.0016
     36 C           6.1603   -2.7584   21.6588 C.ar    1  UNL1        0.0016
     37 C           5.4700   -2.1577   20.4702 C.ar    1  UNL1        0.0015
     38 C           4.5032   -1.3399   19.6662 C.ar    1  UNL1        0.0177
     39 H           5.6179   -2.4825   27.8601 H       1  UNL1        0.1739
     40 H          -0.8916    2.9707   24.3570 H       1  UNL1        0.1501
     41 C           6.7248   -5.0908   28.4264 C.3     1  UNL1        0.2543
     42 O           7.4184   -3.9605   27.7253 O.3     1  UNL1       -0.4553
@<TRIPOS>BOND
     1    41    42    1
     2    42     1    1
     3     1     2   ar
     4     2     3   ar
     5     3     4   ar
     6     4     5   ar
     7     5     6   ar
     8     6     7    1
     9     7     8    1
    10     8     9    2
    11     8    10    2
    12     8    11    1
    13    11    12   ar
    14    12    13   ar
    15    13    14   ar
    16    14    15    1
    17    14    16   ar
    18    16    17   ar
    19    17    18    1
    20    13    19    1
    21    19    20    2
    22    19    21   am
    23    21    22    1
    24    22    23    1
    25    23    24   ar
    26    24    25   ar
    27    25    26   ar
    28    26    27   ar
    29    27    28   ar
    30    27    29    1
    31    29    30   ar
    32    30    31   ar
    33    31    32   ar
    34    32    33   ar
    35    33    34   ar
    36    34    35   ar
    37    35    36   ar
    38    36    37   ar
    39    37    38   ar
    40     6     1   ar
    41    17    11   ar
    42    28    23   ar
    43    38    29   ar
    44    36     4    1
    45    38    33   ar
    46     7    39    1
    47    21    40    1
@<TRIPOS>MOLECULE
*****
 42 47 0 0 0
SMALL
GASTEIGER

@<TRIPOS>ATOM
      1 C           8.2516   -5.6415   26.8375 C.ar    1  UNL1        0.2400
      2 N           8.4022   -6.0262   25.3955 N.ar    1  UNL1       -0.2090
      3 C           7.5814   -5.3374   24.3458 C.ar    1  UNL1        0.1021
      4 C           6.5180   -4.2223   24.3962 C.ar    1  UNL1        0.0207
      5 C           7.0677   -4.5815   25.7449 C.ar    1  UNL1        0.0221
      6 C           7.2800   -4.5680   27.2297 C.ar    1  UNL1        0.1178
      7 N           7.1292   -4.1833   28.6717 N.pl3   1  UNL1       -0.2104
      8 S           6.6337   -3.4738   29.8968 S.O2    1  UNL1        0.0759
      9 O           6.9635   -3.5867   31.3558 O.2     1  UNL1       -0.1499
     10 O           7.6755   -4.5119   30.1919 O.2     1  UNL1       -0.1499
     11 C           5.8531   -2.5251   30.7574 C.ar    1  UNL1        0.1527
     12 C           4.8816   -1.4517   31.1497 C.ar    1  UNL1        0.0293
     13 C           3.8363   -0.3829   31.0262 C.ar    1  UNL1        0.0822
     14 C           4.2919   -0.6278   32.4787 C.ar    1  UNL1        0.1468
     15 F           3.5113    0.3209   33.3393 F       1  UNL1       -0.2039
     16 C           5.2848   -1.5629   33.1029 C.ar    1  UNL1        0.0608
     17 C           6.0654   -2.5116   32.2423 C.ar    1  UNL1        0.1611
     18 F           7.0583   -3.4467   32.8665 F       1  UNL1       -0.2027
     19 C           2.8435    0.5522   30.4020 C.2     1  UNL1        0.2483
     20 O           2.3479    1.2617   31.6272 O.2     1  UNL1       -0.2701
     21 N           2.0227    1.2410   29.3523 N.am    1  UNL1       -0.2968
     22 C           1.4730    1.6002   28.0037 C.3     1  UNL1        0.1181
     23 C           1.2607    1.5867   26.5188 C.ar    1  UNL1        0.0166
     24 C           0.2678    2.5218   25.8946 C.ar    1  UNL1        0.0962
     25 N           0.0555    2.5083   24.4098 N.ar    1  UNL1       -0.2426
     26 C           0.8361    1.5596   23.5492 C.ar    1  UNL1        0.0988
     27 C           1.8290    0.6245   24.1734 C.ar    1  UNL1        0.0190
     28 C           2.0413    0.6380   25.6582 C.ar    1  UNL1        0.0005
     29 C           2.6876   -0.4562   22.9911 C.ar    1  UNL1        0.0045
     30 C           1.8668    0.2326   21.9414 C.ar    1  UNL1        0.0207
     31 C           2.0175   -0.1521   20.4994 C.ar    1  UNL1        0.0988
     32 N           2.9890   -1.2256   20.1072 N.ar    1  UNL1       -0.2438
     33 C           3.8098   -1.9143   21.1569 C.ar    1  UNL1        0.0813
     34 C           4.9376   -3.1299   20.8949 C.ar    1  UNL1        0.0191
     35 C           5.7921   -3.8630   21.8862 C.ar    1  UNL1        0.0016
     36 C           5.6972   -3.5335   23.3465 C.ar    1  UNL1        0.0016
     37 C           4.7043   -2.5984   22.7223 C.ar    1  UNL1        0.0015
     38 C           3.6591   -1.5296   22.5989 C.ar    1  UNL1        0.0177
     39 H           7.7809   -4.7970   29.0814 H       1  UNL1        0.1739
     40 H           1.5103    1.8636   29.9172 H       1  UNL1        0.1501
     41 C           8.7922   -7.7613   28.2388 C.3     1  UNL1        0.2543
     42 O           9.0723   -6.3302   27.8872 O.3     1  UNL1       -0.4553
@<TRIPOS>BOND
     1    41    42    1
     2    42     1    1
     3     1     2   ar
     4     2     3   ar
     5     3     4   ar
     6     4     5   ar
     7     5     6   ar
     8     6     7    1
     9     7     8    1
    10     8     9    2
    11     8    10    2
    12     8    11    1
    13    11    12   ar
    14    12    13   ar
    15    13    14   ar
    16    14    15    1
    17    14    16   ar
    18    16    17   ar
    19    17    18    1
    20    13    19    1
    21    19    20    2
    22    19    21   am
    23    21    22    1
    24    22    23    1
    25    23    24   ar
    26    24    25   ar
    27    25    26   ar
    28    26    27   ar
    29    27    28   ar
    30    27    29    1
    31    29    30   ar
    32    30    31   ar
    33    31    32   ar
    34    32    33   ar
    35    33    34   ar
    36    34    35   ar
    37    35    36   ar
    38    36    37   ar
    39    37    38   ar
    40     6     1   ar
    41    17    11   ar
    42    28    23   ar
    43    38    29   ar
    44    36     4    1
    45    38    33   ar
    46     7    39    1
    47    21    40    1
@<TRIPOS>MOLECULE
*****
 42 47 0 0 0
SMALL
GASTEIGER

@<TRIPOS>ATOM
      1 C           8.1958   -4.8524   29.6725 C.ar    1  UNL1        0.2400
      2 N           8.1916   -4.6067   31.1522 N.ar    1  UNL1       -0.2090
      3 C           7.2613   -3.5879   31.7407 C.ar    1  UNL1        0.1021
      4 C           6.2069   -2.6413   31.1332 C.ar    1  UNL1        0.0207
      5 C           6.8990   -3.4945   30.1119 C.ar    1  UNL1        0.0221
      6 C           7.2695   -4.0792   28.7812 C.ar    1  UNL1        0.1178
      7 N           7.2736   -4.3249   27.3015 N.pl3   1  UNL1       -0.2104
      8 S           6.9109   -4.2018   25.8512 S.O2    1  UNL1        0.0759
      9 O           7.3957   -4.8858   24.6073 O.2     1  UNL1       -0.1499
     10 O           7.9808   -5.2205   26.1118 O.2     1  UNL1       -0.1499
     11 C           6.2251   -3.7250   24.6054 C.ar    1  UNL1        0.1527
     12 C           5.2989   -2.9518   23.7141 C.ar    1  UNL1        0.0293
     13 C           4.2439   -1.9756   23.2851 C.ar    1  UNL1        0.0822
     14 C           4.8534   -2.7713   22.1136 C.ar    1  UNL1        0.1468
     15 F           4.1675   -2.2944   20.8677 F       1  UNL1       -0.2039
     16 C           5.9098   -3.8329   22.0287 C.ar    1  UNL1        0.0608
     17 C           6.5956   -4.3097   23.2746 C.ar    1  UNL1        0.1611
     18 F           7.6519   -5.3713   23.1898 F       1  UNL1       -0.2027
     19 C           3.1876   -0.9140   23.3699 C.2     1  UNL1        0.2483
     20 O           2.8249   -0.7910   21.9197 O.2     1  UNL1       -0.2701
     21 N           2.2572    0.1048   23.9584 N.am    1  UNL1       -0.2968
     22 C           1.5651    0.9581   24.9796 C.3     1  UNL1        0.1181
     23 C           1.1945    1.5428   26.3104 C.ar    1  UNL1        0.0166
     24 C           0.1382    2.6044   26.3952 C.ar    1  UNL1        0.0962
     25 N          -0.2323    3.1891   27.7259 N.ar    1  UNL1       -0.2426
     26 C           0.4536    2.7122   28.9718 C.ar    1  UNL1        0.0988
     27 C           1.5099    1.6507   28.8869 C.ar    1  UNL1        0.0190
     28 C           1.8804    1.0660   27.5562 C.ar    1  UNL1        0.0005
     29 C           2.2390    1.1886   30.4862 C.ar    1  UNL1        0.0045
     30 C           1.3086    2.2075   31.0747 C.ar    1  UNL1        0.0207
     31 C           1.3045    2.4532   32.5545 C.ar    1  UNL1        0.0988
     32 N           2.2307    1.6799   33.4457 N.ar    1  UNL1       -0.2438
     33 C           3.1611    0.6611   32.8572 C.ar    1  UNL1        0.0813
     34 C           4.2570   -0.2877   33.7039 C.ar    1  UNL1        0.0191
     35 C           5.2147   -1.3214   33.1899 C.ar    1  UNL1        0.0016
     36 C           5.2765   -1.6224   31.7217 C.ar    1  UNL1        0.0016
     37 C           4.2201   -0.5608   31.8065 C.ar    1  UNL1        0.0015
     38 C           3.1652    0.4154   31.3774 C.ar    1  UNL1        0.0177
     39 H           7.9670   -5.0216   27.2458 H       1  UNL1        0.1739
     40 H           1.8071    0.4178   23.1407 H       1  UNL1        0.1501
     41 C           8.6697   -7.2889   28.9052 C.3     1  UNL1        0.2543
     42 O           9.1261   -5.8712   29.0839 O.3     1  UNL1       -0.4553
@<TRIPOS>BOND
     1    41    42    1
     2    42     1    1
     3     1     2   ar
     4     2     3   ar
     5     3     4   ar
     6     4     5   ar
     7     5     6   ar
     8     6     7    1
     9     7     8    1
    10     8     9    2
    11     8    10    2
    12     8    11    1
    13    11    12   ar
    14    12    13   ar
    15    13    14   ar
    16    14    15    1
    17    14    16   ar
    18    16    17   ar
    19    17    18    1
    20    13    19    1
    21    19    20    2
    22    19    21   am
    23    21    22    1
    24    22    23    1
    25    23    24   ar
    26    24    25   ar
    27    25    26   ar
    28    26    27   ar
    29    27    28   ar
    30    27    29    1
    31    29    30   ar
    32    30    31   ar
    33    31    32   ar
    34    32    33   ar
    35    33    34   ar
    36    34    35   ar
    37    35    36   ar
    38    36    37   ar
    39    37    38   ar
    40     6     1   ar
    41    17    11   ar
    42    28    23   ar
    43    38    29   ar
    44    36     4    1
    45    38    33   ar
    46     7    39    1
    47    21    40    1
@<TRIPOS>MOLECULE
*****
 42 47 0 0 0
SMALL
GASTEIGER

@<TRIPOS>ATOM
      1 C           0.7241    2.1306   24.7489 C.ar    1  UNL1        0.2400
      2 N           0.9282    1.7236   23.3198 N.ar    1  UNL1       -0.2090
      3 C           1.9042    0.6358   22.9818 C.ar    1  UNL1        0.1021
      4 C           2.8380   -0.2499   23.8305 C.ar    1  UNL1        0.0207
      5 C           2.0330    0.7182   24.6459 C.ar    1  UNL1        0.0221
      6 C           1.4962    1.4498   25.8402 C.ar    1  UNL1        0.1178
      7 N           1.2921    1.8569   27.2694 N.pl3   1  UNL1       -0.2104
      8 S           1.4456    1.8901   28.7611 S.O2    1  UNL1        0.0759
      9 O           0.8103    2.7122   29.8432 O.2     1  UNL1       -0.1499
     10 O           0.4499    2.8858   28.2439 O.2     1  UNL1       -0.1499
     11 C           1.9380    1.5456   30.1355 C.ar    1  UNL1        0.1527
     12 C           2.7099    0.8650   31.2267 C.ar    1  UNL1        0.0293
     13 C           3.6684   -0.0699   31.9031 C.ar    1  UNL1        0.0822
     14 C           2.9228    0.8567   32.8842 C.ar    1  UNL1        0.1468
     15 F           3.4152    0.5122   34.2586 F       1  UNL1       -0.2039
     16 C           1.8935    1.9329   32.7042 C.ar    1  UNL1        0.0608
     17 C           1.4011    2.2774   31.3298 C.ar    1  UNL1        0.1611
     18 F           0.3718    3.3535   31.1498 F       1  UNL1       -0.2027
     19 C           4.6977   -1.1460   32.0832 C.2     1  UNL1        0.2483
     20 O           4.8511   -1.1127   33.5749 O.2     1  UNL1       -0.2701
     21 N           5.6737   -2.2337   31.7452 N.am    1  UNL1       -0.2968
     22 C           6.4786   -3.2018   30.9298 C.3     1  UNL1        0.1181
     23 C           7.0156   -3.9335   29.7354 C.ar    1  UNL1        0.0166
     24 C           8.0448   -5.0097   29.9155 C.ar    1  UNL1        0.0962
     25 N           8.5817   -5.7413   28.7212 N.ar    1  UNL1       -0.2426
     26 C           8.0893   -5.3968   27.3468 C.ar    1  UNL1        0.0988
     27 C           7.0600   -4.3207   27.1668 C.ar    1  UNL1        0.0190
     28 C           6.5232   -3.5890   28.3611 C.ar    1  UNL1        0.0005
     29 C           6.5738   -4.0293   25.4401 C.ar    1  UNL1        0.0045
     30 C           7.5498   -5.1170   25.1021 C.ar    1  UNL1        0.0207
     31 C           7.7538   -5.5241   23.6728 C.ar    1  UNL1        0.0988
     32 N           6.9818   -4.8433   22.5817 N.ar    1  UNL1       -0.2438
     33 C           6.0058   -3.7556   22.9197 C.ar    1  UNL1        0.0813
     34 C           5.0643   -2.8936   21.8294 C.ar    1  UNL1        0.0191
     35 C           4.0720   -1.7989   22.0886 C.ar    1  UNL1        0.0016
     36 C           3.8140   -1.3376   23.4925 C.ar    1  UNL1        0.0016
     37 C           4.8434   -2.4138   23.6725 C.ar    1  UNL1        0.0015
     38 C           5.8018   -3.3486   24.3490 C.ar    1  UNL1        0.0177
     39 H           0.6166    2.5632   27.1513 H       1  UNL1        0.1739
     40 H           5.9968   -2.4598   32.6472 H       1  UNL1        0.1501
     41 C          -1.7023    2.8900   25.2832 C.3     1  UNL1        0.2543
     42 O          -0.2518    3.2183   25.0870 O.3     1  UNL1       -0.4553
@<TRIPOS>BOND
     1    41    42    1
     2    42     1    1
     3     1     2   ar
     4     2     3   ar
     5     3     4   ar
     6     4     5   ar
     7     5     6   ar
     8     6     7    1
     9     7     8    1
    10     8     9    2
    11     8    10    2
    12     8    11    1
    13    11    12   ar
    14    12    13   ar
    15    13    14   ar
    16    14    15    1
    17    14    16   ar
    18    16    17   ar
    19    17    18    1
    20    13    19    1
    21    19    20    2
    22    19    21   am
    23    21    22    1
    24    22    23    1
    25    23    24   ar
    26    24    25   ar
    27    25    26   ar
    28    26    27   ar
    29    27    28   ar
    30    27    29    1
    31    29    30   ar
    32    30    31   ar
    33    31    32   ar
    34    32    33   ar
    35    33    34   ar
    36    34    35   ar
    37    35    36   ar
    38    36    37   ar
    39    37    38   ar
    40     6     1   ar
    41    17    11   ar
    42    28    23   ar
    43    38    29   ar
    44    36     4    1
    45    38    33   ar
    46     7    39    1
    47    21    40    1
