@<TRIPOS>MOLECULE
*****
 37 41 0 0 0
SMALL
GASTEIGER

@<TRIPOS>ATOM
      1 C           3.9384   -0.6835   33.3486 C.3     1  UNL1        0.0570
      2 C           4.5047   -0.6579   31.9598 C.ar    1  UNL1        0.1145
      3 N           5.9544   -0.7857   31.5963 N.ar    1  UNL1       -0.0800
      4 O           6.0664   -0.7068   30.1025 O.2     1  UNL1       -0.3524
      5 C           4.6859   -0.5302   29.5429 C.ar    1  UNL1        0.1899
      6 C           3.7208   -0.5000   30.6907 C.ar    1  UNL1        0.1073
      7 C           4.3327   -0.4057   28.0904 C.ar    1  UNL1        0.0385
      8 C           3.9634    0.9316   27.5202 C.ar    1  UNL1        0.0032
      9 C           3.6102    1.0561   26.0678 C.ar    1  UNL1        0.0001
     10 C           3.6262   -0.1569   25.1854 C.ar    1  UNL1        0.0000
     11 C           3.9955   -1.4942   25.7555 C.ar    1  UNL1        0.0001
     12 C           4.3487   -1.6186   27.2080 C.ar    1  UNL1        0.0032
     13 C           3.2729   -0.0324   23.7329 C.ar    1  UNL1       -0.0000
     14 C           2.9530    1.3128   23.1515 C.ar    1  UNL1       -0.0003
     15 C           2.5997    1.4373   21.6989 C.ar    1  UNL1       -0.0039
     16 C           2.5664    0.2165   20.8279 C.ar    1  UNL1       -0.0179
     17 C           2.8865   -1.1287   21.4094 C.ar    1  UNL1       -0.0039
     18 C           3.2397   -1.2531   22.8618 C.ar    1  UNL1       -0.0003
     19 C           2.2132    0.3410   19.3754 C.3     1  UNL1        0.0509
     20 C           2.3437    0.2764   17.8825 C.3     1  UNL1        0.0100
     21 C           3.4835   -0.1600   18.7546 C.3     1  UNL1        0.0100
     22 C           0.8203    0.8852   19.4918 C.2     1  UNL1        0.0534
     23 O          -0.1613    0.2404   20.4251 O.co2   1  UNL1       -0.5489
     24 O           0.4088    2.0740   18.6750 O.co2   1  UNL1       -0.5489
     25 N           2.2329   -0.3400   30.5877 N.am    1  UNL1       -0.2461
     26 C           1.6286    1.0313   30.5233 C.2     1  UNL1        0.4057
     27 O           2.5123    2.2429   30.5620 O.2     1  UNL1       -0.2261
     28 H           1.6530   -1.1351   30.5623 H       1  UNL1        0.1583
     29 O           0.1408    1.1913   30.4202 O.3     1  UNL1       -0.4337
     30 C          -0.5585    0.8878   29.1284 C.3     1  UNL1        0.1928
     31 C          -1.6130   -0.1777   29.0787 C.3     1  UNL1        0.0525
     32 C          -0.2032    1.6499   27.8862 C.ar    1  UNL1        0.0173
     33 C           0.2210    3.0855   27.9825 C.ar    1  UNL1       -0.0008
     34 C           0.5763    3.8475   26.7404 C.ar    1  UNL1       -0.0002
     35 C           0.5074    3.1742   25.4018 C.ar    1  UNL1       -0.0000
     36 C           0.0832    1.7386   25.3055 C.ar    1  UNL1       -0.0002
     37 C          -0.2721    0.9765   26.5477 C.ar    1  UNL1       -0.0008
@<TRIPOS>UNITY_ATOM_ATTR
23 1
charge -1
@<TRIPOS>BOND
     1     1     2    1
     2     2     3   ar
     3     3     4   ar
     4     4     5   ar
     5     5     7    1
     6     7     8   ar
     7     8     9   ar
     8     9    10   ar
     9    10    13    1
    10    13    14   ar
    11    14    15   ar
    12    15    16   ar
    13    16    19    1
    14    19    22    1
    15    22    23   ar
    16    22    24   ar
    17    19    20    1
    18    20    21    1
    19    16    17   ar
    20    17    18   ar
    21    10    11   ar
    22    11    12   ar
    23     5     6   ar
    24     6    25    1
    25    25    26   am
    26    26    27    2
    27    26    29    1
    28    29    30    1
    29    30    31    1
    30    30    32    1
    31    32    33   ar
    32    33    34   ar
    33    34    35   ar
    34    35    36   ar
    35    36    37   ar
    36     6     2   ar
    37    37    32   ar
    38    12     7   ar
    39    18    13   ar
    40    21    19    1
    41    25    28    1
@<TRIPOS>MOLECULE
*****
 37 41 0 0 0
SMALL
GASTEIGER

@<TRIPOS>ATOM
      1 C           7.8595   -4.4067   20.8279 C.3     1  UNL1        0.0570
      2 C           6.8003   -3.8562   21.7363 C.ar    1  UNL1        0.1145
      3 N           6.5144   -4.3136   23.1361 N.ar    1  UNL1       -0.0800
      4 O           5.3785   -3.4917   23.6693 O.2     1  UNL1       -0.3524
      5 C           4.9624   -2.5265   22.5991 C.ar    1  UNL1        0.1899
      6 C           5.8411   -2.7518   21.4045 C.ar    1  UNL1        0.1073
      7 C           3.8609   -1.5138   22.7050 C.ar    1  UNL1        0.0385
      8 C           3.0854   -1.1185   21.4834 C.ar    1  UNL1        0.0032
      9 C           1.9840   -0.1059   21.5894 C.ar    1  UNL1        0.0001
     10 C           1.6580    0.5116   22.9170 C.ar    1  UNL1        0.0000
     11 C           2.4335    0.1164   24.1386 C.ar    1  UNL1        0.0001
     12 C           3.5349   -0.8963   24.0326 C.ar    1  UNL1        0.0032
     13 C           0.5565    1.5244   23.0229 C.ar    1  UNL1       -0.0000
     14 C           0.0172    2.1781   21.7853 C.ar    1  UNL1       -0.0003
     15 C          -1.0843    3.1909   21.8912 C.ar    1  UNL1       -0.0039
     16 C          -1.6464    3.5498   23.2347 C.ar    1  UNL1       -0.0179
     17 C          -1.1071    2.8959   24.4724 C.ar    1  UNL1       -0.0039
     18 C          -0.0056    1.8833   24.3664 C.ar    1  UNL1       -0.0003
     19 C          -2.7478    4.5624   23.3407 C.3     1  UNL1        0.0509
     20 C          -3.4460    5.8901   23.3492 C.3     1  UNL1        0.0100
     21 C          -1.9689    5.8210   23.0967 C.3     1  UNL1        0.0100
     22 C          -3.9093    3.6557   23.6215 C.2     1  UNL1        0.0534
     23 O          -4.4688    3.5617   25.0101 O.co2   1  UNL1       -0.5489
     24 O          -4.5112    2.8430   22.5137 O.co2   1  UNL1       -0.5489
     25 N           5.7727   -2.0039   20.1061 N.am    1  UNL1       -0.2461
     26 C           5.1956   -2.6647   18.8894 C.2     1  UNL1        0.4057
     27 O           4.6868   -4.0735   18.9712 O.2     1  UNL1       -0.2261
     28 H           6.1066   -1.0793   20.0524 H       1  UNL1        0.1583
     29 O           5.1271   -1.9168   17.5910 O.3     1  UNL1       -0.4337
     30 C           5.2636   -0.4231   17.5777 C.3     1  UNL1        0.1928
     31 C           6.5719    0.2072   17.2025 C.3     1  UNL1        0.0525
     32 C           4.0916    0.4403   17.9396 C.ar    1  UNL1        0.0173
     33 C           4.3113    1.8585   18.3761 C.ar    1  UNL1       -0.0008
     34 C           3.1393    2.7219   18.7380 C.ar    1  UNL1       -0.0002
     35 C           1.7476    2.1672   18.6634 C.ar    1  UNL1       -0.0000
     36 C           1.5280    0.7491   18.2269 C.ar    1  UNL1       -0.0002
     37 C           2.7000   -0.1145   17.8650 C.ar    1  UNL1       -0.0008
@<TRIPOS>UNITY_ATOM_ATTR
23 1
charge -1
@<TRIPOS>BOND
     1     1     2    1
     2     2     3   ar
     3     3     4   ar
     4     4     5   ar
     5     5     7    1
     6     7     8   ar
     7     8     9   ar
     8     9    10   ar
     9    10    13    1
    10    13    14   ar
    11    14    15   ar
    12    15    16   ar
    13    16    19    1
    14    19    22    1
    15    22    23   ar
    16    22    24   ar
    17    19    20    1
    18    20    21    1
    19    16    17   ar
    20    17    18   ar
    21    10    11   ar
    22    11    12   ar
    23     5     6   ar
    24     6    25    1
    25    25    26   am
    26    26    27    2
    27    26    29    1
    28    29    30    1
    29    30    31    1
    30    30    32    1
    31    32    33   ar
    32    33    34   ar
    33    34    35   ar
    34    35    36   ar
    35    36    37   ar
    36     6     2   ar
    37    37    32   ar
    38    12     7   ar
    39    18    13   ar
    40    21    19    1
    41    25    28    1
@<TRIPOS>MOLECULE
*****
 37 41 0 0 0
SMALL
GASTEIGER

@<TRIPOS>ATOM
      1 C           7.1489   -5.4586   27.7783 C.3     1  UNL1        0.0570
      2 C           6.9976   -5.1450   29.2374 C.ar    1  UNL1        0.1145
      3 N           7.2748   -6.0835   30.3742 N.ar    1  UNL1       -0.0800
      4 O           6.9911   -5.3565   31.6552 O.2     1  UNL1       -0.3524
      5 C           6.5385   -3.9686   31.3100 C.ar    1  UNL1        0.1899
      6 C           6.5425   -3.8380   29.8157 C.ar    1  UNL1        0.1073
      7 C           6.1501   -2.8992   32.2876 C.ar    1  UNL1        0.0385
      8 C           7.1505   -1.8602   32.6992 C.ar    1  UNL1        0.0032
      9 C           6.7621   -0.7908   33.6767 C.ar    1  UNL1        0.0001
     10 C           5.3732   -0.7605   34.2426 C.ar    1  UNL1        0.0000
     11 C           4.3728   -1.7996   33.8309 C.ar    1  UNL1        0.0001
     12 C           4.7613   -2.8689   32.8534 C.ar    1  UNL1        0.0032
     13 C           4.9848    0.3089   35.2202 C.ar    1  UNL1       -0.0000
     14 C           4.6146   -0.0590   36.6264 C.ar    1  UNL1       -0.0003
     15 C           4.2262    1.0104   37.6040 C.ar    1  UNL1       -0.0039
     16 C           4.2080    2.4477   37.1752 C.ar    1  UNL1       -0.0179
     17 C           4.5783    2.8156   35.7689 C.ar    1  UNL1       -0.0039
     18 C           4.9667    1.7462   34.7914 C.ar    1  UNL1       -0.0003
     19 C           3.8196    3.5171   38.1527 C.3     1  UNL1        0.0509
     20 C           3.9214    4.7307   39.0284 C.3     1  UNL1        0.0100
     21 C           5.0961    4.3036   38.1991 C.3     1  UNL1        0.0100
     22 C           2.4084    3.1021   38.4457 C.2     1  UNL1        0.0534
     23 O           1.3577    3.2119   37.3806 O.co2   1  UNL1       -0.5489
     24 O           2.0475    2.5772   39.8038 O.co2   1  UNL1       -0.5489
     25 N           6.1589   -2.6150   29.0366 N.am    1  UNL1       -0.2461
     26 C           7.1400   -1.4926   28.8712 C.2     1  UNL1        0.4057
     27 O           8.5051   -1.5931   29.4850 O.2     1  UNL1       -0.2261
     28 H           5.2630   -2.5490   28.6337 H       1  UNL1        0.1583
     29 O           6.7564   -0.2696   28.0920 O.3     1  UNL1       -0.4337
     30 C           5.3153    0.1348   27.9924 C.3     1  UNL1        0.1928
     31 C           4.6842    0.3365   26.6467 C.3     1  UNL1        0.0525
     32 C           4.5054    0.3375   29.2386 C.ar    1  UNL1        0.0173
     33 C           3.3247   -0.5446   29.5175 C.ar    1  UNL1       -0.0008
     34 C           2.5148   -0.3419   30.7636 C.ar    1  UNL1       -0.0002
     35 C           2.8855    0.7428   31.7310 C.ar    1  UNL1       -0.0000
     36 C           4.0663    1.6249   31.4521 C.ar    1  UNL1       -0.0002
     37 C           4.8763    1.4223   30.2059 C.ar    1  UNL1       -0.0008
@<TRIPOS>UNITY_ATOM_ATTR
23 1
charge -1
@<TRIPOS>BOND
     1     1     2    1
     2     2     3   ar
     3     3     4   ar
     4     4     5   ar
     5     5     7    1
     6     7     8   ar
     7     8     9   ar
     8     9    10   ar
     9    10    13    1
    10    13    14   ar
    11    14    15   ar
    12    15    16   ar
    13    16    19    1
    14    19    22    1
    15    22    23   ar
    16    22    24   ar
    17    19    20    1
    18    20    21    1
    19    16    17   ar
    20    17    18   ar
    21    10    11   ar
    22    11    12   ar
    23     5     6   ar
    24     6    25    1
    25    25    26   am
    26    26    27    2
    27    26    29    1
    28    29    30    1
    29    30    31    1
    30    30    32    1
    31    32    33   ar
    32    33    34   ar
    33    34    35   ar
    34    35    36   ar
    35    36    37   ar
    36     6     2   ar
    37    37    32   ar
    38    12     7   ar
    39    18    13   ar
    40    21    19    1
    41    25    28    1
@<TRIPOS>MOLECULE
*****
 37 41 0 0 0
SMALL
GASTEIGER

@<TRIPOS>ATOM
      1 C           0.4310    4.6089   30.3547 C.3     1  UNL1        0.0570
      2 C           0.5739    4.3706   28.8806 C.ar    1  UNL1        0.1145
      3 N           0.1664    5.3175   27.7909 N.ar    1  UNL1       -0.0800
      4 O           0.4900    4.6758   26.4743 O.2     1  UNL1       -0.3524
      5 C           1.0974    3.3323   26.7503 C.ar    1  UNL1        0.1899
      6 C           1.1493    3.1437   28.2375 C.ar    1  UNL1        0.1073
      7 C           1.5700    2.3499   25.7199 C.ar    1  UNL1        0.0385
      8 C           0.5759    1.5184   24.9648 C.ar    1  UNL1        0.0032
      9 C           1.0485    0.5361   23.9345 C.ar    1  UNL1        0.0001
     10 C           2.5153    0.3852   23.6593 C.ar    1  UNL1        0.0000
     11 C           3.5095    1.2167   24.4144 C.ar    1  UNL1        0.0001
     12 C           3.0368    2.1990   25.4447 C.ar    1  UNL1        0.0032
     13 C           2.9879   -0.5972   22.6290 C.ar    1  UNL1       -0.0000
     14 C           2.5112   -0.4848   21.2112 C.ar    1  UNL1       -0.0003
     15 C           2.9838   -1.4672   20.1809 C.ar    1  UNL1       -0.0039
     16 C           3.9332   -2.5620   20.5683 C.ar    1  UNL1       -0.0179
     17 C           4.4100   -2.6744   21.9862 C.ar    1  UNL1       -0.0039
     18 C           3.9373   -1.6920   23.0164 C.ar    1  UNL1       -0.0003
     19 C           4.4058   -3.5444   19.5381 C.3     1  UNL1        0.0509
     20 C           4.5314   -4.8213   18.7611 C.3     1  UNL1        0.0100
     21 C           3.5707   -4.7337   19.9098 C.3     1  UNL1        0.0100
     22 C           5.4050   -2.6963   18.8085 C.2     1  UNL1        0.0534
     23 O           6.7377   -2.4036   19.4319 O.co2   1  UNL1       -0.5489
     24 O           5.0718   -2.1408   17.4556 O.co2   1  UNL1       -0.5489
     25 N           1.6828    1.9397   28.9555 N.am    1  UNL1       -0.2461
     26 C           0.7737    0.7879   29.2666 C.2     1  UNL1        0.4057
     27 O          -0.6692    0.8402   28.8596 O.2     1  UNL1       -0.2261
     28 H           2.6297    1.9054   29.2226 H       1  UNL1        0.1583
     29 O           1.3072   -0.4161   29.9846 O.3     1  UNL1       -0.4337
     30 C           2.7767   -0.5343   30.2613 C.3     1  UNL1        0.1928
     31 C           3.3013   -0.2904   31.6452 C.3     1  UNL1        0.0525
     32 C           3.7216   -0.8965   29.1540 C.ar    1  UNL1        0.0173
     33 C           5.1820   -1.0791   29.4439 C.ar    1  UNL1       -0.0008
     34 C           6.1269   -1.4412   28.3367 C.ar    1  UNL1       -0.0002
     35 C           5.6115   -1.6209   26.9396 C.ar    1  UNL1       -0.0000
     36 C           4.1512   -1.4383   26.6496 C.ar    1  UNL1       -0.0002
     37 C           3.2062   -1.0761   27.7569 C.ar    1  UNL1       -0.0008
@<TRIPOS>UNITY_ATOM_ATTR
23 1
charge -1
@<TRIPOS>BOND
     1     1     2    1
     2     2     3   ar
     3     3     4   ar
     4     4     5   ar
     5     5     7    1
     6     7     8   ar
     7     8     9   ar
     8     9    10   ar
     9    10    13    1
    10    13    14   ar
    11    14    15   ar
    12    15    16   ar
    13    16    19    1
    14    19    22    1
    15    22    23   ar
    16    22    24   ar
    17    19    20    1
    18    20    21    1
    19    16    17   ar
    20    17    18   ar
    21    10    11   ar
    22    11    12   ar
    23     5     6   ar
    24     6    25    1
    25    25    26   am
    26    26    27    2
    27    26    29    1
    28    29    30    1
    29    30    31    1
    30    30    32    1
    31    32    33   ar
    32    33    34   ar
    33    34    35   ar
    34    35    36   ar
    35    36    37   ar
    36     6     2   ar
    37    37    32   ar
    38    12     7   ar
    39    18    13   ar
    40    21    19    1
    41    25    28    1
@<TRIPOS>MOLECULE
*****
 37 41 0 0 0
SMALL
GASTEIGER

@<TRIPOS>ATOM
      1 C           1.1149    3.9592   30.7285 C.3     1  UNL1        0.0570
      2 C           1.1385    3.7374   29.2452 C.ar    1  UNL1        0.1145
      3 N           0.5909    4.6698   28.2055 N.ar    1  UNL1       -0.0800
      4 O           0.8278    4.0529   26.8589 O.2     1  UNL1       -0.3524
      5 C           1.5217    2.7394   27.0663 C.ar    1  UNL1        0.1899
      6 C           1.7138    2.5444   28.5411 C.ar    1  UNL1        0.1073
      7 C           1.9487    1.7878   25.9881 C.ar    1  UNL1        0.0385
      8 C           2.7925    0.5960   26.3307 C.ar    1  UNL1        0.0032
      9 C           3.2194   -0.3555   25.2525 C.ar    1  UNL1        0.0001
     10 C           2.8025   -0.1150   23.8318 C.ar    1  UNL1        0.0000
     11 C           1.9587    1.0768   23.4893 C.ar    1  UNL1        0.0001
     12 C           1.5318    2.0283   24.5674 C.ar    1  UNL1        0.0032
     13 C           3.2295   -1.0666   22.7537 C.ar    1  UNL1       -0.0000
     14 C           4.1312   -2.2188   23.0841 C.ar    1  UNL1       -0.0003
     15 C           4.5582   -3.1703   22.0060 C.ar    1  UNL1       -0.0039
     16 C           4.0834   -2.9695   20.5973 C.ar    1  UNL1       -0.0179
     17 C           3.1816   -1.8172   20.2669 C.ar    1  UNL1       -0.0039
     18 C           2.7547   -0.8658   21.3450 C.ar    1  UNL1       -0.0003
     19 C           4.5103   -3.9209   19.5192 C.3     1  UNL1        0.0509
     20 C           4.5546   -5.1498   18.6601 C.3     1  UNL1        0.0100
     21 C           3.5567   -5.0501   19.7756 C.3     1  UNL1        0.0100
     22 C           5.6121   -3.1223   18.8883 C.2     1  UNL1        0.0534
     23 O           5.3807   -2.4292   17.5782 O.co2   1  UNL1       -0.5489
     24 O           6.9454   -3.0167   19.5673 O.co2   1  UNL1       -0.5489
     25 N           2.3665    1.3637   29.1968 N.am    1  UNL1       -0.2461
     26 C           1.5323    0.3606   29.9370 C.2     1  UNL1        0.4057
     27 O           0.0452    0.5383   30.0216 O.2     1  UNL1       -0.2261
     28 H           3.3425    1.2471   29.1413 H       1  UNL1        0.1583
     29 O           2.1850   -0.8200   30.5927 O.3     1  UNL1       -0.4337
     30 C           3.3264   -0.6137   31.5438 C.3     1  UNL1        0.1928
     31 C           3.2448    0.4557   32.5925 C.3     1  UNL1        0.0525
     32 C           4.5493   -1.4768   31.4463 C.ar    1  UNL1        0.0173
     33 C           4.9078   -2.3996   32.5732 C.ar    1  UNL1       -0.0008
     34 C           6.1307   -3.2627   32.4757 C.ar    1  UNL1       -0.0002
     35 C           6.9952   -3.2030   31.2513 C.ar    1  UNL1       -0.0000
     36 C           6.6367   -2.2802   30.1245 C.ar    1  UNL1       -0.0002
     37 C           5.4137   -1.4170   30.2219 C.ar    1  UNL1       -0.0008
@<TRIPOS>UNITY_ATOM_ATTR
23 1
charge -1
@<TRIPOS>BOND
     1     1     2    1
     2     2     3   ar
     3     3     4   ar
     4     4     5   ar
     5     5     7    1
     6     7     8   ar
     7     8     9   ar
     8     9    10   ar
     9    10    13    1
    10    13    14   ar
    11    14    15   ar
    12    15    16   ar
    13    16    19    1
    14    19    22    1
    15    22    23   ar
    16    22    24   ar
    17    19    20    1
    18    20    21    1
    19    16    17   ar
    20    17    18   ar
    21    10    11   ar
    22    11    12   ar
    23     5     6   ar
    24     6    25    1
    25    25    26   am
    26    26    27    2
    27    26    29    1
    28    29    30    1
    29    30    31    1
    30    30    32    1
    31    32    33   ar
    32    33    34   ar
    33    34    35   ar
    34    35    36   ar
    35    36    37   ar
    36     6     2   ar
    37    37    32   ar
    38    12     7   ar
    39    18    13   ar
    40    21    19    1
    41    25    28    1
@<TRIPOS>MOLECULE
*****
 37 41 0 0 0
SMALL
GASTEIGER

@<TRIPOS>ATOM
      1 C          -3.9278    5.4459   27.1760 C.3     1  UNL1        0.0570
      2 C          -2.5735    4.9413   26.7747 C.ar    1  UNL1        0.1145
      3 N          -1.2600    5.3986   27.3368 N.ar    1  UNL1       -0.0800
      4 O          -0.1696    4.6308   26.6503 O.2     1  UNL1       -0.3524
      5 C          -0.8090    3.6990   25.6639 C.ar    1  UNL1        0.1899
      6 C          -2.2947    3.8910   25.7408 C.ar    1  UNL1        0.1073
      7 C          -0.0891    2.7431   24.7594 C.ar    1  UNL1        0.0385
      8 C          -0.1907    2.8981   23.2709 C.ar    1  UNL1        0.0032
      9 C           0.5292    1.9422   22.3665 C.ar    1  UNL1        0.0001
     10 C           1.3507    0.8314   22.9506 C.ar    1  UNL1        0.0000
     11 C           1.4523    0.6764   24.4391 C.ar    1  UNL1        0.0001
     12 C           0.7324    1.6323   25.3435 C.ar    1  UNL1        0.0032
     13 C           2.0707   -0.1246   22.0461 C.ar    1  UNL1       -0.0000
     14 C           1.6476   -0.2649   20.6139 C.ar    1  UNL1       -0.0003
     15 C           2.3675   -1.2209   19.7094 C.ar    1  UNL1       -0.0039
     16 C           3.5105   -2.0363   20.2372 C.ar    1  UNL1       -0.0179
     17 C           3.9336   -1.8959   21.6695 C.ar    1  UNL1       -0.0039
     18 C           3.2137   -0.9400   22.5739 C.ar    1  UNL1       -0.0003
     19 C           4.2304   -2.9922   19.3328 C.3     1  UNL1        0.0509
     20 C           4.6501   -4.2820   18.6923 C.3     1  UNL1        0.0100
     21 C           3.6157   -4.2858   19.7788 C.3     1  UNL1        0.0100
     22 C           5.0951   -2.0306   18.5728 C.2     1  UNL1        0.0534
     23 O           6.3459   -1.4898   19.1998 O.co2   1  UNL1       -0.5489
     24 O           4.7091   -1.6098   17.1857 O.co2   1  UNL1       -0.5489
     25 N          -3.3213    3.1607   24.9267 N.am    1  UNL1       -0.2461
     26 C          -3.8911    3.7961   23.6932 C.2     1  UNL1        0.4057
     27 O          -3.4341    5.1619   23.2737 O.2     1  UNL1       -0.2261
     28 H          -3.6212    2.2644   25.2020 H       1  UNL1        0.1583
     29 O          -4.9177    3.0659   22.8791 O.3     1  UNL1       -0.4337
     30 C          -5.9012    3.8350   22.0477 C.3     1  UNL1        0.1928
     31 C          -7.1044    4.4564   22.6926 C.3     1  UNL1        0.0525
     32 C          -5.6815    3.9826   20.5712 C.ar    1  UNL1        0.0173
     33 C          -4.3327    3.6950   19.9812 C.ar    1  UNL1       -0.0008
     34 C          -4.1129    3.8426   18.5048 C.ar    1  UNL1       -0.0002
     35 C          -5.2419    4.2778   17.6183 C.ar    1  UNL1       -0.0000
     36 C          -6.5907    4.5653   18.2082 C.ar    1  UNL1       -0.0002
     37 C          -6.8105    4.4177   19.6847 C.ar    1  UNL1       -0.0008
@<TRIPOS>UNITY_ATOM_ATTR
23 1
charge -1
@<TRIPOS>BOND
     1     1     2    1
     2     2     3   ar
     3     3     4   ar
     4     4     5   ar
     5     5     7    1
     6     7     8   ar
     7     8     9   ar
     8     9    10   ar
     9    10    13    1
    10    13    14   ar
    11    14    15   ar
    12    15    16   ar
    13    16    19    1
    14    19    22    1
    15    22    23   ar
    16    22    24   ar
    17    19    20    1
    18    20    21    1
    19    16    17   ar
    20    17    18   ar
    21    10    11   ar
    22    11    12   ar
    23     5     6   ar
    24     6    25    1
    25    25    26   am
    26    26    27    2
    27    26    29    1
    28    29    30    1
    29    30    31    1
    30    30    32    1
    31    32    33   ar
    32    33    34   ar
    33    34    35   ar
    34    35    36   ar
    35    36    37   ar
    36     6     2   ar
    37    37    32   ar
    38    12     7   ar
    39    18    13   ar
    40    21    19    1
    41    25    28    1
@<TRIPOS>MOLECULE
*****
 37 41 0 0 0
SMALL
GASTEIGER

@<TRIPOS>ATOM
      1 C           1.0215    2.0750   31.5477 C.3     1  UNL1        0.0570
      2 C           1.6414    1.1598   30.5337 C.ar    1  UNL1        0.1145
      3 N           2.3583   -0.1248   30.8272 N.ar    1  UNL1       -0.0800
      4 O           2.8132   -0.7100   29.5231 O.2     1  UNL1       -0.3524
      5 C           2.3775    0.2128   28.4238 C.ar    1  UNL1        0.1899
      6 C           1.6534    1.3684   29.0484 C.ar    1  UNL1        0.1073
      7 C           2.6230    0.0148   26.9573 C.ar    1  UNL1        0.0385
      8 C           3.6024   -1.0226   26.4941 C.ar    1  UNL1        0.0032
      9 C           3.8478   -1.2205   25.0277 C.ar    1  UNL1        0.0001
     10 C           3.1138   -0.3811   24.0244 C.ar    1  UNL1        0.0000
     11 C           2.1344    0.6562   24.4875 C.ar    1  UNL1        0.0001
     12 C           1.8890    0.8542   25.9539 C.ar    1  UNL1        0.0032
     13 C           3.3593   -0.5792   22.5578 C.ar    1  UNL1       -0.0000
     14 C           2.2008   -0.6815   21.6106 C.ar    1  UNL1       -0.0003
     15 C           2.4463   -0.8795   20.1441 C.ar    1  UNL1       -0.0039
     16 C           3.8503   -0.9752   19.6249 C.ar    1  UNL1       -0.0179
     17 C           5.0088   -0.8728   20.5722 C.ar    1  UNL1       -0.0039
     18 C           4.7633   -0.6748   22.0386 C.ar    1  UNL1       -0.0003
     19 C           4.0958   -1.1732   18.1584 C.3     1  UNL1        0.0509
     20 C           4.0816   -0.9198   16.6801 C.3     1  UNL1        0.0100
     21 C           3.4333    0.0580   17.6149 C.3     1  UNL1        0.0100
     22 C           4.8435   -2.4731   18.1927 C.2     1  UNL1        0.0534
     23 O           4.2041   -3.6905   18.7921 O.co2   1  UNL1       -0.5489
     24 O           6.2304   -2.5557   17.6275 O.co2   1  UNL1       -0.5489
     25 N           1.0475    2.5289   28.3162 N.am    1  UNL1       -0.2461
     26 C          -0.3752    2.4591   27.8461 C.2     1  UNL1        0.4057
     27 O          -1.1921    1.2286   28.1083 O.2     1  UNL1       -0.2261
     28 H           1.5836    3.3365   28.1442 H       1  UNL1        0.1583
     29 O          -0.9811    3.6196   27.1140 O.3     1  UNL1       -0.4337
     30 C          -1.6500    3.4038   25.7889 C.3     1  UNL1        0.1928
     31 C          -0.8844    2.7928   24.6529 C.3     1  UNL1        0.0525
     32 C          -3.0846    3.7989   25.5997 C.ar    1  UNL1        0.0173
     33 C          -3.8149    4.5189   26.6944 C.ar    1  UNL1       -0.0008
     34 C          -5.2495    4.9140   26.5052 C.ar    1  UNL1       -0.0002
     35 C          -5.9539    4.5891   25.2214 C.ar    1  UNL1       -0.0000
     36 C          -5.2237    3.8691   24.1267 C.ar    1  UNL1       -0.0002
     37 C          -3.7890    3.4740   24.3158 C.ar    1  UNL1       -0.0008
@<TRIPOS>UNITY_ATOM_ATTR
23 1
charge -1
@<TRIPOS>BOND
     1     1     2    1
     2     2     3   ar
     3     3     4   ar
     4     4     5   ar
     5     5     7    1
     6     7     8   ar
     7     8     9   ar
     8     9    10   ar
     9    10    13    1
    10    13    14   ar
    11    14    15   ar
    12    15    16   ar
    13    16    19    1
    14    19    22    1
    15    22    23   ar
    16    22    24   ar
    17    19    20    1
    18    20    21    1
    19    16    17   ar
    20    17    18   ar
    21    10    11   ar
    22    11    12   ar
    23     5     6   ar
    24     6    25    1
    25    25    26   am
    26    26    27    2
    27    26    29    1
    28    29    30    1
    29    30    31    1
    30    30    32    1
    31    32    33   ar
    32    33    34   ar
    33    34    35   ar
    34    35    36   ar
    35    36    37   ar
    36     6     2   ar
    37    37    32   ar
    38    12     7   ar
    39    18    13   ar
    40    21    19    1
    41    25    28    1
@<TRIPOS>MOLECULE
*****
 37 41 0 0 0
SMALL
GASTEIGER

@<TRIPOS>ATOM
      1 C          -0.1227    3.0667   18.0979 C.3     1  UNL1        0.0570
      2 C           0.3059    2.6425   19.4713 C.ar    1  UNL1        0.1145
      3 N          -0.2269    3.1800   20.7665 N.ar    1  UNL1       -0.0800
      4 O           0.4804    2.4760   21.8864 O.2     1  UNL1       -0.3524
      5 C           1.4502    1.5034   21.2834 C.ar    1  UNL1        0.1899
      6 C           1.3423    1.6063   19.7908 C.ar    1  UNL1        0.1073
      7 C           2.3669    0.5886   22.0402 C.ar    1  UNL1        0.0385
      8 C           2.6213   -0.8018   21.5379 C.ar    1  UNL1        0.0032
      9 C           3.5380   -1.7165   22.2947 C.ar    1  UNL1        0.0001
     10 C           4.2004   -1.2410   23.5537 C.ar    1  UNL1        0.0000
     11 C           3.9460    0.1493   24.0560 C.ar    1  UNL1        0.0001
     12 C           3.0293    1.0641   23.2992 C.ar    1  UNL1        0.0032
     13 C           5.1171   -2.1559   24.3105 C.ar    1  UNL1       -0.0000
     14 C           5.5933   -3.4305   23.6793 C.ar    1  UNL1       -0.0003
     15 C           6.5101   -4.3454   24.4361 C.ar    1  UNL1       -0.0039
     16 C           6.9506   -3.9855   25.8241 C.ar    1  UNL1       -0.0179
     17 C           6.4744   -2.7108   26.4553 C.ar    1  UNL1       -0.0039
     18 C           5.5576   -1.7960   25.6985 C.ar    1  UNL1       -0.0003
     19 C           7.8673   -4.9003   26.5809 C.3     1  UNL1        0.0509
     20 C           9.1259   -5.4557   27.1787 C.3     1  UNL1        0.0100
     21 C           9.1702   -4.1830   26.3860 C.3     1  UNL1        0.0100
     22 C           6.8829   -5.9353   27.0386 C.2     1  UNL1        0.0534
     23 O           6.8674   -7.2913   26.3971 O.co2   1  UNL1       -0.5489
     24 O           5.9138   -5.6146   28.1377 O.co2   1  UNL1       -0.5489
     25 N           2.1322    0.8125   18.7929 N.am    1  UNL1       -0.2461
     26 C           3.5317    1.2251   18.4450 C.2     1  UNL1        0.4057
     27 O           4.1414    2.4317   19.0951 O.2     1  UNL1       -0.2261
     28 H           1.7321    0.0206   18.3663 H       1  UNL1        0.1583
     29 O           4.3216    0.4313   17.4471 O.3     1  UNL1       -0.4337
     30 C           5.4691   -0.4195   17.9048 C.3     1  UNL1        0.1928
     31 C           6.8794    0.0367   17.6752 C.3     1  UNL1        0.0525
     32 C           5.2061   -1.7266   18.5922 C.ar    1  UNL1        0.0173
     33 C           3.8754   -2.4012   18.4370 C.ar    1  UNL1       -0.0008
     34 C           3.6125   -3.7083   19.1244 C.ar    1  UNL1       -0.0002
     35 C           4.6802   -4.3408   19.9669 C.ar    1  UNL1       -0.0000
     36 C           6.0109   -3.6662   20.1220 C.ar    1  UNL1       -0.0002
     37 C           6.2739   -2.3590   19.4347 C.ar    1  UNL1       -0.0008
@<TRIPOS>UNITY_ATOM_ATTR
23 1
charge -1
@<TRIPOS>BOND
     1     1     2    1
     2     2     3   ar
     3     3     4   ar
     4     4     5   ar
     5     5     7    1
     6     7     8   ar
     7     8     9   ar
     8     9    10   ar
     9    10    13    1
    10    13    14   ar
    11    14    15   ar
    12    15    16   ar
    13    16    19    1
    14    19    22    1
    15    22    23   ar
    16    22    24   ar
    17    19    20    1
    18    20    21    1
    19    16    17   ar
    20    17    18   ar
    21    10    11   ar
    22    11    12   ar
    23     5     6   ar
    24     6    25    1
    25    25    26   am
    26    26    27    2
    27    26    29    1
    28    29    30    1
    29    30    31    1
    30    30    32    1
    31    32    33   ar
    32    33    34   ar
    33    34    35   ar
    34    35    36   ar
    35    36    37   ar
    36     6     2   ar
    37    37    32   ar
    38    12     7   ar
    39    18    13   ar
    40    21    19    1
    41    25    28    1
@<TRIPOS>MOLECULE
*****
 37 41 0 0 0
SMALL
GASTEIGER

@<TRIPOS>ATOM
      1 C           0.8817    2.6920   31.6330 C.3     1  UNL1        0.0570
      2 C           1.0638    2.7175   30.1443 C.ar    1  UNL1        0.1145
      3 N           0.7857    3.8831   29.2419 N.ar    1  UNL1       -0.0800
      4 O           1.1060    3.4679   27.8366 O.2     1  UNL1       -0.3524
      5 C           1.5820    2.0458   27.8704 C.ar    1  UNL1        0.1899
      6 C           1.5559    1.5821   29.2967 C.ar    1  UNL1        0.1073
      7 C           2.0091    1.2305   26.6859 C.ar    1  UNL1        0.0385
      8 C           1.2739    1.3563   25.3845 C.ar    1  UNL1        0.0032
      9 C           1.7010    0.5411   24.2000 C.ar    1  UNL1        0.0001
     10 C           2.8633   -0.4000   24.3170 C.ar    1  UNL1        0.0000
     11 C           3.5984   -0.5257   25.6184 C.ar    1  UNL1        0.0001
     12 C           3.1713    0.2895   26.8028 C.ar    1  UNL1        0.0032
     13 C           3.2904   -1.2152   23.1325 C.ar    1  UNL1       -0.0000
     14 C           4.1806   -2.4071   23.3240 C.ar    1  UNL1       -0.0003
     15 C           4.6077   -3.2223   22.1395 C.ar    1  UNL1       -0.0039
     16 C           4.1445   -2.8456   20.7635 C.ar    1  UNL1       -0.0179
     17 C           3.2542   -1.6537   20.5719 C.ar    1  UNL1       -0.0039
     18 C           2.8271   -0.8385   21.7564 C.ar    1  UNL1       -0.0003
     19 C           4.5715   -3.6608   19.5790 C.3     1  UNL1        0.0509
     20 C           4.6716   -4.8116   18.6221 C.3     1  UNL1        0.0100
     21 C           3.7782   -4.9103   19.8230 C.3     1  UNL1        0.0100
     22 C           5.5131   -2.6945   18.9236 C.2     1  UNL1        0.0534
     23 O           5.1774   -2.1129   17.5822 O.co2   1  UNL1       -0.5489
     24 O           6.7905   -2.3097   19.6094 O.co2   1  UNL1       -0.5489
     25 N           1.9523    0.2217   29.7889 N.am    1  UNL1       -0.2461
     26 C           3.2649    0.0305   30.4892 C.2     1  UNL1        0.4057
     27 O           4.1812    1.1998   30.6973 O.2     1  UNL1       -0.2261
     28 H           1.3509   -0.5457   29.6524 H       1  UNL1        0.1583
     29 O           3.6612   -1.3298   30.9815 O.3     1  UNL1       -0.4337
     30 C           5.0447   -1.5614   31.5130 C.3     1  UNL1        0.1928
     31 C           6.0768   -2.2281   30.6528 C.3     1  UNL1        0.0525
     32 C           5.3959   -1.1261   32.9049 C.ar    1  UNL1        0.0173
     33 C           4.3525   -1.1448   33.9824 C.ar    1  UNL1       -0.0008
     34 C           4.7038   -0.7096   35.3742 C.ar    1  UNL1       -0.0002
     35 C           6.0984   -0.2556   35.6886 C.ar    1  UNL1       -0.0000
     36 C           7.1418   -0.2369   34.6111 C.ar    1  UNL1       -0.0002
     37 C           6.7906   -0.6722   33.2192 C.ar    1  UNL1       -0.0008
@<TRIPOS>UNITY_ATOM_ATTR
23 1
charge -1
@<TRIPOS>BOND
     1     1     2    1
     2     2     3   ar
     3     3     4   ar
     4     4     5   ar
     5     5     7    1
     6     7     8   ar
     7     8     9   ar
     8     9    10   ar
     9    10    13    1
    10    13    14   ar
    11    14    15   ar
    12    15    16   ar
    13    16    19    1
    14    19    22    1
    15    22    23   ar
    16    22    24   ar
    17    19    20    1
    18    20    21    1
    19    16    17   ar
    20    17    18   ar
    21    10    11   ar
    22    11    12   ar
    23     5     6   ar
    24     6    25    1
    25    25    26   am
    26    26    27    2
    27    26    29    1
    28    29    30    1
    29    30    31    1
    30    30    32    1
    31    32    33   ar
    32    33    34   ar
    33    34    35   ar
    34    35    36   ar
    35    36    37   ar
    36     6     2   ar
    37    37    32   ar
    38    12     7   ar
    39    18    13   ar
    40    21    19    1
    41    25    28    1
