@<TRIPOS>MOLECULE
*****
 36 39 0 0 0
SMALL
GASTEIGER

@<TRIPOS>ATOM
      1 C          -1.8837    3.5666   23.6266 C.ar    1  UNL1       -0.0024
      2 C          -3.2720    3.9478   24.0479 C.ar    1  UNL1       -0.0026
      3 C          -3.6543    3.9044   25.4977 C.ar    1  UNL1       -0.0001
      4 C          -2.6484    3.4799   26.5263 C.ar    1  UNL1        0.0045
      5 C          -1.2602    3.0987   26.1050 C.ar    1  UNL1        0.0534
      6 C          -0.8778    3.1421   24.6552 C.ar    1  UNL1        0.0019
      7 C          -0.2543    2.6742   27.1336 C.2     1  UNL1        0.2495
      8 O           1.0241    3.4423   27.2941 O.2     1  UNL1       -0.2698
      9 N          -0.5267    1.4816   28.0015 N.am    1  UNL1       -0.2804
     10 H          -1.3657    0.9775   27.8961 H       1  UNL1        0.1552
     11 C           0.4792    1.0570   29.0301 C.ar    1  UNL1        0.0502
     12 C           1.4149   -0.0789   28.7399 C.ar    1  UNL1        0.0143
     13 C           2.4208   -0.5035   29.7684 C.ar    1  UNL1       -0.0032
     14 C           2.4910    0.2079   31.0872 C.ar    1  UNL1       -0.0234
     15 C           1.5554    1.3438   31.3774 C.ar    1  UNL1       -0.0091
     16 C           0.5495    1.7684   30.3488 C.ar    1  UNL1        0.0114
     17 C           1.6256    2.0552   32.6961 C.3     1  UNL1        0.0954
     18 N           2.6315    1.6306   33.7246 N.3     1  UNL1       -0.2935
     19 C           3.5672    0.4947   33.4344 C.3     1  UNL1        0.0735
     20 C           3.4969   -0.2167   32.1157 C.3     1  UNL1        0.0432
     21 H           2.1071    1.3738   34.5609 H       1  UNL1        0.1236
     22 C          -1.5014    3.6099   22.1769 C.3     1  UNL1        0.1177
     23 N          -0.1176    0.5495   20.0628 N.am    1  UNL1       -0.2683
     24 C          -0.1548    1.8153   20.8668 C.2     1  UNL1        0.3047
     25 O           1.1172    2.5522   21.1648 O.2     1  UNL1       -0.2525
     26 N          -1.4642    2.3441   21.3729 N.am    1  UNL1       -0.2846
     27 H          -0.9525    0.0659   19.8672 H       1  UNL1        0.1564
     28 H          -2.2991    1.8605   21.1773 H       1  UNL1        0.1513
     29 C           3.8102   -1.0371   18.5446 C.ar    1  UNL1        0.0685
     30 C           3.2103   -1.5967   19.8004 C.ar    1  UNL1        0.0115
     31 C           1.9010   -1.0678   20.3065 C.ar    1  UNL1        0.0154
     32 C           1.1916    0.0206   19.5568 C.ar    1  UNL1        0.0516
     33 C           1.7916    0.5802   18.3009 C.ar    1  UNL1        0.0154
     34 C           3.1008    0.0513   17.7949 C.ar    1  UNL1        0.0115
     35 N           6.4288   -2.0949   17.5325 N.1     1  UNL1       -0.1908
     36 C           5.1194   -1.5660   18.0386 C.1     1  UNL1        0.1004
@<TRIPOS>BOND
     1    35    36    3
     2    36    29    1
     3    29    30   ar
     4    30    31   ar
     5    31    32   ar
     6    32    23    1
     7    23    24   am
     8    24    25    2
     9    24    26   am
    10    26    22    1
    11    22     1    1
    12     1     2   ar
    13     2     3   ar
    14     3     4   ar
    15     4     5   ar
    16     5     7    1
    17     7     8    2
    18     7     9   am
    19     9    11    1
    20    11    12   ar
    21    12    13   ar
    22    13    14   ar
    23    14    15   ar
    24    15    16   ar
    25    15    17    1
    26    17    18    1
    27    18    19    1
    28    19    20    1
    29     5     6   ar
    30    32    33   ar
    31    33    34   ar
    32    34    29   ar
    33     6     1   ar
    34    16    11   ar
    35    20    14    1
    36    23    27    1
    37    26    28    1
    38     9    10    1
    39    18    21    1
@<TRIPOS>MOLECULE
*****
 36 39 0 0 0
SMALL
GASTEIGER

@<TRIPOS>ATOM
      1 C           4.0638   -2.2892   18.9429 C.ar    1  UNL1       -0.0024
      2 C           4.2994   -1.5995   17.6319 C.ar    1  UNL1       -0.0026
      3 C           3.5733   -0.3262   17.3132 C.ar    1  UNL1       -0.0001
      4 C           2.6117    0.2574   18.3055 C.ar    1  UNL1        0.0045
      5 C           2.3761   -0.4323   19.6165 C.ar    1  UNL1        0.0534
      6 C           3.1022   -1.7057   19.9352 C.ar    1  UNL1        0.0019
      7 C           1.4145    0.1512   20.6089 C.2     1  UNL1        0.2495
      8 O          -0.0464   -0.1771   20.5200 O.2     1  UNL1       -0.2698
      9 N           1.9138    1.0631   21.6901 N.am    1  UNL1       -0.2804
     10 H           2.8726    1.2786   21.7484 H       1  UNL1        0.1552
     11 C           0.9522    1.6467   22.6825 C.ar    1  UNL1        0.0502
     12 C           0.0217    2.7475   22.2671 C.ar    1  UNL1        0.0143
     13 C          -0.9399    3.3311   23.2594 C.ar    1  UNL1       -0.0032
     14 C          -0.9711    2.8139   24.6672 C.ar    1  UNL1       -0.0234
     15 C          -0.0406    1.7131   25.0825 C.ar    1  UNL1       -0.0091
     16 C           0.9210    1.1295   24.0901 C.ar    1  UNL1        0.0114
     17 C          -0.0717    1.1959   26.4901 C.3     1  UNL1        0.0954
     18 N          -1.0333    1.7795   27.4824 N.3     1  UNL1       -0.2935
     19 C          -1.9638    2.8803   27.0671 C.3     1  UNL1        0.0735
     20 C          -1.9326    3.3975   25.6595 C.3     1  UNL1        0.0432
     21 H          -0.4751    2.1418   28.2554 H       1  UNL1        0.1236
     22 C           4.7899   -3.5625   19.2617 C.3     1  UNL1        0.1177
     23 N           7.1724   -3.8444   22.4230 N.am    1  UNL1       -0.2683
     24 C           5.9386   -3.8778   21.5706 C.2     1  UNL1        0.3047
     25 O           4.6199   -4.2598   22.1746 O.2     1  UNL1       -0.2525
     26 N           6.0237   -3.5291   20.1141 N.am    1  UNL1       -0.2846
     27 H           8.0380   -3.5937   22.0265 H       1  UNL1        0.1564
     28 H           6.8892   -3.2784   19.7176 H       1  UNL1        0.1513
     29 C           6.9175   -4.8903   26.7923 C.ar    1  UNL1        0.0685
     30 C           6.5048   -3.5271   26.3222 C.ar    1  UNL1        0.0115
     31 C           6.5898   -3.1784   24.8657 C.ar    1  UNL1        0.0154
     32 C           7.0875   -4.1930   23.8794 C.ar    1  UNL1        0.0516
     33 C           7.5002   -5.5564   24.3496 C.ar    1  UNL1        0.0154
     34 C           7.4152   -5.9050   25.8060 C.ar    1  UNL1        0.0115
     35 N           6.7476   -5.5876   29.7052 N.1     1  UNL1       -0.1908
     36 C           6.8326   -5.2390   28.2487 C.1     1  UNL1        0.1004
@<TRIPOS>BOND
     1    35    36    3
     2    36    29    1
     3    29    30   ar
     4    30    31   ar
     5    31    32   ar
     6    32    23    1
     7    23    24   am
     8    24    25    2
     9    24    26   am
    10    26    22    1
    11    22     1    1
    12     1     2   ar
    13     2     3   ar
    14     3     4   ar
    15     4     5   ar
    16     5     7    1
    17     7     8    2
    18     7     9   am
    19     9    11    1
    20    11    12   ar
    21    12    13   ar
    22    13    14   ar
    23    14    15   ar
    24    15    16   ar
    25    15    17    1
    26    17    18    1
    27    18    19    1
    28    19    20    1
    29     5     6   ar
    30    32    33   ar
    31    33    34   ar
    32    34    29   ar
    33     6     1   ar
    34    16    11   ar
    35    20    14    1
    36    23    27    1
    37    26    28    1
    38     9    10    1
    39    18    21    1
@<TRIPOS>MOLECULE
*****
 36 39 0 0 0
SMALL
GASTEIGER

@<TRIPOS>ATOM
      1 C           7.7092   -4.9734   27.3073 C.ar    1  UNL1       -0.0024
      2 C           8.3515   -6.3266   27.3858 C.ar    1  UNL1       -0.0026
      3 C           8.5004   -7.0103   28.7126 C.ar    1  UNL1       -0.0001
      4 C           8.0070   -6.3407   29.9609 C.ar    1  UNL1        0.0045
      5 C           7.3647   -4.9875   29.8824 C.ar    1  UNL1        0.0534
      6 C           7.2158   -4.3038   28.5555 C.ar    1  UNL1        0.0019
      7 C           6.8713   -4.3179   31.1306 C.2     1  UNL1        0.2495
      8 O           6.6101   -5.1301   32.3644 O.2     1  UNL1       -0.2698
      9 N           6.6391   -2.8361   31.1452 N.am    1  UNL1       -0.2804
     10 H           6.8105   -2.3030   30.3354 H       1  UNL1        0.1552
     11 C           6.1457   -2.1664   32.3935 C.ar    1  UNL1        0.0502
     12 C           4.7351   -2.3851   32.8545 C.ar    1  UNL1        0.0143
     13 C           4.2417   -1.7155   34.1027 C.ar    1  UNL1       -0.0032
     14 C           5.1588   -0.8271   34.8900 C.ar    1  UNL1       -0.0234
     15 C           6.5693   -0.6084   34.4290 C.ar    1  UNL1       -0.0091
     16 C           7.0628   -1.2780   33.1807 C.ar    1  UNL1        0.0114
     17 C           7.4864    0.2800   35.2162 C.3     1  UNL1        0.0954
     18 N           6.9930    0.9496   36.4644 N.3     1  UNL1       -0.2935
     19 C           5.5824    0.7308   36.9254 C.3     1  UNL1        0.0735
     20 C           4.6653   -0.1575   36.1382 C.3     1  UNL1        0.0432
     21 H           7.1044    1.9536   36.3236 H       1  UNL1        0.1236
     22 C           7.5602   -4.2898   25.9805 C.3     1  UNL1        0.1177
     23 N           4.6786   -3.3440   23.4208 N.am    1  UNL1       -0.2683
     24 C           6.0448   -3.5846   23.9914 C.2     1  UNL1        0.3047
     25 O           7.2618   -3.3606   23.1436 O.2     1  UNL1       -0.2525
     26 N           6.1940   -4.0492   25.4099 N.am    1  UNL1       -0.2846
     27 H           3.8799   -3.4910   23.9773 H       1  UNL1        0.1564
     28 H           5.3953   -4.1962   25.9663 H       1  UNL1        0.1513
     29 C           4.2308   -1.9504   19.1656 C.ar    1  UNL1        0.0685
     30 C           4.3554   -0.9475   20.2740 C.ar    1  UNL1        0.0115
     31 C           4.5047   -1.4120   21.6925 C.ar    1  UNL1        0.0154
     32 C           4.5294   -2.8795   22.0024 C.ar    1  UNL1        0.0516
     33 C           4.4048   -3.8824   20.8939 C.ar    1  UNL1        0.0154
     34 C           4.2555   -3.4178   19.4755 C.ar    1  UNL1        0.0115
     35 N           3.9324   -1.0213   16.3287 N.1     1  UNL1       -0.1908
     36 C           4.0816   -1.4858   17.7472 C.1     1  UNL1        0.1004
@<TRIPOS>BOND
     1    35    36    3
     2    36    29    1
     3    29    30   ar
     4    30    31   ar
     5    31    32   ar
     6    32    23    1
     7    23    24   am
     8    24    25    2
     9    24    26   am
    10    26    22    1
    11    22     1    1
    12     1     2   ar
    13     2     3   ar
    14     3     4   ar
    15     4     5   ar
    16     5     7    1
    17     7     8    2
    18     7     9   am
    19     9    11    1
    20    11    12   ar
    21    12    13   ar
    22    13    14   ar
    23    14    15   ar
    24    15    16   ar
    25    15    17    1
    26    17    18    1
    27    18    19    1
    28    19    20    1
    29     5     6   ar
    30    32    33   ar
    31    33    34   ar
    32    34    29   ar
    33     6     1   ar
    34    16    11   ar
    35    20    14    1
    36    23    27    1
    37    26    28    1
    38     9    10    1
    39    18    21    1
@<TRIPOS>MOLECULE
*****
 36 39 0 0 0
SMALL
GASTEIGER

@<TRIPOS>ATOM
      1 C           6.5092   -2.7804   29.6084 C.ar    1  UNL1       -0.0024
      2 C           7.1333   -4.1180   29.8753 C.ar    1  UNL1       -0.0026
      3 C           7.0566   -4.7213   31.2465 C.ar    1  UNL1       -0.0001
      4 C           6.3558   -3.9868   32.3509 C.ar    1  UNL1        0.0045
      5 C           5.7318   -2.6492   32.0840 C.ar    1  UNL1        0.0534
      6 C           5.8085   -2.0460   30.7127 C.ar    1  UNL1        0.0019
      7 C           5.0310   -1.9148   33.1883 C.2     1  UNL1        0.2495
      8 O           3.8338   -2.5260   33.8538 O.2     1  UNL1       -0.2698
      9 N           5.5276   -0.5691   33.6271 N.am    1  UNL1       -0.2804
     10 H           6.3134   -0.1679   33.1903 H       1  UNL1        0.1552
     11 C           4.8268    0.1654   34.7314 C.ar    1  UNL1        0.0502
     12 C           5.0466   -0.2396   36.1589 C.ar    1  UNL1        0.0143
     13 C           4.3459    0.4949   37.2632 C.ar    1  UNL1       -0.0032
     14 C           3.4254    1.6344   36.9401 C.ar    1  UNL1       -0.0234
     15 C           3.2056    2.0393   35.5126 C.ar    1  UNL1       -0.0091
     16 C           3.9064    1.3048   34.4083 C.ar    1  UNL1        0.0114
     17 C           2.2852    3.1787   35.1895 C.3     1  UNL1        0.0954
     18 N           1.5845    3.9132   36.2938 N.3     1  UNL1       -0.2935
     19 C           1.8042    3.5082   37.7213 C.3     1  UNL1        0.0735
     20 C           2.7247    2.3688   38.0444 C.3     1  UNL1        0.0432
     21 H           0.5839    3.8293   36.1146 H       1  UNL1        0.1236
     22 C           6.5859   -2.1771   28.2372 C.3     1  UNL1        0.1177
     23 N           4.4070   -2.2801   24.9219 N.am    1  UNL1       -0.2683
     24 C           5.5946   -2.2180   25.8360 C.2     1  UNL1        0.3047
     25 O           6.9784   -2.1349   25.2633 O.2     1  UNL1       -0.2525
     26 N           5.3983   -2.2392   27.3231 N.am    1  UNL1       -0.2846
     27 H           3.4987   -2.3347   25.2978 H       1  UNL1        0.1564
     28 H           4.4901   -2.2938   27.6990 H       1  UNL1        0.1513
     29 C           4.9956   -2.2166   20.4610 C.ar    1  UNL1        0.0685
     30 C           4.8602   -3.5255   21.1810 C.ar    1  UNL1        0.0115
     31 C           4.6640   -3.5467   22.6681 C.ar    1  UNL1        0.0154
     32 C           4.6032   -2.2590   23.4349 C.ar    1  UNL1        0.0516
     33 C           4.7386   -0.9500   22.7148 C.ar    1  UNL1        0.0154
     34 C           4.9348   -0.9289   21.2279 C.ar    1  UNL1        0.0115
     35 N           5.3880   -2.1744   17.4870 N.1     1  UNL1       -0.1908
     36 C           5.1918   -2.1955   18.9741 C.1     1  UNL1        0.1004
@<TRIPOS>BOND
     1    35    36    3
     2    36    29    1
     3    29    30   ar
     4    30    31   ar
     5    31    32   ar
     6    32    23    1
     7    23    24   am
     8    24    25    2
     9    24    26   am
    10    26    22    1
    11    22     1    1
    12     1     2   ar
    13     2     3   ar
    14     3     4   ar
    15     4     5   ar
    16     5     7    1
    17     7     8    2
    18     7     9   am
    19     9    11    1
    20    11    12   ar
    21    12    13   ar
    22    13    14   ar
    23    14    15   ar
    24    15    16   ar
    25    15    17    1
    26    17    18    1
    27    18    19    1
    28    19    20    1
    29     5     6   ar
    30    32    33   ar
    31    33    34   ar
    32    34    29   ar
    33     6     1   ar
    34    16    11   ar
    35    20    14    1
    36    23    27    1
    37    26    28    1
    38     9    10    1
    39    18    21    1
@<TRIPOS>MOLECULE
*****
 36 39 0 0 0
SMALL
GASTEIGER

@<TRIPOS>ATOM
      1 C          -0.7648    1.6762   26.8381 C.ar    1  UNL1       -0.0024
      2 C          -1.7384    2.8134   26.7445 C.ar    1  UNL1       -0.0026
      3 C          -1.8665    3.5878   25.4663 C.ar    1  UNL1       -0.0001
      4 C          -1.0209    3.2250   24.2816 C.ar    1  UNL1        0.0045
      5 C          -0.0473    2.0878   24.3752 C.ar    1  UNL1        0.0534
      6 C           0.0808    1.3134   25.6535 C.ar    1  UNL1        0.0019
      7 C           0.7983    1.7250   23.1906 C.2     1  UNL1        0.2495
      8 O           2.2630    2.0485   23.1873 O.2     1  UNL1       -0.2698
      9 N           0.1791    1.0387   22.0092 N.am    1  UNL1       -0.2804
     10 H          -0.7822    0.8264   22.0114 H       1  UNL1        0.1552
     11 C           1.0247    0.6759   20.8245 C.ar    1  UNL1        0.0502
     12 C           0.9679    1.5098   19.5790 C.ar    1  UNL1        0.0143
     13 C           1.8134    1.1470   18.3943 C.ar    1  UNL1       -0.0032
     14 C           2.7157   -0.0497   18.4551 C.ar    1  UNL1       -0.0234
     15 C           2.7725   -0.8837   19.7007 C.ar    1  UNL1       -0.0091
     16 C           1.9269   -0.5208   20.8854 C.ar    1  UNL1        0.0114
     17 C           3.6748   -2.0804   19.7615 C.3     1  UNL1        0.0954
     18 N           4.5203   -2.4431   18.5768 N.3     1  UNL1       -0.2935
     19 C           4.4635   -1.6092   17.3313 C.3     1  UNL1        0.0735
     20 C           3.5612   -0.4125   17.2705 C.3     1  UNL1        0.0432
     21 H           4.2591   -3.3918   18.3082 H       1  UNL1        0.1236
     22 C          -0.6367    0.9017   28.1163 C.3     1  UNL1        0.1177
     23 N           2.4915   -0.6355   30.0141 N.am    1  UNL1       -0.2683
     24 C           1.2506    0.1619   29.7414 C.2     1  UNL1        0.3047
     25 O           0.6561    1.0167   30.8211 O.2     1  UNL1       -0.2525
     26 N           0.6043    0.1044   28.3890 N.am    1  UNL1       -0.2846
     27 H           2.8817   -1.1965   29.3055 H       1  UNL1        0.1564
     28 H           0.9945   -0.4567   27.6803 H       1  UNL1        0.1513
     29 C           4.4306   -0.4631   34.0712 C.ar    1  UNL1        0.0685
     30 C           3.6958    0.7317   33.5398 C.ar    1  UNL1        0.0115
     31 C           3.0494    0.6743   32.1874 C.ar    1  UNL1        0.0154
     32 C           3.1379   -0.5780   31.3664 C.ar    1  UNL1        0.0516
     33 C           3.8728   -1.7728   31.8979 C.ar    1  UNL1        0.0154
     34 C           4.5191   -1.7153   33.2502 C.ar    1  UNL1        0.0115
     35 N           5.7233   -0.3481   36.7760 N.1     1  UNL1       -0.1908
     36 C           5.0770   -0.4056   35.4235 C.1     1  UNL1        0.1004
@<TRIPOS>BOND
     1    35    36    3
     2    36    29    1
     3    29    30   ar
     4    30    31   ar
     5    31    32   ar
     6    32    23    1
     7    23    24   am
     8    24    25    2
     9    24    26   am
    10    26    22    1
    11    22     1    1
    12     1     2   ar
    13     2     3   ar
    14     3     4   ar
    15     4     5   ar
    16     5     7    1
    17     7     8    2
    18     7     9   am
    19     9    11    1
    20    11    12   ar
    21    12    13   ar
    22    13    14   ar
    23    14    15   ar
    24    15    16   ar
    25    15    17    1
    26    17    18    1
    27    18    19    1
    28    19    20    1
    29     5     6   ar
    30    32    33   ar
    31    33    34   ar
    32    34    29   ar
    33     6     1   ar
    34    16    11   ar
    35    20    14    1
    36    23    27    1
    37    26    28    1
    38     9    10    1
    39    18    21    1
@<TRIPOS>MOLECULE
*****
 36 39 0 0 0
SMALL
GASTEIGER

@<TRIPOS>ATOM
      1 C           8.2690   -5.2533   23.7738 C.ar    1  UNL1       -0.0024
      2 C           8.5877   -6.7124   23.6345 C.ar    1  UNL1       -0.0026
      3 C           8.3072   -7.6530   24.7688 C.ar    1  UNL1       -0.0001
      4 C           7.7079   -7.1345   26.0424 C.ar    1  UNL1        0.0045
      5 C           7.3892   -5.6754   26.1817 C.ar    1  UNL1        0.0534
      6 C           7.6697   -4.7348   25.0474 C.ar    1  UNL1        0.0019
      7 C           6.7899   -5.1568   27.4552 C.2     1  UNL1        0.2495
      8 O           5.4737   -5.6913   27.9369 O.2     1  UNL1       -0.2698
      9 N           7.5068   -4.1038   28.2471 N.am    1  UNL1       -0.2804
     10 H           8.3707   -3.7530   27.9309 H       1  UNL1        0.1552
     11 C           6.9076   -3.5851   29.5207 C.ar    1  UNL1        0.0502
     12 C           7.1066   -4.3365   30.8036 C.ar    1  UNL1        0.0143
     13 C           6.5074   -3.8180   32.0772 C.ar    1  UNL1       -0.0032
     14 C           5.7091   -2.5480   32.0679 C.ar    1  UNL1       -0.0234
     15 C           5.5101   -1.7966   30.7850 C.ar    1  UNL1       -0.0091
     16 C           6.1094   -2.3152   29.5114 C.ar    1  UNL1        0.0114
     17 C           4.7119   -0.5267   30.7757 C.3     1  UNL1        0.0954
     18 N           4.1127   -0.0082   32.0492 N.3     1  UNL1       -0.2935
     19 C           4.3117   -0.7595   33.3321 C.3     1  UNL1        0.0735
     20 C           5.1099   -2.0294   33.3415 C.3     1  UNL1        0.0432
     21 H           3.1060    0.0535   31.8973 H       1  UNL1        0.1236
     22 C           8.5495   -4.3128   22.6396 C.3     1  UNL1        0.1177
     23 N           5.9082   -3.5023   19.7906 N.am    1  UNL1       -0.2683
     24 C           6.6977   -3.4006   21.0619 C.2     1  UNL1        0.3047
     25 O           6.4248   -2.2853   22.0271 O.2     1  UNL1       -0.2525
     26 N           7.7600   -4.4144   21.3682 N.am    1  UNL1       -0.2846
     27 H           6.0873   -4.2343   19.1571 H       1  UNL1        0.1564
     28 H           7.9391   -5.1465   20.7347 H       1  UNL1        0.1513
     29 C           2.7213   -0.4611   18.8717 C.ar    1  UNL1        0.0685
     30 C           2.4853   -1.4986   19.9289 C.ar    1  UNL1        0.0115
     31 C           3.5476   -2.5124   20.2352 C.ar    1  UNL1        0.0154
     32 C           4.8459   -2.4886   19.4843 C.ar    1  UNL1        0.0516
     33 C           5.0818   -1.4509   18.4270 C.ar    1  UNL1        0.0154
     34 C           4.0195   -0.4372   18.1207 C.ar    1  UNL1        0.0115
     35 N           0.5965    1.5664   18.2591 N.1     1  UNL1       -0.1908
     36 C           1.6589    0.5526   18.5654 C.1     1  UNL1        0.1004
@<TRIPOS>BOND
     1    35    36    3
     2    36    29    1
     3    29    30   ar
     4    30    31   ar
     5    31    32   ar
     6    32    23    1
     7    23    24   am
     8    24    25    2
     9    24    26   am
    10    26    22    1
    11    22     1    1
    12     1     2   ar
    13     2     3   ar
    14     3     4   ar
    15     4     5   ar
    16     5     7    1
    17     7     8    2
    18     7     9   am
    19     9    11    1
    20    11    12   ar
    21    12    13   ar
    22    13    14   ar
    23    14    15   ar
    24    15    16   ar
    25    15    17    1
    26    17    18    1
    27    18    19    1
    28    19    20    1
    29     5     6   ar
    30    32    33   ar
    31    33    34   ar
    32    34    29   ar
    33     6     1   ar
    34    16    11   ar
    35    20    14    1
    36    23    27    1
    37    26    28    1
    38     9    10    1
    39    18    21    1
@<TRIPOS>MOLECULE
*****
 36 39 0 0 0
SMALL
GASTEIGER

@<TRIPOS>ATOM
      1 C           7.6009   -6.1212   27.3384 C.ar    1  UNL1       -0.0024
      2 C           8.1117   -7.5187   27.1483 C.ar    1  UNL1       -0.0026
      3 C           8.3801   -8.0378   25.7669 C.ar    1  UNL1       -0.0001
      4 C           8.1378   -7.1593   24.5754 C.ar    1  UNL1        0.0045
      5 C           7.6270   -5.7618   24.7654 C.ar    1  UNL1        0.0534
      6 C           7.3586   -5.2428   26.1469 C.ar    1  UNL1        0.0019
      7 C           7.3847   -4.8833   23.5740 C.2     1  UNL1        0.2495
      8 O           8.2434   -5.0232   22.3520 O.2     1  UNL1       -0.2698
      9 N           6.2838   -3.8651   23.6045 N.am    1  UNL1       -0.2804
     10 H           5.7202   -3.7733   24.4065 H       1  UNL1        0.1552
     11 C           6.0414   -2.9866   22.4130 C.ar    1  UNL1        0.0502
     12 C           6.3239   -1.5157   22.4959 C.ar    1  UNL1        0.0143
     13 C           6.0815   -0.6372   21.3045 C.ar    1  UNL1       -0.0032
     14 C           5.5567   -1.2295   20.0302 C.ar    1  UNL1       -0.0234
     15 C           5.2742   -2.7004   19.9473 C.ar    1  UNL1       -0.0091
     16 C           5.5166   -3.5789   21.1388 C.ar    1  UNL1        0.0114
     17 C           4.7494   -3.2927   18.6731 C.3     1  UNL1        0.0954
     18 N           4.5071   -2.4142   17.4817 N.3     1  UNL1       -0.2935
     19 C           4.7896   -0.9433   17.5646 C.3     1  UNL1        0.0735
     20 C           5.3143   -0.3510   18.8388 C.3     1  UNL1        0.0432
     21 H           3.5210   -2.5115   17.2398 H       1  UNL1        0.1236
     22 C           7.3325   -5.6022   28.7198 C.3     1  UNL1        0.1177
     23 N           5.9842   -2.3092   30.4773 N.am    1  UNL1       -0.2683
     24 C           6.5450   -3.6877   30.2899 C.2     1  UNL1        0.3047
     25 O           6.8791   -4.5304   31.4849 O.2     1  UNL1       -0.2525
     26 N           6.7717   -4.2236   28.9073 N.am    1  UNL1       -0.2846
     27 H           5.7649   -1.7561   29.6929 H       1  UNL1        0.1564
     28 H           6.5524   -3.6705   28.1229 H       1  UNL1        0.1513
     29 C           5.3041   -0.7015   34.6249 C.ar    1  UNL1        0.0685
     30 C           4.2862   -1.6050   33.9946 C.ar    1  UNL1        0.0115
     31 C           4.5129   -2.1410   32.6120 C.ar    1  UNL1        0.0154
     32 C           5.7575   -1.7733   31.8598 C.ar    1  UNL1        0.0516
     33 C           6.7754   -0.8697   32.4902 C.ar    1  UNL1        0.0154
     34 C           6.5487   -0.3338   33.8727 C.ar    1  UNL1        0.0115
     35 N           4.8507    0.3704   37.3900 N.1     1  UNL1       -0.1908
     36 C           5.0774   -0.1656   36.0074 C.1     1  UNL1        0.1004
@<TRIPOS>BOND
     1    35    36    3
     2    36    29    1
     3    29    30   ar
     4    30    31   ar
     5    31    32   ar
     6    32    23    1
     7    23    24   am
     8    24    25    2
     9    24    26   am
    10    26    22    1
    11    22     1    1
    12     1     2   ar
    13     2     3   ar
    14     3     4   ar
    15     4     5   ar
    16     5     7    1
    17     7     8    2
    18     7     9   am
    19     9    11    1
    20    11    12   ar
    21    12    13   ar
    22    13    14   ar
    23    14    15   ar
    24    15    16   ar
    25    15    17    1
    26    17    18    1
    27    18    19    1
    28    19    20    1
    29     5     6   ar
    30    32    33   ar
    31    33    34   ar
    32    34    29   ar
    33     6     1   ar
    34    16    11   ar
    35    20    14    1
    36    23    27    1
    37    26    28    1
    38     9    10    1
    39    18    21    1
@<TRIPOS>MOLECULE
*****
 36 39 0 0 0
SMALL
GASTEIGER

@<TRIPOS>ATOM
      1 C          -1.5675    3.3791   23.6810 C.ar    1  UNL1       -0.0024
      2 C          -2.8692    3.8215   24.2809 C.ar    1  UNL1       -0.0026
      3 C          -3.0889    3.7118   25.7606 C.ar    1  UNL1       -0.0001
      4 C          -2.0068    3.1597   26.6406 C.ar    1  UNL1        0.0045
      5 C          -0.7050    2.7173   26.0408 C.ar    1  UNL1        0.0534
      6 C          -0.4854    2.8270   24.5609 C.ar    1  UNL1        0.0019
      7 C           0.3770    2.1652   26.9207 C.2     1  UNL1        0.2495
      8 O           0.6410    2.7826   28.2620 O.2     1  UNL1       -0.2698
      9 N           1.1951    0.9957   26.4593 N.am    1  UNL1       -0.2804
     10 H           1.0218    0.5904   25.5789 H       1  UNL1        0.1552
     11 C           2.2772    0.4435   27.3392 C.ar    1  UNL1        0.0502
     12 C           3.6719    0.2929   26.8080 C.ar    1  UNL1        0.0143
     13 C           4.7540   -0.2592   27.6878 C.ar    1  UNL1       -0.0032
     14 C           4.4415   -0.6608   29.0989 C.ar    1  UNL1       -0.0234
     15 C           3.0468   -0.5102   29.6301 C.ar    1  UNL1       -0.0091
     16 C           1.9646    0.0420   28.7502 C.ar    1  UNL1        0.0114
     17 C           2.7342   -0.9117   31.0411 C.3     1  UNL1        0.0954
     18 N           3.8163   -1.4638   31.9210 N.3     1  UNL1       -0.2935
     19 C           5.2110   -1.6144   31.3898 C.3     1  UNL1        0.0735
     20 C           5.5236   -1.2129   29.9788 C.3     1  UNL1        0.0432
     21 H           3.5116   -2.3916   32.2155 H       1  UNL1        0.1236
     22 C          -1.3478    3.4888   22.2013 C.3     1  UNL1        0.1177
     23 N           0.0103    0.4748   20.0055 N.am    1  UNL1       -0.2683
     24 C          -0.0151    1.7117   20.8537 C.2     1  UNL1        0.3047
     25 O           1.2666    2.4084   21.2025 O.2     1  UNL1       -0.2525
     26 N          -1.3224    2.2519   21.3531 N.am    1  UNL1       -0.2846
     27 H          -0.8310    0.0176   19.7765 H       1  UNL1        0.1564
     28 H          -2.1637    1.7947   21.1241 H       1  UNL1        0.1513
     29 C           3.9318   -1.1459   18.5073 C.ar    1  UNL1        0.0685
     30 C           3.2381   -0.0482   17.7566 C.ar    1  UNL1        0.0115
     31 C           1.9309    0.4921   18.2559 C.ar    1  UNL1        0.0154
     32 C           1.3174   -0.0654   19.5061 C.ar    1  UNL1        0.0516
     33 C           2.0112   -1.1632   20.2568 C.ar    1  UNL1        0.0154
     34 C           3.3184   -1.7035   19.7574 C.ar    1  UNL1        0.0115
     35 N           6.5462   -2.2264   17.5085 N.1     1  UNL1       -0.1908
     36 C           5.2390   -1.6862   18.0079 C.1     1  UNL1        0.1004
@<TRIPOS>BOND
     1    35    36    3
     2    36    29    1
     3    29    30   ar
     4    30    31   ar
     5    31    32   ar
     6    32    23    1
     7    23    24   am
     8    24    25    2
     9    24    26   am
    10    26    22    1
    11    22     1    1
    12     1     2   ar
    13     2     3   ar
    14     3     4   ar
    15     4     5   ar
    16     5     7    1
    17     7     8    2
    18     7     9   am
    19     9    11    1
    20    11    12   ar
    21    12    13   ar
    22    13    14   ar
    23    14    15   ar
    24    15    16   ar
    25    15    17    1
    26    17    18    1
    27    18    19    1
    28    19    20    1
    29     5     6   ar
    30    32    33   ar
    31    33    34   ar
    32    34    29   ar
    33     6     1   ar
    34    16    11   ar
    35    20    14    1
    36    23    27    1
    37    26    28    1
    38     9    10    1
    39    18    21    1
@<TRIPOS>MOLECULE
*****
 36 39 0 0 0
SMALL
GASTEIGER

@<TRIPOS>ATOM
      1 C          -0.5022    1.4509   26.6334 C.ar    1  UNL1       -0.0024
      2 C          -1.3871    2.6581   26.5358 C.ar    1  UNL1       -0.0026
      3 C          -1.4994    3.4028   25.2387 C.ar    1  UNL1       -0.0001
      4 C          -0.7267    2.9404   24.0390 C.ar    1  UNL1        0.0045
      5 C           0.1582    1.7331   24.1366 C.ar    1  UNL1        0.0534
      6 C           0.2704    0.9884   25.4339 C.ar    1  UNL1        0.0019
      7 C           0.9309    1.2706   22.9370 C.2     1  UNL1        0.2495
      8 O           0.2894    1.2831   21.5812 O.2     1  UNL1       -0.2698
      9 N           2.3451    0.7957   23.0933 N.am    1  UNL1       -0.2804
     10 H           2.7661    0.7876   23.9832 H       1  UNL1        0.1552
     11 C           3.1178    0.3332   21.8936 C.ar    1  UNL1        0.0502
     12 C           4.0661    1.2698   21.2056 C.ar    1  UNL1        0.0143
     13 C           4.8389    0.8074   20.0060 C.ar    1  UNL1       -0.0032
     14 C           4.6633   -0.5918   19.4945 C.ar    1  UNL1       -0.0234
     15 C           3.7150   -1.5284   20.1825 C.ar    1  UNL1       -0.0091
     16 C           2.9422   -1.0659   21.3822 C.ar    1  UNL1        0.0114
     17 C           3.5394   -2.9275   19.6710 C.3     1  UNL1        0.0954
     18 N           4.3121   -3.3900   18.4715 N.3     1  UNL1       -0.2935
     19 C           5.2605   -2.4533   17.7834 C.3     1  UNL1        0.0735
     20 C           5.4360   -1.0542   18.2949 C.3     1  UNL1        0.0432
     21 H           3.6270   -3.6803   17.7739 H       1  UNL1        0.1236
     22 C          -0.3900    0.7061   27.9306 C.3     1  UNL1        0.1177
     23 N           2.7064   -0.6862   29.9859 N.am    1  UNL1       -0.2683
     24 C           1.4433    0.0503   29.6508 C.2     1  UNL1        0.3047
     25 O           0.7507    0.8676   30.7006 O.2     1  UNL1       -0.2525
     26 N           0.8730   -0.0304   28.2657 N.am    1  UNL1       -0.2846
     27 H           3.1610   -1.2226   29.2968 H       1  UNL1        0.1564
     28 H           1.3276   -0.5668   27.5767 H       1  UNL1        0.1513
     29 C           4.4174   -0.4439   34.1408 C.ar    1  UNL1        0.0685
     30 C           4.5022   -1.7269   33.3685 C.ar    1  UNL1        0.0115
     31 C           3.9318   -1.8077   31.9834 C.ar    1  UNL1        0.0154
     32 C           3.2767   -0.6054   31.3709 C.ar    1  UNL1        0.0516
     33 C           3.1919    0.6776   32.1433 C.ar    1  UNL1        0.0154
     34 C           3.7622    0.7584   33.5282 C.ar    1  UNL1        0.0115
     35 N           5.5581   -0.2825   36.9108 N.1     1  UNL1       -0.1908
     36 C           4.9877   -0.3632   35.5258 C.1     1  UNL1        0.1004
@<TRIPOS>BOND
     1    35    36    3
     2    36    29    1
     3    29    30   ar
     4    30    31   ar
     5    31    32   ar
     6    32    23    1
     7    23    24   am
     8    24    25    2
     9    24    26   am
    10    26    22    1
    11    22     1    1
    12     1     2   ar
    13     2     3   ar
    14     3     4   ar
    15     4     5   ar
    16     5     7    1
    17     7     8    2
    18     7     9   am
    19     9    11    1
    20    11    12   ar
    21    12    13   ar
    22    13    14   ar
    23    14    15   ar
    24    15    16   ar
    25    15    17    1
    26    17    18    1
    27    18    19    1
    28    19    20    1
    29     5     6   ar
    30    32    33   ar
    31    33    34   ar
    32    34    29   ar
    33     6     1   ar
    34    16    11   ar
    35    20    14    1
    36    23    27    1
    37    26    28    1
    38     9    10    1
    39    18    21    1
