@<TRIPOS>MOLECULE
*****
 34 37 0 0 0
SMALL
GASTEIGER

@<TRIPOS>ATOM
      1 C           2.7987   -0.6679   20.4595 C.ar    1  UNL1        0.0289
      2 C           1.4505   -0.1232   20.8281 C.ar    1  UNL1        0.0145
      3 C           0.7412    0.8159   19.8981 C.ar    1  UNL1        0.0505
      4 C           1.3800    1.2103   18.5995 C.ar    1  UNL1        0.0170
      5 C           2.7281    0.6656   18.2309 C.ar    1  UNL1        0.0306
      6 C           3.4374   -0.2735   19.1609 C.ar    1  UNL1        0.1380
      7 F           4.7855   -0.8182   18.7923 F       1  UNL1       -0.2044
      8 N           2.9869    1.5381   23.7532 N.pl3   1  UNL1       -0.3380
      9 C           3.3971    0.1767   23.2753 C.2     1  UNL1        0.1482
     10 N           3.0979   -0.2456   21.8674 N.2     1  UNL1       -0.2484
     11 C           3.5080   -1.6070   21.3894 C.3     1  UNL1        0.1352
     12 C           3.2088   -2.0293   19.9816 C.3     1  UNL1        0.1686
     13 O           3.6190   -3.3906   19.5037 O.3     1  UNL1       -0.3514
     14 C           4.3283   -4.3297   20.4337 C.3     1  UNL1        0.1424
     15 C           4.6275   -3.9075   21.8416 C.3     1  UNL1        0.0352
     16 C           4.2174   -2.5461   22.3194 C.3     1  UNL1        0.0408
     17 C           4.5166   -2.1238   23.7274 C.3     1  UNL1        0.0672
     18 S           4.1064   -0.7624   24.2052 S.3     1  UNL1       -0.0807
     19 H           2.5213    2.1545   23.1428 H       1  UNL1        0.1442
     20 H           3.1833    1.8152   24.6772 H       1  UNL1        0.1442
     21 N          -0.6069    1.3606   20.2667 N.am    1  UNL1       -0.2791
     22 C          -0.7147    2.6725   20.9860 C.2     1  UNL1        0.2672
     23 O           0.5256    3.4397   21.3366 O.2     1  UNL1       -0.2682
     24 H          -1.4210    0.8570   20.0366 H       1  UNL1        0.1552
     25 C          -2.0628    3.2172   21.3546 C.ar    1  UNL1        0.1350
     26 C          -2.2029    4.1426   22.5268 C.ar    1  UNL1        0.0269
     27 C          -3.5510    4.6873   22.8954 C.ar    1  UNL1        0.0404
     28 C          -4.7591    4.3066   22.0918 C.ar    1  UNL1        0.1634
     29 C          -4.6189    3.3813   20.9196 C.ar    1  UNL1        0.1359
     30 N          -3.2709    2.8366   20.5510 N.ar    1  UNL1       -0.2361
     31 O          -6.1072    4.8513   22.4604 O.3     1  UNL1       -0.4220
     32 C          -6.8636    4.2634   23.6146 C.3     1  UNL1        0.5087
     33 F          -6.1533    3.9605   24.9006 F       1  UNL1       -0.1550
     34 F          -8.3303    3.9783   23.4828 F       1  UNL1       -0.1550
@<TRIPOS>BOND
     1     8     9    1
     2     9    10    2
     3    10    11    1
     4    11     1    1
     5     1     2   ar
     6     2     3   ar
     7     3    21    1
     8    21    22   am
     9    22    23    2
    10    22    25    1
    11    25    26   ar
    12    26    27   ar
    13    27    28   ar
    14    28    31    1
    15    31    32    1
    16    32    33    1
    17    32    34    1
    18    28    29   ar
    19    29    30   ar
    20     3     4   ar
    21     4     5   ar
    22     5     6   ar
    23     6     7    1
    24    11    12    1
    25    12    13    1
    26    13    14    1
    27    14    15    1
    28    16    15    1
    29    16    17    1
    30    17    18    1
    31    18     9    1
    32    16    11    1
    33     6     1   ar
    34    30    25   ar
    35     8    19    1
    36     8    20    1
    37    21    24    1
@<TRIPOS>MOLECULE
*****
 34 37 0 0 0
SMALL
GASTEIGER

@<TRIPOS>ATOM
      1 C           2.8188   -0.6392   20.6826 C.ar    1  UNL1        0.0289
      2 C           1.4710   -0.0816   21.0328 C.ar    1  UNL1        0.0145
      3 C           0.7503    0.8047   20.0607 C.ar    1  UNL1        0.0505
      4 C           1.3774    1.1333   18.7382 C.ar    1  UNL1        0.0170
      5 C           2.7252    0.5757   18.3880 C.ar    1  UNL1        0.0306
      6 C           3.4458   -0.3106   19.3602 C.ar    1  UNL1        0.1380
      7 F           4.7935   -0.8682   19.0100 F       1  UNL1       -0.2044
      8 N           3.4998   -3.8314   18.4249 N.pl3   1  UNL1       -0.3380
      9 C           3.7532   -3.3582   19.8256 C.2     1  UNL1        0.1482
     10 N           3.2860   -1.9987   20.2541 N.2     1  UNL1       -0.2484
     11 C           3.5394   -1.5255   21.6548 C.3     1  UNL1        0.1352
     12 C           3.0722   -0.1661   22.0832 C.3     1  UNL1        0.1686
     13 O           3.3257    0.3070   23.4839 O.3     1  UNL1       -0.3514
     14 C           4.0463   -0.5792   24.4561 C.3     1  UNL1        0.1424
     15 C           4.5135   -1.9387   24.0276 C.3     1  UNL1        0.0352
     16 C           4.2601   -2.4118   22.6270 C.3     1  UNL1        0.0408
     17 C           4.7273   -3.7713   22.1984 C.3     1  UNL1        0.0672
     18 S           4.4739   -4.2444   20.7978 S.3     1  UNL1       -0.0807
     19 H           3.0268   -3.2497   17.7868 H       1  UNL1        0.1442
     20 H           3.8064   -4.7236   18.1437 H       1  UNL1        0.1442
     21 N          -0.5974    1.3623   20.4108 N.am    1  UNL1       -0.2791
     22 C          -0.7055    2.7086   21.0635 C.2     1  UNL1        0.2672
     23 O           0.5341    3.4972   21.3659 O.2     1  UNL1       -0.2682
     24 H          -1.4110    0.8447   20.2124 H       1  UNL1        0.1552
     25 C          -2.0532    3.2662   21.4137 C.ar    1  UNL1        0.1350
     26 C          -2.1837    4.2774   22.5139 C.ar    1  UNL1        0.0269
     27 C          -3.5314    4.8351   22.8641 C.ar    1  UNL1        0.0404
     28 C          -4.7487    4.3815   22.1141 C.ar    1  UNL1        0.1634
     29 C          -4.6183    3.3703   21.0139 C.ar    1  UNL1        0.1359
     30 N          -3.2705    2.8126   20.6637 N.ar    1  UNL1       -0.2361
     31 O          -6.0964    4.9391   22.4643 O.3     1  UNL1       -0.4220
     32 C          -6.8663    4.3705   23.6192 C.3     1  UNL1        0.5087
     33 F          -8.3131    4.0112   23.4520 F       1  UNL1       -0.1550
     34 F          -6.1895    4.1610   24.9414 F       1  UNL1       -0.1550
@<TRIPOS>BOND
     1     8     9    1
     2     9    10    2
     3    10    11    1
     4    11     1    1
     5     1     2   ar
     6     2     3   ar
     7     3    21    1
     8    21    22   am
     9    22    23    2
    10    22    25    1
    11    25    26   ar
    12    26    27   ar
    13    27    28   ar
    14    28    31    1
    15    31    32    1
    16    32    33    1
    17    32    34    1
    18    28    29   ar
    19    29    30   ar
    20     3     4   ar
    21     4     5   ar
    22     5     6   ar
    23     6     7    1
    24    11    12    1
    25    12    13    1
    26    13    14    1
    27    14    15    1
    28    16    15    1
    29    16    17    1
    30    17    18    1
    31    18     9    1
    32    16    11    1
    33     6     1   ar
    34    30    25   ar
    35     8    19    1
    36     8    20    1
    37    21    24    1
@<TRIPOS>MOLECULE
*****
 34 37 0 0 0
SMALL
GASTEIGER

@<TRIPOS>ATOM
      1 C           7.0515   -2.8139   30.0722 C.ar    1  UNL1        0.0289
      2 C           6.6733   -2.7037   28.6248 C.ar    1  UNL1        0.0145
      3 C           6.3800   -3.9415   27.8300 C.ar    1  UNL1        0.0505
      4 C           6.4649   -5.2895   28.4825 C.ar    1  UNL1        0.0170
      5 C           6.8430   -5.3997   29.9299 C.ar    1  UNL1        0.0306
      6 C           7.1363   -4.1618   30.7247 C.ar    1  UNL1        0.1380
      7 F           7.5145   -4.2720   32.1721 F       1  UNL1       -0.2044
      8 N           4.4193   -3.1745   33.0205 N.pl3   1  UNL1       -0.3380
      9 C           5.4922   -2.2291   32.5676 C.2     1  UNL1        0.1482
     10 N           6.2718   -2.5215   31.3200 N.2     1  UNL1       -0.2484
     11 C           7.3448   -1.5761   30.8671 C.3     1  UNL1        0.1352
     12 C           8.1244   -1.8685   29.6194 C.3     1  UNL1        0.1686
     13 O           9.1972   -0.9231   29.1666 O.3     1  UNL1       -0.3514
     14 C           9.4905    0.3147   29.9615 C.3     1  UNL1        0.1424
     15 C           8.7110    0.6071   31.2091 C.3     1  UNL1        0.0352
     16 C           7.6381   -0.3383   31.6619 C.3     1  UNL1        0.0408
     17 C           6.8584   -0.0459   32.9097 C.3     1  UNL1        0.0672
     18 S           5.7855   -0.9913   33.3625 S.3     1  UNL1       -0.0807
     19 H           4.2268   -3.9870   32.4988 H       1  UNL1        0.1442
     20 H           3.9076   -2.9826   33.8394 H       1  UNL1        0.1442
     21 N           6.0019   -3.8314   26.3826 N.am    1  UNL1       -0.2791
     22 C           7.0479   -3.9934   25.3197 C.2     1  UNL1        0.2672
     23 O           8.4720   -4.2654   25.7042 O.2     1  UNL1       -0.2682
     24 H           5.0672   -3.6528   26.1303 H       1  UNL1        0.1552
     25 C           6.6697   -3.8832   23.8724 C.ar    1  UNL1        0.1350
     26 C           5.2757   -3.4831   23.4898 C.ar    1  UNL1        0.0269
     27 C           4.8974   -3.3729   22.0424 C.ar    1  UNL1        0.0404
     28 C           5.9134   -3.6630   20.9776 C.ar    1  UNL1        0.1634
     29 C           7.3075   -4.0631   21.3603 C.ar    1  UNL1        0.1359
     30 N           7.6856   -4.1733   22.8076 N.ar    1  UNL1       -0.2361
     31 O           5.5352   -3.5528   19.5303 O.3     1  UNL1       -0.4220
     32 C           4.4814   -4.4549   18.9598 C.3     1  UNL1        0.5087
     33 F           3.0437   -4.0269   18.9667 F       1  UNL1       -0.1550
     34 F           4.8651   -5.7851   18.3823 F       1  UNL1       -0.1550
@<TRIPOS>BOND
     1     8     9    1
     2     9    10    2
     3    10    11    1
     4    11     1    1
     5     1     2   ar
     6     2     3   ar
     7     3    21    1
     8    21    22   am
     9    22    23    2
    10    22    25    1
    11    25    26   ar
    12    26    27   ar
    13    27    28   ar
    14    28    31    1
    15    31    32    1
    16    32    33    1
    17    32    34    1
    18    28    29   ar
    19    29    30   ar
    20     3     4   ar
    21     4     5   ar
    22     5     6   ar
    23     6     7    1
    24    11    12    1
    25    12    13    1
    26    13    14    1
    27    14    15    1
    28    16    15    1
    29    16    17    1
    30    17    18    1
    31    18     9    1
    32    16    11    1
    33     6     1   ar
    34    30    25   ar
    35     8    19    1
    36     8    20    1
    37    21    24    1
@<TRIPOS>MOLECULE
*****
 34 37 0 0 0
SMALL
GASTEIGER

@<TRIPOS>ATOM
      1 C           4.2498   -0.7049   19.2353 C.ar    1  UNL1        0.0289
      2 C           4.8828   -1.0581   20.5486 C.ar    1  UNL1        0.0145
      3 C           5.8147   -2.2298   20.6409 C.ar    1  UNL1        0.0505
      4 C           6.1136   -3.0484   19.4199 C.ar    1  UNL1        0.0170
      5 C           5.4806   -2.6952   18.1067 C.ar    1  UNL1        0.0306
      6 C           4.5487   -1.5234   18.0144 C.ar    1  UNL1        0.1380
      7 F           3.9157   -1.1702   16.7012 F       1  UNL1       -0.2044
      8 N           6.6663    2.0582   17.7264 N.pl3   1  UNL1       -0.3380
      9 C           5.2395    1.9183   18.1678 C.2     1  UNL1        0.1482
     10 N           4.7447    0.6068   18.7015 N.2     1  UNL1       -0.2484
     11 C           3.3179    0.4669   19.1430 C.3     1  UNL1        0.1352
     12 C           2.8231   -0.8446   19.6767 C.3     1  UNL1        0.1686
     13 O           1.3964   -0.9844   20.1181 O.3     1  UNL1       -0.3514
     14 C           0.4645    0.1874   20.0258 C.3     1  UNL1        0.1424
     15 C           0.9593    1.4989   19.4921 C.3     1  UNL1        0.0352
     16 C           2.3860    1.6387   19.0507 C.3     1  UNL1        0.0408
     17 C           2.8809    2.9503   18.5169 C.3     1  UNL1        0.0672
     18 S           4.3077    3.0901   18.0755 S.3     1  UNL1       -0.0807
     19 H           7.2780    1.2891   17.7870 H       1  UNL1        0.1442
     20 H           6.9911    2.9190   17.3761 H       1  UNL1        0.1442
     21 N           6.4477   -2.5831   21.9541 N.am    1  UNL1       -0.2791
     22 C           5.7046   -3.4353   22.9398 C.2     1  UNL1        0.2672
     23 O           4.3284   -3.9342   22.6122 O.2     1  UNL1       -0.2682
     24 H           7.3509   -2.2556   22.1690 H       1  UNL1        0.1552
     25 C           6.3376   -3.7885   24.2530 C.ar    1  UNL1        0.1350
     26 C           7.1881   -5.0186   24.3687 C.ar    1  UNL1        0.0269
     27 C           7.8211   -5.3719   25.6820 C.ar    1  UNL1        0.0404
     28 C           7.6036   -4.4950   26.8794 C.ar    1  UNL1        0.1634
     29 C           6.7531   -3.2649   26.7635 C.ar    1  UNL1        0.1359
     30 N           6.1200   -2.9116   25.4504 N.ar    1  UNL1       -0.2361
     31 O           8.2366   -4.8482   28.1925 O.3     1  UNL1       -0.4220
     32 C           7.7068   -5.9995   28.9949 C.3     1  UNL1        0.5087
     33 F           8.3980   -7.3299   28.9446 F       1  UNL1       -0.1550
     34 F           6.4858   -5.8205   29.8476 F       1  UNL1       -0.1550
@<TRIPOS>BOND
     1     8     9    1
     2     9    10    2
     3    10    11    1
     4    11     1    1
     5     1     2   ar
     6     2     3   ar
     7     3    21    1
     8    21    22   am
     9    22    23    2
    10    22    25    1
    11    25    26   ar
    12    26    27   ar
    13    27    28   ar
    14    28    31    1
    15    31    32    1
    16    32    33    1
    17    32    34    1
    18    28    29   ar
    19    29    30   ar
    20     3     4   ar
    21     4     5   ar
    22     5     6   ar
    23     6     7    1
    24    11    12    1
    25    12    13    1
    26    13    14    1
    27    14    15    1
    28    16    15    1
    29    16    17    1
    30    17    18    1
    31    18     9    1
    32    16    11    1
    33     6     1   ar
    34    30    25   ar
    35     8    19    1
    36     8    20    1
    37    21    24    1
@<TRIPOS>MOLECULE
*****
 34 37 0 0 0
SMALL
GASTEIGER

@<TRIPOS>ATOM
      1 C          -1.4609    3.9255   23.4966 C.ar    1  UNL1        0.0289
      2 C          -0.7224    2.8057   22.8252 C.ar    1  UNL1        0.0145
      3 C           0.7447    2.9384   22.5420 C.ar    1  UNL1        0.0505
      4 C           1.4732    4.1909   22.9302 C.ar    1  UNL1        0.0170
      5 C           0.7347    5.3106   23.6016 C.ar    1  UNL1        0.0306
      6 C          -0.7323    5.1779   23.8848 C.ar    1  UNL1        0.1380
      7 F          -1.4709    6.2976   24.5562 F       1  UNL1       -0.2044
      8 N          -2.8900    3.4189   19.8290 N.pl3   1  UNL1       -0.3380
      9 C          -3.3916    3.4993   21.2404 C.2     1  UNL1        0.1482
     10 N          -2.4263    3.7124   22.3685 N.2     1  UNL1       -0.2484
     11 C          -2.9279    3.7928   23.7799 C.3     1  UNL1        0.1352
     12 C          -1.9625    4.0059   24.9079 C.3     1  UNL1        0.1686
     13 O          -2.4642    4.0863   26.3193 O.3     1  UNL1       -0.3514
     14 C          -3.9312    3.9536   26.6025 C.3     1  UNL1        0.1424
     15 C          -4.8966    3.7405   25.4744 C.3     1  UNL1        0.0352
     16 C          -4.3949    3.6601   24.0631 C.3     1  UNL1        0.0408
     17 C          -5.3603    3.4470   22.9349 C.3     1  UNL1        0.0672
     18 S          -4.8587    3.3666   21.5236 S.3     1  UNL1       -0.0807
     19 H          -1.9271    3.5060   19.6431 H       1  UNL1        0.1442
     20 H          -3.5236    3.2790   19.0886 H       1  UNL1        0.1442
     21 N           1.4832    1.8187   21.8706 N.am    1  UNL1       -0.2791
     22 C           1.9590    0.6454   22.6750 C.2     1  UNL1        0.2672
     23 O           1.6963    0.5919   24.1509 O.2     1  UNL1       -0.2682
     24 H           1.6556    1.8539   20.9019 H       1  UNL1        0.1552
     25 C           2.6975   -0.4743   22.0036 C.ar    1  UNL1        0.1350
     26 C           3.4861   -1.4511   22.8246 C.ar    1  UNL1        0.0269
     27 C           4.2246   -2.5709   22.1532 C.ar    1  UNL1        0.0404
     28 C           4.1746   -2.7138   20.6608 C.ar    1  UNL1        0.1634
     29 C           3.3860   -1.7369   19.8399 C.ar    1  UNL1        0.1359
     30 N           2.6475   -0.6172   20.5113 N.ar    1  UNL1       -0.2361
     31 O           4.9131   -3.8335   19.9894 O.3     1  UNL1       -0.4220
     32 C           4.1732   -4.8018   19.1149 C.3     1  UNL1        0.5087
     33 F           4.9310   -5.8147   18.3089 F       1  UNL1       -0.1550
     34 F           2.6754   -4.7572   19.0465 F       1  UNL1       -0.1550
@<TRIPOS>BOND
     1     8     9    1
     2     9    10    2
     3    10    11    1
     4    11     1    1
     5     1     2   ar
     6     2     3   ar
     7     3    21    1
     8    21    22   am
     9    22    23    2
    10    22    25    1
    11    25    26   ar
    12    26    27   ar
    13    27    28   ar
    14    28    31    1
    15    31    32    1
    16    32    33    1
    17    32    34    1
    18    28    29   ar
    19    29    30   ar
    20     3     4   ar
    21     4     5   ar
    22     5     6   ar
    23     6     7    1
    24    11    12    1
    25    12    13    1
    26    13    14    1
    27    14    15    1
    28    16    15    1
    29    16    17    1
    30    17    18    1
    31    18     9    1
    32    16    11    1
    33     6     1   ar
    34    30    25   ar
    35     8    19    1
    36     8    20    1
    37    21    24    1
@<TRIPOS>MOLECULE
*****
 34 37 0 0 0
SMALL
GASTEIGER

@<TRIPOS>ATOM
      1 C           4.4054   -0.2957   18.8077 C.ar    1  UNL1        0.0289
      2 C           5.0383   -0.6738   20.1141 C.ar    1  UNL1        0.0145
      3 C           5.6331   -2.0393   20.2919 C.ar    1  UNL1        0.0505
      4 C           5.5951   -3.0267   19.1633 C.ar    1  UNL1        0.0170
      5 C           4.9623   -2.6486   17.8570 C.ar    1  UNL1        0.0306
      6 C           4.3675   -1.2831   17.6792 C.ar    1  UNL1        0.1380
      7 F           3.7347   -0.9050   16.3728 F       1  UNL1       -0.2044
      8 N           0.7068   -0.9139   20.1072 N.pl3   1  UNL1       -0.3380
      9 C           1.5432    0.2025   19.5555 C.2     1  UNL1        0.1482
     10 N           2.9743   -0.0466   19.1816 N.2     1  UNL1       -0.2484
     11 C           3.8106    1.0697   18.6299 C.3     1  UNL1        0.1352
     12 C           5.2417    0.8206   18.2560 C.3     1  UNL1        0.1686
     13 O           6.0780    1.9369   17.7043 O.3     1  UNL1       -0.3514
     14 C           5.4831    3.3024   17.5265 C.3     1  UNL1        0.1424
     15 C           4.0520    3.5516   17.9004 C.3     1  UNL1        0.0352
     16 C           3.2158    2.4352   18.4521 C.3     1  UNL1        0.0408
     17 C           1.7846    2.6843   18.8260 C.3     1  UNL1        0.0672
     18 S           0.9483    1.5680   19.3777 S.3     1  UNL1       -0.0807
     19 H           1.0972   -1.8101   20.2239 H       1  UNL1        0.1442
     20 H          -0.2325   -0.7503   20.3526 H       1  UNL1        0.1442
     21 N           6.2659   -2.4174   21.5983 N.am    1  UNL1       -0.2791
     22 C           5.6961   -3.5430   22.4097 C.2     1  UNL1        0.2672
     23 O           4.4934   -4.2905   21.9147 O.2     1  UNL1       -0.2682
     24 H           7.0552   -1.9268   21.9231 H       1  UNL1        0.1552
     25 C           6.3289   -3.9212   23.7160 C.ar    1  UNL1        0.1350
     26 C           6.1321   -3.0535   24.9236 C.ar    1  UNL1        0.0269
     27 C           6.7649   -3.4316   26.2301 C.ar    1  UNL1        0.0404
     28 C           7.5945   -4.6774   26.3288 C.ar    1  UNL1        0.1634
     29 C           7.7913   -5.5451   25.1211 C.ar    1  UNL1        0.1359
     30 N           7.1585   -5.1670   23.8148 N.ar    1  UNL1       -0.2361
     31 O           8.2273   -5.0555   27.6351 O.3     1  UNL1       -0.4220
     32 C           7.6060   -6.1209   28.4888 C.3     1  UNL1        0.5087
     33 F           8.0377   -7.5495   28.3378 F       1  UNL1       -0.1550
     34 F           6.5530   -5.7578   29.4935 F       1  UNL1       -0.1550
@<TRIPOS>BOND
     1     8     9    1
     2     9    10    2
     3    10    11    1
     4    11     1    1
     5     1     2   ar
     6     2     3   ar
     7     3    21    1
     8    21    22   am
     9    22    23    2
    10    22    25    1
    11    25    26   ar
    12    26    27   ar
    13    27    28   ar
    14    28    31    1
    15    31    32    1
    16    32    33    1
    17    32    34    1
    18    28    29   ar
    19    29    30   ar
    20     3     4   ar
    21     4     5   ar
    22     5     6   ar
    23     6     7    1
    24    11    12    1
    25    12    13    1
    26    13    14    1
    27    14    15    1
    28    16    15    1
    29    16    17    1
    30    17    18    1
    31    18     9    1
    32    16    11    1
    33     6     1   ar
    34    30    25   ar
    35     8    19    1
    36     8    20    1
    37    21    24    1
@<TRIPOS>MOLECULE
*****
 34 37 0 0 0
SMALL
GASTEIGER

@<TRIPOS>ATOM
      1 C           6.1757   -2.1897   30.8472 C.ar    1  UNL1        0.0289
      2 C           5.8346   -1.7586   29.4516 C.ar    1  UNL1        0.0145
      3 C           5.9215   -2.7405   28.3209 C.ar    1  UNL1        0.0505
      4 C           6.3495   -4.1536   28.5860 C.ar    1  UNL1        0.0170
      5 C           6.6906   -4.5846   29.9816 C.ar    1  UNL1        0.0306
      6 C           6.6037   -3.6027   31.1123 C.ar    1  UNL1        0.1380
      7 F           6.9448   -4.0337   32.5079 F       1  UNL1       -0.2044
      8 N           2.4098   -0.9845   30.5062 N.pl3   1  UNL1       -0.3380
      9 C           3.6072   -0.7316   31.3736 C.2     1  UNL1        0.1482
     10 N           4.8914   -1.4607   31.1104 N.2     1  UNL1       -0.2484
     11 C           6.0888   -1.2078   31.9778 C.3     1  UNL1        0.1352
     12 C           7.3730   -1.9368   31.7146 C.3     1  UNL1        0.1686
     13 O           8.5703   -1.6839   32.5821 O.3     1  UNL1       -0.3514
     14 C           8.4834   -0.7020   33.7127 C.3     1  UNL1        0.1424
     15 C           7.1993    0.0270   33.9759 C.3     1  UNL1        0.0352
     16 C           6.0020   -0.2259   33.1084 C.3     1  UNL1        0.0408
     17 C           4.7177    0.5032   33.3716 C.3     1  UNL1        0.0672
     18 S           3.5204    0.2503   32.5042 S.3     1  UNL1       -0.0807
     19 H           2.4669   -1.6290   29.7641 H       1  UNL1        0.1442
     20 H           1.5670   -0.5060   30.6789 H       1  UNL1        0.1442
     21 N           5.5804   -2.3095   26.9253 N.am    1  UNL1       -0.2791
     22 C           4.2201   -1.7542   26.6232 C.2     1  UNL1        0.2672
     23 O           3.2009   -1.6300   27.7167 O.2     1  UNL1       -0.2682
     24 H           6.2494   -2.3910   26.2076 H       1  UNL1        0.1552
     25 C           3.8790   -1.3231   25.2276 C.ar    1  UNL1        0.1350
     26 C           3.0098   -0.1211   25.0052 C.ar    1  UNL1        0.0269
     27 C           2.6687    0.3100   23.6095 C.ar    1  UNL1        0.0404
     28 C           3.1968   -0.4610   22.4363 C.ar    1  UNL1        0.1634
     29 C           4.0660   -1.6631   22.6586 C.ar    1  UNL1        0.1359
     30 N           4.4071   -2.0942   24.0543 N.ar    1  UNL1       -0.2361
     31 O           2.8557   -0.0299   21.0406 O.3     1  UNL1       -0.4220
     32 C           2.0061   -0.9084   20.1709 C.3     1  UNL1        0.5087
     33 F           2.5250   -2.2402   19.7158 F       1  UNL1       -0.1550
     34 F           0.6377   -0.4551   19.7563 F       1  UNL1       -0.1550
@<TRIPOS>BOND
     1     8     9    1
     2     9    10    2
     3    10    11    1
     4    11     1    1
     5     1     2   ar
     6     2     3   ar
     7     3    21    1
     8    21    22   am
     9    22    23    2
    10    22    25    1
    11    25    26   ar
    12    26    27   ar
    13    27    28   ar
    14    28    31    1
    15    31    32    1
    16    32    33    1
    17    32    34    1
    18    28    29   ar
    19    29    30   ar
    20     3     4   ar
    21     4     5   ar
    22     5     6   ar
    23     6     7    1
    24    11    12    1
    25    12    13    1
    26    13    14    1
    27    14    15    1
    28    16    15    1
    29    16    17    1
    30    17    18    1
    31    18     9    1
    32    16    11    1
    33     6     1   ar
    34    30    25   ar
    35     8    19    1
    36     8    20    1
    37    21    24    1
@<TRIPOS>MOLECULE
*****
 34 37 0 0 0
SMALL
GASTEIGER

@<TRIPOS>ATOM
      1 C           4.0936   -0.3031   30.4272 C.ar    1  UNL1        0.0289
      2 C           4.2534   -0.9674   29.0918 C.ar    1  UNL1        0.0145
      3 C           3.1124   -0.9782   28.1182 C.ar    1  UNL1        0.0505
      4 C           1.8116   -0.3246   28.4799 C.ar    1  UNL1        0.0170
      5 C           1.6519    0.3397   29.8152 C.ar    1  UNL1        0.0306
      6 C           2.7929    0.3505   30.7888 C.ar    1  UNL1        0.1380
      7 F           2.6331    1.0148   32.1242 F       1  UNL1       -0.2044
      8 N           6.9123    1.4602   28.2600 N.pl3   1  UNL1       -0.3380
      9 C           6.7334    0.8796   29.6315 C.2     1  UNL1        0.1482
     10 N           5.4135    0.2883   30.0293 N.2     1  UNL1       -0.2484
     11 C           5.2346   -0.2923   31.4008 C.3     1  UNL1        0.1352
     12 C           3.9148   -0.8836   31.7986 C.3     1  UNL1        0.1686
     13 O           3.7360   -1.4641   33.1701 O.3     1  UNL1       -0.3514
     14 C           4.8770   -1.4533   34.1437 C.3     1  UNL1        0.1424
     15 C           6.1968   -0.8620   33.7459 C.3     1  UNL1        0.0352
     16 C           6.3756   -0.2815   32.3745 C.3     1  UNL1        0.0408
     17 C           7.6955    0.3099   31.9766 C.3     1  UNL1        0.0672
     18 S           7.8744    0.8904   30.6051 S.3     1  UNL1       -0.0807
     19 H           6.1634    1.4531   27.6209 H       1  UNL1        0.1442
     20 H           7.7785    1.8483   27.9989 H       1  UNL1        0.1442
     21 N           3.2722   -1.6425   26.7828 N.am    1  UNL1       -0.2791
     22 C           4.1737   -1.0381   25.7474 C.2     1  UNL1        0.2672
     23 O           4.9154    0.2308   26.0475 O.2     1  UNL1       -0.2682
     24 H           2.7854   -2.4753   26.5860 H       1  UNL1        0.1552
     25 C           4.3335   -1.7024   24.4121 C.ar    1  UNL1        0.1350
     26 C           3.5719   -1.1923   23.2248 C.ar    1  UNL1        0.0269
     27 C           3.7316   -1.8566   21.8894 C.ar    1  UNL1        0.0404
     28 C           4.6530   -3.0310   21.7414 C.ar    1  UNL1        0.1634
     29 C           5.4146   -3.5411   22.9288 C.ar    1  UNL1        0.1359
     30 N           5.2548   -2.8767   24.2641 N.ar    1  UNL1       -0.2361
     31 O           4.8127   -3.6953   20.4061 O.3     1  UNL1       -0.4220
     32 C           3.7441   -3.5502   19.3636 C.3     1  UNL1        0.5087
     33 F           3.6337   -2.2791   18.5746 F       1  UNL1       -0.1550
     34 F           2.7858   -4.6759   19.1100 F       1  UNL1       -0.1550
@<TRIPOS>BOND
     1     8     9    1
     2     9    10    2
     3    10    11    1
     4    11     1    1
     5     1     2   ar
     6     2     3   ar
     7     3    21    1
     8    21    22   am
     9    22    23    2
    10    22    25    1
    11    25    26   ar
    12    26    27   ar
    13    27    28   ar
    14    28    31    1
    15    31    32    1
    16    32    33    1
    17    32    34    1
    18    28    29   ar
    19    29    30   ar
    20     3     4   ar
    21     4     5   ar
    22     5     6   ar
    23     6     7    1
    24    11    12    1
    25    12    13    1
    26    13    14    1
    27    14    15    1
    28    16    15    1
    29    16    17    1
    30    17    18    1
    31    18     9    1
    32    16    11    1
    33     6     1   ar
    34    30    25   ar
    35     8    19    1
    36     8    20    1
    37    21    24    1
@<TRIPOS>MOLECULE
*****
 34 37 0 0 0
SMALL
GASTEIGER

@<TRIPOS>ATOM
      1 C           3.8233   -1.4921   20.5876 C.ar    1  UNL1        0.0289
      2 C           3.9276   -1.3387   22.0762 C.ar    1  UNL1        0.0145
      3 C           4.3085   -2.5143   22.9264 C.ar    1  UNL1        0.0505
      4 C           4.5851   -3.8433   22.2881 C.ar    1  UNL1        0.0170
      5 C           4.4808   -3.9966   20.7997 C.ar    1  UNL1        0.0306
      6 C           4.0999   -2.8211   19.9494 C.ar    1  UNL1        0.1380
      7 F           3.9956   -2.9744   18.4610 F       1  UNL1       -0.2044
      8 N           7.3535   -0.4790   19.0838 N.pl3   1  UNL1       -0.3380
      9 C           5.9228   -0.0330   19.0183 C.2     1  UNL1        0.1482
     10 N           4.8731   -0.7625   19.8029 N.2     1  UNL1       -0.2484
     11 C           3.4424   -0.3165   19.7374 C.3     1  UNL1        0.1352
     12 C           2.3927   -1.0461   20.5221 C.3     1  UNL1        0.1686
     13 O           0.9621   -0.6001   20.4565 O.3     1  UNL1       -0.3514
     14 C           0.5812    0.5755   19.6063 C.3     1  UNL1        0.1424
     15 C           1.6309    1.3051   18.8216 C.3     1  UNL1        0.0352
     16 C           3.0615    0.8591   18.8872 C.3     1  UNL1        0.0408
     17 C           4.1113    1.5886   18.1025 C.3     1  UNL1        0.0672
     18 S           5.5419    1.1426   18.1680 S.3     1  UNL1       -0.0807
     19 H           7.6036   -1.2505   19.6418 H       1  UNL1        0.1442
     20 H           8.0425   -0.0001   18.5688 H       1  UNL1        0.1442
     21 N           4.4128   -2.3610   24.4149 N.am    1  UNL1       -0.2791
     22 C           5.7567   -2.1906   25.0590 C.2     1  UNL1        0.2672
     23 O           6.9964   -2.1736   24.2146 O.2     1  UNL1       -0.2682
     24 H           3.5992   -2.3721   24.9691 H       1  UNL1        0.1552
     25 C           5.8610   -2.0372   26.5474 C.ar    1  UNL1        0.1350
     26 C           6.3544   -3.1787   27.3862 C.ar    1  UNL1        0.0269
     27 C           6.4588   -3.0254   28.8748 C.ar    1  UNL1        0.0404
     28 C           6.0696   -1.7306   29.5245 C.ar    1  UNL1        0.1634
     29 C           5.5762   -0.5891   28.6856 C.ar    1  UNL1        0.1359
     30 N           5.4719   -0.7425   27.1971 N.ar    1  UNL1       -0.2361
     31 O           6.1739   -1.5773   31.0129 O.3     1  UNL1       -0.4220
     32 C           5.0623   -2.0606   31.8964 C.3     1  UNL1        0.5087
     33 F           5.3282   -3.1190   32.9255 F       1  UNL1       -0.1550
     34 F           3.6846   -1.4855   31.7508 F       1  UNL1       -0.1550
@<TRIPOS>BOND
     1     8     9    1
     2     9    10    2
     3    10    11    1
     4    11     1    1
     5     1     2   ar
     6     2     3   ar
     7     3    21    1
     8    21    22   am
     9    22    23    2
    10    22    25    1
    11    25    26   ar
    12    26    27   ar
    13    27    28   ar
    14    28    31    1
    15    31    32    1
    16    32    33    1
    17    32    34    1
    18    28    29   ar
    19    29    30   ar
    20     3     4   ar
    21     4     5   ar
    22     5     6   ar
    23     6     7    1
    24    11    12    1
    25    12    13    1
    26    13    14    1
    27    14    15    1
    28    16    15    1
    29    16    17    1
    30    17    18    1
    31    18     9    1
    32    16    11    1
    33     6     1   ar
    34    30    25   ar
    35     8    19    1
    36     8    20    1
    37    21    24    1
