@<TRIPOS>MOLECULE
*****
 26 28 0 0 0
SMALL
GASTEIGER

@<TRIPOS>ATOM
      1 C          -4.9863  -15.9315   23.7817 C.ar    1  UNL1        0.3134
      2 N          -6.3722  -16.4123   23.4687 N.ar    1  UNL1       -0.1854
      3 C          -7.3293  -15.6825   24.3638 C.ar    1  UNL1        0.2051
      4 N          -6.5349  -14.7505   25.2301 N.ar    1  UNL1       -0.0582
      5 O          -5.0868  -14.9044   24.8704 O.2     1  UNL1       -0.3279
      6 O          -2.9797  -15.4804   22.1944 O.2     1  UNL1       -0.2649
      7 C          -3.7219  -16.3961   23.1220 C.2     1  UNL1        0.3025
      8 N          -3.1996  -17.7766   23.3899 N.am    1  UNL1       -0.2930
      9 H          -3.6868  -18.3776   23.9988 H       1  UNL1        0.1502
     10 C          -1.9352  -18.2412   22.7302 C.3     1  UNL1        0.1168
     11 C          -1.8253  -18.2392   21.2342 C.ar    1  UNL1        0.0005
     12 C          -0.6008  -17.6796   20.5729 C.ar    1  UNL1        0.0181
     13 C          -0.4909  -17.6776   19.0769 C.ar    1  UNL1        0.0986
     14 N          -1.6055  -18.2353   18.2423 N.ar    1  UNL1       -0.2423
     15 C          -2.8300  -18.7949   18.9036 C.ar    1  UNL1        0.0986
     16 C          -2.9399  -18.7969   20.3995 C.ar    1  UNL1        0.0181
     17 C          -8.8192  -15.8543   24.3884 C.3     1  UNL1        0.2245
     18 S          -9.4757  -16.8410   23.4689 S.O2    1  UNL1        0.0162
     19 O          -9.3199  -15.8808   22.3272 O.2     1  UNL1       -0.1682
     20 O          -9.6315  -17.8014   24.6106 O.2     1  UNL1       -0.1682
     21 C         -10.1321  -17.8278   22.5494 C.ar    1  UNL1        0.1062
     22 C         -10.4010  -19.2268   23.0191 C.ar    1  UNL1        0.0184
     23 C         -11.0574  -20.2134   22.0995 C.ar    1  UNL1        0.0013
     24 C         -11.4450  -19.8011   20.7103 C.ar    1  UNL1        0.0001
     25 C         -11.1762  -18.4021   20.2407 C.ar    1  UNL1        0.0013
     26 C         -10.5198  -17.4155   21.1602 C.ar    1  UNL1        0.0184
@<TRIPOS>BOND
     1     6     7    2
     2     7     8   am
     3     8    10    1
     4    10    11    1
     5    11    12   ar
     6    12    13   ar
     7    13    14   ar
     8    14    15   ar
     9    15    16   ar
    10     7     1    1
    11     1     2   ar
    12     2     3   ar
    13     3    17    1
    14    17    18    1
    15    18    19    2
    16    18    20    2
    17    18    21    1
    18    21    22   ar
    19    22    23   ar
    20    23    24   ar
    21    24    25   ar
    22    25    26   ar
    23     3     4   ar
    24     4     5   ar
    25    16    11   ar
    26     5     1   ar
    27    26    21   ar
    28     8     9    1
@<TRIPOS>MOLECULE
*****
 26 28 0 0 0
SMALL
GASTEIGER

@<TRIPOS>ATOM
      1 C          -6.9781  -19.9239   19.9792 C.ar    1  UNL1        0.3134
      2 N          -8.0381  -18.9642   20.4323 N.ar    1  UNL1       -0.1854
      3 C          -9.2893  -19.2561   19.6582 C.ar    1  UNL1        0.2051
      4 N          -9.0026  -20.3964   18.7267 N.ar    1  UNL1       -0.0582
      5 O          -7.5743  -20.8091   18.9250 O.2     1  UNL1       -0.3279
      6 O          -4.5339  -20.7717   19.7403 O.2     1  UNL1       -0.2649
      7 C          -5.5694  -19.9874   20.4904 C.2     1  UNL1        0.3025
      8 N          -5.1961  -19.2665   21.7518 N.am    1  UNL1       -0.2930
      9 H          -5.8757  -18.7517   22.2441 H       1  UNL1        0.1502
     10 C          -3.7874  -19.3300   22.2631 C.3     1  UNL1        0.1168
     11 C          -2.7277  -18.4622   21.6514 C.ar    1  UNL1        0.0005
     12 C          -1.7917  -19.0311   20.6266 C.ar    1  UNL1        0.0181
     13 C          -0.7320  -18.1633   20.0150 C.ar    1  UNL1        0.0986
     14 N          -0.6084  -16.7267   20.4281 N.ar    1  UNL1       -0.2423
     15 C          -1.5444  -16.1578   21.4529 C.ar    1  UNL1        0.0986
     16 C          -2.6040  -17.0255   22.0645 C.ar    1  UNL1        0.0181
     17 C         -10.5975  -18.5346   19.7922 C.3     1  UNL1        0.2245
     18 S         -11.3058  -18.5049   21.1141 S.O2    1  UNL1        0.0162
     19 O         -11.1434  -19.9912   21.2345 O.2     1  UNL1       -0.1682
     20 O         -11.4683  -17.0185   20.9936 O.2     1  UNL1       -0.1682
     21 C         -12.0141  -18.4752   22.4360 C.ar    1  UNL1        0.1062
     22 C         -13.3970  -17.9022   22.5333 C.ar    1  UNL1        0.0184
     23 C         -14.1052  -17.8725   23.8552 C.ar    1  UNL1        0.0013
     24 C         -13.4305  -18.4157   25.0799 C.ar    1  UNL1        0.0001
     25 C         -12.0477  -18.9887   24.9826 C.ar    1  UNL1        0.0013
     26 C         -11.3395  -19.0184   23.6607 C.ar    1  UNL1        0.0184
@<TRIPOS>BOND
     1     6     7    2
     2     7     8   am
     3     8    10    1
     4    10    11    1
     5    11    12   ar
     6    12    13   ar
     7    13    14   ar
     8    14    15   ar
     9    15    16   ar
    10     7     1    1
    11     1     2   ar
    12     2     3   ar
    13     3    17    1
    14    17    18    1
    15    18    19    2
    16    18    20    2
    17    18    21    1
    18    21    22   ar
    19    22    23   ar
    20    23    24   ar
    21    24    25   ar
    22    25    26   ar
    23     3     4   ar
    24     4     5   ar
    25    16    11   ar
    26     5     1   ar
    27    26    21   ar
    28     8     9    1
@<TRIPOS>MOLECULE
*****
 26 28 0 0 0
SMALL
GASTEIGER

@<TRIPOS>ATOM
      1 C          -8.1028  -19.3489   20.6625 C.ar    1  UNL1        0.3134
      2 N          -8.2416  -18.5878   21.9476 N.ar    1  UNL1       -0.1854
      3 C          -9.7048  -18.4011   22.2200 C.ar    1  UNL1        0.2051
      4 N         -10.4703  -19.0467   21.1032 N.ar    1  UNL1       -0.0582
      5 O          -9.4802  -19.6325   20.1407 O.2     1  UNL1       -0.3279
      6 O          -6.5937  -21.1829   19.6094 O.2     1  UNL1       -0.2649
      7 C          -6.8130  -19.7551   20.0133 C.2     1  UNL1        0.3025
      8 N          -5.7425  -18.7333   19.7679 N.am    1  UNL1       -0.2930
      9 H          -5.8865  -17.7962   20.0330 H       1  UNL1        0.1502
     10 C          -4.4528  -19.1395   19.1187 C.3     1  UNL1        0.1168
     11 C          -3.1459  -18.8205   19.7824 C.ar    1  UNL1        0.0005
     12 C          -2.9805  -19.0396   21.2571 C.ar    1  UNL1        0.0181
     13 C          -1.6737  -18.7207   21.9207 C.ar    1  UNL1        0.0986
     14 N          -0.5323  -18.1826   21.1098 N.ar    1  UNL1       -0.2423
     15 C          -0.6977  -17.9634   19.6352 C.ar    1  UNL1        0.0986
     16 C          -2.0045  -18.2824   18.9715 C.ar    1  UNL1        0.0181
     17 C         -10.2983  -17.6930   23.4017 C.3     1  UNL1        0.2245
     18 S          -9.4022  -17.0550   24.4215 S.O2    1  UNL1        0.0162
     19 O          -9.6432  -18.2055   25.3532 O.2     1  UNL1       -0.1682
     20 O          -9.1611  -15.9044   23.4898 O.2     1  UNL1       -0.1682
     21 C          -8.5061  -16.4169   25.4413 C.ar    1  UNL1        0.1062
     22 C          -7.3353  -15.5903   24.9986 C.ar    1  UNL1        0.0184
     23 C          -6.4393  -14.9523   26.0184 C.ar    1  UNL1        0.0013
     24 C          -6.7141  -15.1409   27.4809 C.ar    1  UNL1        0.0001
     25 C          -7.8848  -15.9675   27.9236 C.ar    1  UNL1        0.0013
     26 C          -8.7808  -16.6055   26.9038 C.ar    1  UNL1        0.0184
@<TRIPOS>BOND
     1     6     7    2
     2     7     8   am
     3     8    10    1
     4    10    11    1
     5    11    12   ar
     6    12    13   ar
     7    13    14   ar
     8    14    15   ar
     9    15    16   ar
    10     7     1    1
    11     1     2   ar
    12     2     3   ar
    13     3    17    1
    14    17    18    1
    15    18    19    2
    16    18    20    2
    17    18    21    1
    18    21    22   ar
    19    22    23   ar
    20    23    24   ar
    21    24    25   ar
    22    25    26   ar
    23     3     4   ar
    24     4     5   ar
    25    16    11   ar
    26     5     1   ar
    27    26    21   ar
    28     8     9    1
@<TRIPOS>MOLECULE
*****
 26 28 0 0 0
SMALL
GASTEIGER

@<TRIPOS>ATOM
      1 C          -7.1709  -15.8734   23.7668 C.ar    1  UNL1        0.3134
      2 N          -6.0751  -16.8187   23.3723 N.ar    1  UNL1       -0.1854
      3 C          -4.7848  -16.2884   23.9233 C.ar    1  UNL1        0.2051
      4 N          -5.0830  -15.0152   24.6584 N.ar    1  UNL1       -0.0582
      5 O          -6.5578  -14.7588   24.5617 O.2     1  UNL1       -0.3279
      6 O          -9.6672  -15.4051   24.3140 O.2     1  UNL1       -0.2649
      7 C          -8.6246  -16.0174   23.4262 C.2     1  UNL1        0.3025
      8 N          -9.0358  -16.7738   22.1978 N.am    1  UNL1       -0.2930
      9 H          -8.3516  -17.1757   21.6151 H       1  UNL1        0.1502
     10 C         -10.4895  -16.9178   21.8573 C.3     1  UNL1        0.1168
     11 C         -11.4340  -17.5344   22.8461 C.ar    1  UNL1        0.0005
     12 C         -10.9252  -18.5218   23.8541 C.ar    1  UNL1        0.0181
     13 C         -11.8696  -19.1383   24.8429 C.ar    1  UNL1        0.0986
     14 N         -13.3230  -18.7676   24.8237 N.ar    1  UNL1       -0.2423
     15 C         -13.8318  -17.7802   23.8156 C.ar    1  UNL1        0.0986
     16 C         -12.8873  -17.1636   22.8269 C.ar    1  UNL1        0.0181
     17 C          -3.4333  -16.9202   23.7668 C.3     1  UNL1        0.2245
     18 S          -2.9007  -17.2224   22.3975 S.O2    1  UNL1        0.0162
     19 O          -2.8826  -15.7563   22.0809 O.2     1  UNL1       -0.1682
     20 O          -2.9188  -18.6885   22.7141 O.2     1  UNL1       -0.1682
     21 C          -2.3681  -17.5247   21.0282 C.ar    1  UNL1        0.1062
     22 C          -3.1972  -18.3131   20.0581 C.ar    1  UNL1        0.0184
     23 C          -2.6645  -18.6154   18.6889 C.ar    1  UNL1        0.0013
     24 C          -1.3027  -18.1293   18.2897 C.ar    1  UNL1        0.0001
     25 C          -0.4737  -17.3409   19.2598 C.ar    1  UNL1        0.0013
     26 C          -1.0064  -17.0386   20.6290 C.ar    1  UNL1        0.0184
@<TRIPOS>BOND
     1     6     7    2
     2     7     8   am
     3     8    10    1
     4    10    11    1
     5    11    12   ar
     6    12    13   ar
     7    13    14   ar
     8    14    15   ar
     9    15    16   ar
    10     7     1    1
    11     1     2   ar
    12     2     3   ar
    13     3    17    1
    14    17    18    1
    15    18    19    2
    16    18    20    2
    17    18    21    1
    18    21    22   ar
    19    22    23   ar
    20    23    24   ar
    21    24    25   ar
    22    25    26   ar
    23     3     4   ar
    24     4     5   ar
    25    16    11   ar
    26     5     1   ar
    27    26    21   ar
    28     8     9    1
@<TRIPOS>MOLECULE
*****
 26 28 0 0 0
SMALL
GASTEIGER

@<TRIPOS>ATOM
      1 C          -6.9870  -16.3159   23.9345 C.ar    1  UNL1        0.3134
      2 N          -5.7826  -17.1114   23.5265 N.ar    1  UNL1       -0.1854
      3 C          -4.5602  -16.3263   23.9001 C.ar    1  UNL1        0.2051
      4 N          -5.0092  -15.0456   24.5390 N.ar    1  UNL1       -0.0582
      5 O          -6.5090  -15.0392   24.5603 O.2     1  UNL1       -0.3279
      6 O          -9.5204  -15.7492   24.0359 O.2     1  UNL1       -0.2649
      7 C          -8.4181  -16.7252   23.7493 C.2     1  UNL1        0.3025
      8 N          -8.7469  -18.1106   23.2775 N.am    1  UNL1       -0.2930
      9 H          -8.0234  -18.7513   23.0894 H       1  UNL1        0.1502
     10 C         -10.1780  -18.5200   23.0923 C.3     1  UNL1        0.1168
     11 C         -11.0491  -17.7825   22.1189 C.ar    1  UNL1        0.0005
     12 C         -12.3771  -17.2429   22.5604 C.ar    1  UNL1        0.0181
     13 C         -13.2481  -16.5055   21.5870 C.ar    1  UNL1        0.0986
     14 N         -12.7910  -16.3077   20.1721 N.ar    1  UNL1       -0.2423
     15 C         -11.4630  -16.8473   19.7306 C.ar    1  UNL1        0.0986
     16 C         -10.5920  -17.5847   20.7040 C.ar    1  UNL1        0.0181
     17 C          -3.1385  -16.7480   23.6743 C.3     1  UNL1        0.2245
     18 S          -2.6695  -17.0951   22.2925 S.O2    1  UNL1        0.0162
     19 O          -2.7801  -15.6537   21.8927 O.2     1  UNL1       -0.1682
     20 O          -2.5589  -18.5367   22.6923 O.2     1  UNL1       -0.1682
     21 C          -2.2005  -17.4425   20.9106 C.ar    1  UNL1        0.1062
     22 C          -0.8333  -17.0258   20.4557 C.ar    1  UNL1        0.0184
     23 C          -0.3644  -17.3732   19.0739 C.ar    1  UNL1        0.0013
     24 C          -1.2628  -18.1372   18.1470 C.ar    1  UNL1        0.0001
     25 C          -2.6301  -18.5539   18.6019 C.ar    1  UNL1        0.0013
     26 C          -3.0989  -18.2065   19.9837 C.ar    1  UNL1        0.0184
@<TRIPOS>BOND
     1     6     7    2
     2     7     8   am
     3     8    10    1
     4    10    11    1
     5    11    12   ar
     6    12    13   ar
     7    13    14   ar
     8    14    15   ar
     9    15    16   ar
    10     7     1    1
    11     1     2   ar
    12     2     3   ar
    13     3    17    1
    14    17    18    1
    15    18    19    2
    16    18    20    2
    17    18    21    1
    18    21    22   ar
    19    22    23   ar
    20    23    24   ar
    21    24    25   ar
    22    25    26   ar
    23     3     4   ar
    24     4     5   ar
    25    16    11   ar
    26     5     1   ar
    27    26    21   ar
    28     8     9    1
@<TRIPOS>MOLECULE
*****
 26 28 0 0 0
SMALL
GASTEIGER

@<TRIPOS>ATOM
      1 C          -6.9329  -15.7895   24.3555 C.ar    1  UNL1        0.3134
      2 N          -7.7828  -16.5315   23.3671 N.ar    1  UNL1       -0.1854
      3 C          -9.2188  -16.3460   23.7591 C.ar    1  UNL1        0.2051
      4 N          -9.2563  -15.4894   24.9899 N.ar    1  UNL1       -0.0582
      5 O          -7.8436  -15.1454   25.3585 O.2     1  UNL1       -0.3279
      6 O          -4.7217  -14.8782   25.3704 O.2     1  UNL1       -0.2649
      7 C          -5.4353  -15.7062   24.3432 C.2     1  UNL1        0.3025
      8 N          -4.6512  -16.4509   23.3036 N.am    1  UNL1       -0.2930
      9 H          -5.1196  -16.9944   22.6294 H       1  UNL1        0.1502
     10 C          -3.1536  -16.3676   23.2912 C.3     1  UNL1        0.1168
     11 C          -2.3710  -17.0889   22.2342 C.ar    1  UNL1        0.0005
     12 C          -1.4452  -16.3254   21.3343 C.ar    1  UNL1        0.0181
     13 C          -0.6627  -17.0467   20.2773 C.ar    1  UNL1        0.0986
     14 N          -0.8059  -18.5315   20.1203 N.ar    1  UNL1       -0.2423
     15 C          -1.7316  -19.2951   21.0202 C.ar    1  UNL1        0.0986
     16 C          -2.5142  -18.5738   22.0772 C.ar    1  UNL1        0.0181
     17 C         -10.4083  -16.9170   23.0456 C.3     1  UNL1        0.2245
     18 S         -10.2130  -17.7882   21.8403 S.O2    1  UNL1        0.0162
     19 O         -10.4280  -19.0076   22.6868 O.2     1  UNL1       -0.1682
     20 O          -9.9980  -16.5687   20.9937 O.2     1  UNL1       -0.1682
     21 C         -10.0177  -18.6593   20.6349 C.ar    1  UNL1        0.1062
     22 C          -8.6710  -19.2556   20.3506 C.ar    1  UNL1        0.0184
     23 C          -8.4758  -20.1266   19.1452 C.ar    1  UNL1        0.0013
     24 C          -9.6273  -20.4015   18.2240 C.ar    1  UNL1        0.0001
     25 C         -10.9740  -19.8052   18.5083 C.ar    1  UNL1        0.0013
     26 C         -11.1692  -18.9342   19.7137 C.ar    1  UNL1        0.0184
@<TRIPOS>BOND
     1     6     7    2
     2     7     8   am
     3     8    10    1
     4    10    11    1
     5    11    12   ar
     6    12    13   ar
     7    13    14   ar
     8    14    15   ar
     9    15    16   ar
    10     7     1    1
    11     1     2   ar
    12     2     3   ar
    13     3    17    1
    14    17    18    1
    15    18    19    2
    16    18    20    2
    17    18    21    1
    18    21    22   ar
    19    22    23   ar
    20    23    24   ar
    21    24    25   ar
    22    25    26   ar
    23     3     4   ar
    24     4     5   ar
    25    16    11   ar
    26     5     1   ar
    27    26    21   ar
    28     8     9    1
@<TRIPOS>MOLECULE
*****
 26 28 0 0 0
SMALL
GASTEIGER

@<TRIPOS>ATOM
      1 C           6.8011   -3.1119   19.6967 C.ar    1  UNL1        0.3134
      2 N           7.0864   -4.2919   20.5775 N.ar    1  UNL1       -0.1854
      3 C           8.5667   -4.3474   20.8131 C.ar    1  UNL1        0.2051
      4 N           9.1964   -3.2016   20.0778 N.ar    1  UNL1       -0.0582
      5 O           8.1051   -2.4380   19.3878 O.2     1  UNL1       -0.3279
      6 O           5.1804   -2.5759   17.7381 O.2     1  UNL1       -0.2649
      7 C           5.4492   -2.6813   19.2101 C.2     1  UNL1        0.3025
      8 N           4.3659   -2.3561   20.1955 N.am    1  UNL1       -0.2930
      9 H           4.5423   -2.4252   21.1615 H       1  UNL1        0.1502
     10 C           3.0140   -1.9255   19.7089 C.3     1  UNL1        0.1168
     11 C           2.2376   -0.8913   20.4690 C.ar    1  UNL1        0.0005
     12 C           2.6819   -0.4783   21.8409 C.ar    1  UNL1        0.0181
     13 C           1.9055    0.5558   22.6010 C.ar    1  UNL1        0.0986
     14 N           0.6848    1.1769   21.9892 N.ar    1  UNL1       -0.2423
     15 C           0.2406    0.7639   20.6174 C.ar    1  UNL1        0.0986
     16 C           1.0169   -0.2702   19.8573 C.ar    1  UNL1        0.0181
     17 C           9.2904   -5.3693   21.6390 C.3     1  UNL1        0.2245
     18 S           8.7374   -5.7866   22.9694 S.O2    1  UNL1        0.0162
     19 O           8.5924   -7.1929   22.4681 O.2     1  UNL1       -0.1682
     20 O           8.8824   -4.3803   23.4708 O.2     1  UNL1       -0.1682
     21 C           8.1844   -6.2038   24.2999 C.ar    1  UNL1        0.1062
     22 C           8.4403   -7.5881   24.8179 C.ar    1  UNL1        0.0184
     23 C           7.8873   -8.0052   26.1483 C.ar    1  UNL1        0.0013
     24 C           7.0783   -7.0380   26.9608 C.ar    1  UNL1        0.0001
     25 C           6.8223   -5.6538   26.4429 C.ar    1  UNL1        0.0013
     26 C           7.3754   -5.2367   25.1124 C.ar    1  UNL1        0.0184
@<TRIPOS>BOND
     1     6     7    2
     2     7     8   am
     3     8    10    1
     4    10    11    1
     5    11    12   ar
     6    12    13   ar
     7    13    14   ar
     8    14    15   ar
     9    15    16   ar
    10     7     1    1
    11     1     2   ar
    12     2     3   ar
    13     3    17    1
    14    17    18    1
    15    18    19    2
    16    18    20    2
    17    18    21    1
    18    21    22   ar
    19    22    23   ar
    20    23    24   ar
    21    24    25   ar
    22    25    26   ar
    23     3     4   ar
    24     4     5   ar
    25    16    11   ar
    26     5     1   ar
    27    26    21   ar
    28     8     9    1
@<TRIPOS>MOLECULE
*****
 26 28 0 0 0
SMALL
GASTEIGER

@<TRIPOS>ATOM
      1 C          -1.1265    2.8403   20.0843 C.ar    1  UNL1        0.3134
      2 N          -0.4762    1.9545   21.1052 N.ar    1  UNL1       -0.1854
      3 C           0.8867    1.5861   20.5985 C.ar    1  UNL1        0.2051
      4 N           1.0788    2.2443   19.2643 N.ar    1  UNL1       -0.0582
      5 O          -0.1655    3.0194   18.9465 O.2     1  UNL1       -0.3279
      6 O          -2.7471    4.8279   19.6686 O.2     1  UNL1       -0.2649
      7 C          -2.4971    3.4415   20.1836 C.2     1  UNL1        0.3025
      8 N          -3.6178    2.6563   20.7981 N.am    1  UNL1       -0.2930
      9 H          -3.4537    1.7463   21.1362 H       1  UNL1        0.1502
     10 C          -4.9884    3.2574   20.8975 C.3     1  UNL1        0.1168
     11 C          -5.5183    3.7006   22.2290 C.ar    1  UNL1        0.0005
     12 C          -6.8286    4.4262   22.3110 C.ar    1  UNL1        0.0181
     13 C          -7.3584    4.8693   23.6424 C.ar    1  UNL1        0.0986
     14 N          -6.5780    4.5869   24.8919 N.ar    1  UNL1       -0.2423
     15 C          -5.2678    3.8613   24.8099 C.ar    1  UNL1        0.0986
     16 C          -4.7379    3.4182   23.4785 C.ar    1  UNL1        0.0181
     17 C           1.8828    0.7129   21.3023 C.3     1  UNL1        0.2245
     18 S           2.7628   -0.2091   20.5115 S.O2    1  UNL1        0.0162
     19 O           3.9266    0.7107   20.7340 O.2     1  UNL1       -0.1682
     20 O           1.5990   -1.1290   20.2889 O.2     1  UNL1       -0.1682
     21 C           3.6428   -1.1312   19.7206 C.ar    1  UNL1        0.1062
     22 C           3.3939   -2.6101   19.7453 C.ar    1  UNL1        0.0184
     23 C           4.2739   -3.5321   18.9544 C.ar    1  UNL1        0.0013
     24 C           5.4028   -2.9751   18.1387 C.ar    1  UNL1        0.0001
     25 C           5.6517   -1.4961   18.1140 C.ar    1  UNL1        0.0013
     26 C           4.7717   -0.5741   18.9049 C.ar    1  UNL1        0.0184
@<TRIPOS>BOND
     1     6     7    2
     2     7     8   am
     3     8    10    1
     4    10    11    1
     5    11    12   ar
     6    12    13   ar
     7    13    14   ar
     8    14    15   ar
     9    15    16   ar
    10     7     1    1
    11     1     2   ar
    12     2     3   ar
    13     3    17    1
    14    17    18    1
    15    18    19    2
    16    18    20    2
    17    18    21    1
    18    21    22   ar
    19    22    23   ar
    20    23    24   ar
    21    24    25   ar
    22    25    26   ar
    23     3     4   ar
    24     4     5   ar
    25    16    11   ar
    26     5     1   ar
    27    26    21   ar
    28     8     9    1
@<TRIPOS>MOLECULE
*****
 26 28 0 0 0
SMALL
GASTEIGER

@<TRIPOS>ATOM
      1 C          -0.4683    2.3225   20.1316 C.ar    1  UNL1        0.3134
      2 N          -1.6984    2.4768   20.9761 N.ar    1  UNL1       -0.1854
      3 C          -2.5914    3.4841   20.3145 C.ar    1  UNL1        0.2051
      4 N          -1.9133    3.9524   19.0612 N.ar    1  UNL1       -0.0582
      5 O          -0.6012    3.2345   18.9482 O.2     1  UNL1       -0.3279
      6 O           1.9409    1.9690   21.0375 O.2     1  UNL1       -0.2649
      7 C           0.6910    1.4154   20.4200 C.2     1  UNL1        0.3025
      8 N           0.6004   -0.0453   20.0910 N.am    1  UNL1       -0.2930
      9 H          -0.2199   -0.4086   19.6857 H       1  UNL1        0.1502
     10 C           1.7597   -0.9523   20.3794 C.3     1  UNL1        0.1168
     11 C           2.8138   -1.1771   19.3360 C.ar    1  UNL1        0.0005
     12 C           3.7055   -2.3805   19.4179 C.ar    1  UNL1        0.0181
     13 C           4.7595   -2.6053   18.3746 C.ar    1  UNL1        0.0986
     14 N           4.9218   -1.6267   17.2494 N.ar    1  UNL1       -0.2423
     15 C           4.0301   -0.4234   17.1675 C.ar    1  UNL1        0.0986
     16 C           2.9761   -0.1986   18.2108 C.ar    1  UNL1        0.0181
     17 C          -3.9280    3.9427   20.8179 C.3     1  UNL1        0.2245
     18 S          -4.1539    4.1217   22.2899 S.O2    1  UNL1        0.0162
     19 O          -4.9359    2.8423   22.3256 O.2     1  UNL1       -0.1682
     20 O          -3.3718    5.4013   22.2543 O.2     1  UNL1       -0.1682
     21 C          -4.3798    4.3009   23.7620 C.ar    1  UNL1        0.1062
     22 C          -3.4453    3.6637   24.7472 C.ar    1  UNL1        0.0184
     23 C          -3.6713    3.8429   26.2192 C.ar    1  UNL1        0.0013
     24 C          -4.8317    4.6594   26.7060 C.ar    1  UNL1        0.0001
     25 C          -5.7661    5.2967   25.7207 C.ar    1  UNL1        0.0013
     26 C          -5.5401    5.1174   24.2487 C.ar    1  UNL1        0.0184
@<TRIPOS>BOND
     1     6     7    2
     2     7     8   am
     3     8    10    1
     4    10    11    1
     5    11    12   ar
     6    12    13   ar
     7    13    14   ar
     8    14    15   ar
     9    15    16   ar
    10     7     1    1
    11     1     2   ar
    12     2     3   ar
    13     3    17    1
    14    17    18    1
    15    18    19    2
    16    18    20    2
    17    18    21    1
    18    21    22   ar
    19    22    23   ar
    20    23    24   ar
    21    24    25   ar
    22    25    26   ar
    23     3     4   ar
    24     4     5   ar
    25    16    11   ar
    26     5     1   ar
    27    26    21   ar
    28     8     9    1
