@<TRIPOS>MOLECULE
*****
 41 47 0 0 0
SMALL
GASTEIGER

@<TRIPOS>ATOM
      1 C           7.0510   -3.3247   20.8734 C.3     1  UNL1        0.0955
      2 C           7.5365   -2.2926   19.8992 C.3     1  UNL1        0.0287
      3 C           6.6582   -1.8632   18.7616 C.3     1  UNL1        0.0193
      4 C           5.2944   -2.4659   18.5982 C.3     1  UNL1        0.0700
      5 C           4.8089   -3.4980   19.5724 C.3     1  UNL1        0.0193
      6 C           5.6872   -3.9274   20.7100 C.3     1  UNL1        0.0287
      7 C           5.7397   -2.7329   19.2372 C.3     1  UNL1        0.1562
      8 O           6.5339   -3.1212   20.2659 O.3     1  UNL1       -0.3571
      9 N           4.4160   -2.0366   17.4607 N.3     1  UNL1       -0.2926
     10 H           3.5785   -2.6174   17.4999 H       1  UNL1        0.1236
     11 C           3.9518   -0.6133   17.3673 C.3     1  UNL1        0.1152
     12 C           2.8410   -0.1271   18.2503 C.ar    1  UNL1        0.0765
     13 C           2.3726   -0.9700   19.3991 C.ar    1  UNL1        0.0193
     14 C           1.2618   -0.4838   20.2821 C.ar    1  UNL1        0.0411
     15 C           0.6194    0.8452   20.0163 C.ar    1  UNL1        0.1708
     16 C           1.0878    1.6883   18.8674 C.ar    1  UNL1        0.1682
     17 N           2.1986    1.2021   17.9844 N.ar    1  UNL1       -0.2304
     18 N           0.4454    3.0174   18.6015 N.am    1  UNL1       -0.2639
     19 C          -0.6654    3.5036   19.4845 C.2     1  UNL1        0.2718
     20 O          -1.3079    4.8327   19.2187 O.2     1  UNL1       -0.2707
     21 C          -1.1339    2.6606   20.6334 C.3     1  UNL1        0.2898
     22 O          -0.4915    1.3314   20.8993 O.3     1  UNL1       -0.4628
     23 H           0.7529    3.5706   17.8474 H       1  UNL1        0.1565
     24 C           7.9294   -3.7540   22.0110 C.3     1  UNL1        0.0604
     25 C           8.1483   -8.5206   27.3954 C.3     1  UNL1        0.0328
     26 C           7.7930   -7.1798   26.8245 C.ar    1  UNL1        0.0019
     27 C           7.1172   -6.1535   27.6848 C.ar    1  UNL1        0.0580
     28 C           6.7619   -4.8127   27.1139 C.ar    1  UNL1        0.2608
     29 O           6.0861   -3.7864   27.9742 O.2     1  UNL1       -0.2670
     30 N           7.0258   -4.3682   25.6986 N.ar    1  UNL1       -0.2915
     31 C           7.7000   -5.4888   24.9638 C.ar    1  UNL1        0.0803
     32 C           7.9564   -5.0331   23.5579 C.ar    1  UNL1        0.0500
     33 C           8.6264   -5.9538   22.5815 C.ar    1  UNL1        0.1588
     34 F           8.8828   -5.4981   21.1756 F       1  UNL1       -0.2027
     35 C           9.0399   -7.3302   23.0110 C.ar    1  UNL1        0.1282
     36 N           8.7834   -7.7859   24.4169 N.ar    1  UNL1       -0.2404
     37 C           8.1135   -6.8652   25.3933 C.ar    1  UNL1        0.0932
     38 C           7.4407   -3.6309   23.4238 C.3     1  UNL1        0.1335
     39 O           7.0272   -2.2544   22.9944 O.3     1  UNL1       -0.3806
     40 C           6.8656   -3.2200   24.7468 C.3     1  UNL1        0.1402
     41 H           7.2642   -2.1214   22.0632 H       1  UNL1        0.2108
@<TRIPOS>BOND
     1    25    26    1
     2    26    27   ar
     3    27    28   ar
     4    28    29    2
     5    28    30   ar
     6    30    31   ar
     7    31    32   ar
     8    32    33   ar
     9    33    34    1
    10    33    35   ar
    11    35    36   ar
    12    36    37   ar
    13    32    38    1
    14    38    39    1
    15    38    24    1
    16    24     1    1
    17     1     2    1
    18     2     3    1
    19     3     4    1
    20     4     9    1
    21     9    11    1
    22    11    12    1
    23    12    13   ar
    24    13    14   ar
    25    14    15   ar
    26    15    16   ar
    27    16    17   ar
    28    16    18    1
    29    18    19   am
    30    19    20    2
    31    19    21    1
    32    21    22    1
    33     4     5    1
    34     5     6    1
    35     4     7    1
    36     7     8    1
    37    38    40    1
    38    37    26   ar
    39     6     1    1
    40    40    30    1
    41    37    31   ar
    42     8     1    1
    43    17    12   ar
    44    22    15    1
    45    39    41    1
    46     9    10    1
    47    18    23    1
@<TRIPOS>MOLECULE
*****
 41 47 0 0 0
SMALL
GASTEIGER

@<TRIPOS>ATOM
      1 C           6.9766   -3.4175   20.5976 C.3     1  UNL1        0.0955
      2 C           5.5805   -3.9290   20.3991 C.3     1  UNL1        0.0287
      3 C           4.7537   -3.4270   19.2526 C.3     1  UNL1        0.0193
      4 C           5.3231   -2.4135   18.3046 C.3     1  UNL1        0.0700
      5 C           6.7192   -1.9020   18.5032 C.3     1  UNL1        0.0193
      6 C           7.5459   -2.4040   19.6497 C.3     1  UNL1        0.0287
      7 C           5.8142   -2.6589   18.9182 C.3     1  UNL1        0.1562
      8 O           6.5618   -3.1128   19.9550 O.3     1  UNL1       -0.3571
      9 N           4.4964   -1.9115   17.1581 N.3     1  UNL1       -0.2926
     10 H           3.7217   -2.5652   17.0453 H       1  UNL1        0.1236
     11 C           3.8988   -0.5366   17.2098 C.3     1  UNL1        0.1152
     12 C           3.0689   -0.1232   18.3889 C.ar    1  UNL1        0.0765
     13 C           1.6007    0.1333   18.2196 C.ar    1  UNL1        0.0193
     14 C           0.7707    0.5466   19.3987 C.ar    1  UNL1        0.0411
     15 C           1.4089    0.7034   20.7470 C.ar    1  UNL1        0.1708
     16 C           2.8771    0.4470   20.9164 C.ar    1  UNL1        0.1682
     17 N           3.7071    0.0336   19.7373 N.ar    1  UNL1       -0.2304
     18 N           3.5152    0.6038   22.2647 N.am    1  UNL1       -0.2639
     19 C           2.6853    1.0171   23.4438 C.2     1  UNL1        0.2718
     20 O           3.3234    1.1740   24.7922 O.2     1  UNL1       -0.2707
     21 C           1.2170    1.2737   23.2745 C.3     1  UNL1        0.2898
     22 O           0.5788    1.1168   21.9261 O.3     1  UNL1       -0.4628
     23 H           4.4789    0.4354   22.3758 H       1  UNL1        0.1565
     24 C           7.8033   -3.9195   21.7442 C.3     1  UNL1        0.0604
     25 C           8.2381   -8.3229   27.4170 C.3     1  UNL1        0.0328
     26 C           7.8350   -7.0323   26.7675 C.ar    1  UNL1        0.0019
     27 C           7.1405   -5.9732   27.5711 C.ar    1  UNL1        0.0580
     28 C           6.7374   -4.6826   26.9216 C.ar    1  UNL1        0.2608
     29 O           6.0429   -3.6233   27.7252 O.2     1  UNL1       -0.2670
     30 N           6.9686   -4.3222   25.4769 N.ar    1  UNL1       -0.2915
     31 C           7.6660   -5.4675   24.8046 C.ar    1  UNL1        0.0803
     32 C           7.8896   -5.0955   23.3687 C.ar    1  UNL1        0.0500
     33 C           8.5735   -6.0570   22.4427 C.ar    1  UNL1        0.1588
     34 F           8.7971   -5.6851   21.0068 F       1  UNL1       -0.2027
     35 C           9.0339   -7.3905   22.9524 C.ar    1  UNL1        0.1282
     36 N           8.8103   -7.7624   24.3883 N.ar    1  UNL1       -0.2404
     37 C           8.1264   -6.8009   25.3144 C.ar    1  UNL1        0.0932
     38 C           7.3304   -3.7204   23.1537 C.3     1  UNL1        0.1335
     39 O           6.8700   -2.3868   22.6439 O.3     1  UNL1       -0.3806
     40 C           6.7611   -3.2424   24.4566 C.3     1  UNL1        0.1402
     41 H           7.0902   -2.3069   21.7027 H       1  UNL1        0.2108
@<TRIPOS>BOND
     1    25    26    1
     2    26    27   ar
     3    27    28   ar
     4    28    29    2
     5    28    30   ar
     6    30    31   ar
     7    31    32   ar
     8    32    33   ar
     9    33    34    1
    10    33    35   ar
    11    35    36   ar
    12    36    37   ar
    13    32    38    1
    14    38    39    1
    15    38    24    1
    16    24     1    1
    17     1     2    1
    18     2     3    1
    19     3     4    1
    20     4     9    1
    21     9    11    1
    22    11    12    1
    23    12    13   ar
    24    13    14   ar
    25    14    15   ar
    26    15    16   ar
    27    16    17   ar
    28    16    18    1
    29    18    19   am
    30    19    20    2
    31    19    21    1
    32    21    22    1
    33     4     5    1
    34     5     6    1
    35     4     7    1
    36     7     8    1
    37    38    40    1
    38    37    26   ar
    39     6     1    1
    40    40    30    1
    41    37    31   ar
    42     8     1    1
    43    17    12   ar
    44    22    15    1
    45    39    41    1
    46     9    10    1
    47    18    23    1
@<TRIPOS>MOLECULE
*****
 41 47 0 0 0
SMALL
GASTEIGER

@<TRIPOS>ATOM
      1 C           7.4701   -3.4900   25.4734 C.3     1  UNL1        0.0955
      2 C           6.6605   -4.7029   25.8248 C.3     1  UNL1        0.0287
      3 C           7.2131   -5.7243   26.7741 C.3     1  UNL1        0.0193
      4 C           8.5754   -5.5330   27.3719 C.3     1  UNL1        0.0700
      5 C           9.3851   -4.3202   27.0205 C.3     1  UNL1        0.0193
      6 C           8.8324   -3.2987   26.0712 C.3     1  UNL1        0.0287
      7 C           8.3148   -4.9461   26.8566 C.3     1  UNL1        0.1562
      8 O           7.8151   -4.0224   25.9982 O.3     1  UNL1       -0.3571
      9 N           9.1281   -6.5544   28.3212 N.3     1  UNL1       -0.2926
     10 H          10.1290   -6.3738   28.3980 H       1  UNL1        0.1236
     11 C           8.5955   -6.6434   29.7206 C.3     1  UNL1        0.1152
     12 C           8.3791   -5.3939   30.5218 C.ar    1  UNL1        0.0765
     13 C           9.5261   -4.4638   30.7849 C.ar    1  UNL1        0.0193
     14 C           9.3098   -3.2143   31.5861 C.ar    1  UNL1        0.0411
     15 C           7.9465   -2.8949   32.1241 C.ar    1  UNL1        0.1708
     16 C           6.7995   -3.8250   31.8610 C.ar    1  UNL1        0.1682
     17 N           7.0158   -5.0745   31.0598 N.ar    1  UNL1       -0.2304
     18 N           5.4363   -3.5057   32.3989 N.am    1  UNL1       -0.2639
     19 C           5.2199   -2.2562   33.2001 C.2     1  UNL1        0.2718
     20 O           3.8567   -1.9367   33.7382 O.2     1  UNL1       -0.2707
     21 C           6.3669   -1.3259   33.4633 C.3     1  UNL1        0.2898
     22 O           7.7302   -1.6453   32.9253 O.3     1  UNL1       -0.4628
     23 H           4.6835   -4.1162   32.2262 H       1  UNL1        0.1565
     24 C           6.9174   -2.4685   24.5240 C.3     1  UNL1        0.0604
     25 C           1.3885   -0.7935   20.2362 C.3     1  UNL1        0.0328
     26 C           2.7051   -1.4607   20.5035 C.ar    1  UNL1        0.0019
     27 C           3.3847   -2.2408   19.4174 C.ar    1  UNL1        0.0580
     28 C           4.7013   -2.9080   19.6847 C.ar    1  UNL1        0.2608
     29 O           5.3810   -3.6881   18.5986 O.2     1  UNL1       -0.2670
     30 N           5.4478   -2.8745   20.9931 N.ar    1  UNL1       -0.2915
     31 C           4.6540   -2.0652   21.9754 C.ar    1  UNL1        0.0803
     32 C           5.4080   -2.0402   23.2719 C.ar    1  UNL1        0.0500
     33 C           4.8500   -1.2979   24.4498 C.ar    1  UNL1        0.1588
     34 F           5.6040   -1.2729   25.7463 F       1  UNL1       -0.2027
     35 C           3.5381   -0.5804   24.3313 C.ar    1  UNL1        0.1282
     36 N           2.7841   -0.6054   23.0348 N.ar    1  UNL1       -0.2404
     37 C           3.3421   -1.3478   21.8568 C.ar    1  UNL1        0.0932
     38 C           6.6678   -2.8341   23.0909 C.3     1  UNL1        0.1335
     39 O           7.9798   -3.5516   23.2094 O.3     1  UNL1       -0.3806
     40 C           6.6924   -3.3497   21.6825 C.3     1  UNL1        0.1402
     41 H           8.3316   -3.4361   24.1060 H       1  UNL1        0.2108
@<TRIPOS>BOND
     1    25    26    1
     2    26    27   ar
     3    27    28   ar
     4    28    29    2
     5    28    30   ar
     6    30    31   ar
     7    31    32   ar
     8    32    33   ar
     9    33    34    1
    10    33    35   ar
    11    35    36   ar
    12    36    37   ar
    13    32    38    1
    14    38    39    1
    15    38    24    1
    16    24     1    1
    17     1     2    1
    18     2     3    1
    19     3     4    1
    20     4     9    1
    21     9    11    1
    22    11    12    1
    23    12    13   ar
    24    13    14   ar
    25    14    15   ar
    26    15    16   ar
    27    16    17   ar
    28    16    18    1
    29    18    19   am
    30    19    20    2
    31    19    21    1
    32    21    22    1
    33     4     5    1
    34     5     6    1
    35     4     7    1
    36     7     8    1
    37    38    40    1
    38    37    26   ar
    39     6     1    1
    40    40    30    1
    41    37    31   ar
    42     8     1    1
    43    17    12   ar
    44    22    15    1
    45    39    41    1
    46     9    10    1
    47    18    23    1
@<TRIPOS>MOLECULE
*****
 41 47 0 0 0
SMALL
GASTEIGER

@<TRIPOS>ATOM
      1 C           5.9953   -2.6628   21.5818 C.3     1  UNL1        0.0955
      2 C           4.5651   -3.0299   21.3173 C.3     1  UNL1        0.0287
      3 C           4.0020   -2.9032   19.9328 C.3     1  UNL1        0.0193
      4 C           4.8690   -2.4095   18.8128 C.3     1  UNL1        0.0700
      5 C           6.2992   -2.0424   19.0773 C.3     1  UNL1        0.0193
      6 C           6.8623   -2.1691   20.4618 C.3     1  UNL1        0.0287
      7 C           5.2221   -2.4622   19.5547 C.3     1  UNL1        0.1562
      8 O           5.7314   -2.5767   20.8067 O.3     1  UNL1       -0.3571
      9 N           4.3060   -2.2828   17.4283 N.3     1  UNL1       -0.2926
     10 H           3.4441   -2.8280   17.4100 H       1  UNL1        0.1236
     11 C           3.9737   -0.9288   16.8748 C.3     1  UNL1        0.1152
     12 C           3.5270    0.1686   17.7945 C.ar    1  UNL1        0.0765
     13 C           4.5055    1.2104   18.2498 C.ar    1  UNL1        0.0193
     14 C           4.0588    2.3078   19.1696 C.ar    1  UNL1        0.0411
     15 C           2.6337    2.3636   19.6340 C.ar    1  UNL1        0.1708
     16 C           1.6551    1.3218   19.1788 C.ar    1  UNL1        0.1682
     17 N           2.1018    0.2244   18.2590 N.ar    1  UNL1       -0.2304
     18 N           0.2300    1.3776   19.6432 N.am    1  UNL1       -0.2639
     19 C          -0.2167    2.4750   20.5630 C.2     1  UNL1        0.2718
     20 O          -1.6419    2.5309   21.0275 O.2     1  UNL1       -0.2707
     21 C           0.7618    3.5169   21.0183 C.3     1  UNL1        0.2898
     22 O           2.1870    3.4611   20.5539 O.3     1  UNL1       -0.4628
     23 H          -0.4122    0.6938   19.3443 H       1  UNL1        0.1565
     24 C           6.5584   -2.7895   22.9664 C.3     1  UNL1        0.0604
     25 C           6.7856   -5.4756   29.6367 C.3     1  UNL1        0.0328
     26 C           7.0333   -5.5685   28.1602 C.ar    1  UNL1        0.0019
     27 C           7.6511   -6.8059   27.5798 C.ar    1  UNL1        0.0580
     28 C           7.8988   -6.8988   26.1033 C.ar    1  UNL1        0.2608
     29 O           8.5167   -8.1363   25.5228 O.2     1  UNL1       -0.2670
     30 N           7.5761   -5.8272   25.0944 N.ar    1  UNL1       -0.2915
     31 C           6.9690   -4.6600   25.8148 C.ar    1  UNL1        0.0803
     32 C           6.6530   -3.6020   24.7995 C.ar    1  UNL1        0.0500
     33 C           6.0311   -2.3079   25.2335 C.ar    1  UNL1        0.1588
     34 F           5.7152   -1.2499   24.2182 F       1  UNL1       -0.2027
     35 C           5.7252   -2.0718   26.6828 C.ar    1  UNL1        0.1282
     36 N           6.0411   -3.1298   27.6981 N.ar    1  UNL1       -0.2404
     37 C           6.6630   -4.4239   27.2641 C.ar    1  UNL1        0.0932
     38 C           7.0649   -4.1154   23.4516 C.3     1  UNL1        0.1335
     39 O           7.3709   -4.3516   22.0022 O.3     1  UNL1       -0.3806
     40 C           7.6354   -5.4907   23.6338 C.3     1  UNL1        0.1402
     41 H           7.1067   -3.5746   21.4852 H       1  UNL1        0.2108
@<TRIPOS>BOND
     1    25    26    1
     2    26    27   ar
     3    27    28   ar
     4    28    29    2
     5    28    30   ar
     6    30    31   ar
     7    31    32   ar
     8    32    33   ar
     9    33    34    1
    10    33    35   ar
    11    35    36   ar
    12    36    37   ar
    13    32    38    1
    14    38    39    1
    15    38    24    1
    16    24     1    1
    17     1     2    1
    18     2     3    1
    19     3     4    1
    20     4     9    1
    21     9    11    1
    22    11    12    1
    23    12    13   ar
    24    13    14   ar
    25    14    15   ar
    26    15    16   ar
    27    16    17   ar
    28    16    18    1
    29    18    19   am
    30    19    20    2
    31    19    21    1
    32    21    22    1
    33     4     5    1
    34     5     6    1
    35     4     7    1
    36     7     8    1
    37    38    40    1
    38    37    26   ar
    39     6     1    1
    40    40    30    1
    41    37    31   ar
    42     8     1    1
    43    17    12   ar
    44    22    15    1
    45    39    41    1
    46     9    10    1
    47    18    23    1
@<TRIPOS>MOLECULE
*****
 41 47 0 0 0
SMALL
GASTEIGER

@<TRIPOS>ATOM
      1 C           7.0271   -3.6086   22.0884 C.3     1  UNL1        0.0955
      2 C           7.5222   -3.3153   20.7031 C.3     1  UNL1        0.0287
      3 C           6.5436   -3.0667   19.5938 C.3     1  UNL1        0.0193
      4 C           5.0699   -3.1114   19.8698 C.3     1  UNL1        0.0700
      5 C           4.5748   -3.4047   21.2550 C.3     1  UNL1        0.0193
      6 C           5.5534   -3.6533   22.3643 C.3     1  UNL1        0.0287
      7 C           5.5678   -3.2542   20.5098 C.3     1  UNL1        0.1562
      8 O           6.4527   -3.4790   21.5129 O.3     1  UNL1       -0.3571
      9 N           4.0913   -2.8629   18.7606 N.3     1  UNL1       -0.2926
     10 H           3.1947   -3.2387   19.0693 H       1  UNL1        0.1236
     11 C           3.8341   -1.4630   18.2869 C.3     1  UNL1        0.1152
     12 C           2.7043   -0.6687   18.8723 C.ar    1  UNL1        0.0765
     13 C           1.9938   -1.1653   20.0965 C.ar    1  UNL1        0.0193
     14 C           0.8640   -0.3710   20.6818 C.ar    1  UNL1        0.0411
     15 C           0.4448    0.9198   20.0431 C.ar    1  UNL1        0.1708
     16 C           1.1553    1.4164   18.8189 C.ar    1  UNL1        0.1682
     17 N           2.2851    0.6221   18.2335 N.ar    1  UNL1       -0.2304
     18 N           0.7361    2.7071   18.1801 N.am    1  UNL1       -0.2639
     19 C          -0.3937    3.5014   18.7655 C.2     1  UNL1        0.2718
     20 O          -0.8131    4.7922   18.1268 O.2     1  UNL1       -0.2707
     21 C          -1.1043    3.0049   19.9897 C.3     1  UNL1        0.2898
     22 O          -0.6851    1.7141   20.6285 O.3     1  UNL1       -0.4628
     23 H           1.2024    3.0330   17.3767 H       1  UNL1        0.1565
     24 C           8.0058   -3.8572   23.1977 C.3     1  UNL1        0.0604
     25 C           8.3560   -5.0640   30.2815 C.3     1  UNL1        0.0328
     26 C           8.2402   -5.5305   28.8606 C.ar    1  UNL1        0.0019
     27 C           8.1278   -6.9956   28.5591 C.ar    1  UNL1        0.0580
     28 C           8.0119   -7.4621   27.1382 C.ar    1  UNL1        0.2608
     29 O           7.8995   -8.9272   26.8366 O.2     1  UNL1       -0.2670
     30 N           7.9960   -6.5696   25.9243 N.ar    1  UNL1       -0.2915
     31 C           8.1151   -5.1446   26.3775 C.ar    1  UNL1        0.0803
     32 C           8.0979   -4.2682   25.1604 C.ar    1  UNL1        0.0500
     33 C           8.2026   -2.7790   25.3069 C.ar    1  UNL1        0.1588
     34 F           8.1854   -1.9026   24.0897 F       1  UNL1       -0.2027
     35 C           8.3243   -2.1664   26.6706 C.ar    1  UNL1        0.1282
     36 N           8.3415   -3.0429   27.8878 N.ar    1  UNL1       -0.2404
     37 C           8.2368   -4.5320   27.7413 C.ar    1  UNL1        0.0932
     38 C           7.9683   -5.1514   23.9549 C.3     1  UNL1        0.1335
     39 O           7.8465   -5.7642   22.5912 O.3     1  UNL1       -0.3806
     40 C           7.9053   -6.5738   24.4271 C.3     1  UNL1        0.1402
     41 H           7.8511   -5.0636   21.9203 H       1  UNL1        0.2108
@<TRIPOS>BOND
     1    25    26    1
     2    26    27   ar
     3    27    28   ar
     4    28    29    2
     5    28    30   ar
     6    30    31   ar
     7    31    32   ar
     8    32    33   ar
     9    33    34    1
    10    33    35   ar
    11    35    36   ar
    12    36    37   ar
    13    32    38    1
    14    38    39    1
    15    38    24    1
    16    24     1    1
    17     1     2    1
    18     2     3    1
    19     3     4    1
    20     4     9    1
    21     9    11    1
    22    11    12    1
    23    12    13   ar
    24    13    14   ar
    25    14    15   ar
    26    15    16   ar
    27    16    17   ar
    28    16    18    1
    29    18    19   am
    30    19    20    2
    31    19    21    1
    32    21    22    1
    33     4     5    1
    34     5     6    1
    35     4     7    1
    36     7     8    1
    37    38    40    1
    38    37    26   ar
    39     6     1    1
    40    40    30    1
    41    37    31   ar
    42     8     1    1
    43    17    12   ar
    44    22    15    1
    45    39    41    1
    46     9    10    1
    47    18    23    1
@<TRIPOS>MOLECULE
*****
 41 47 0 0 0
SMALL
GASTEIGER

@<TRIPOS>ATOM
      1 C           6.4761   -3.6137   22.3912 C.3     1  UNL1        0.0955
      2 C           7.2173   -3.1686   21.1654 C.3     1  UNL1        0.0287
      3 C           6.4684   -2.8902   19.8959 C.3     1  UNL1        0.0193
      4 C           4.9784   -3.0568   19.8521 C.3     1  UNL1        0.0700
      5 C           4.2372   -3.5019   21.0779 C.3     1  UNL1        0.0193
      6 C           4.9860   -3.7803   22.3475 C.3     1  UNL1        0.0287
      7 C           5.3453   -3.2213   20.5706 C.3     1  UNL1        0.1562
      8 O           6.0225   -3.4730   21.7186 O.3     1  UNL1       -0.3571
      9 N           4.2295   -2.7785   18.5827 N.3     1  UNL1       -0.2926
     10 H           3.3217   -3.2351   18.6702 H       1  UNL1        0.1236
     11 C           3.9636   -1.3629   18.1638 C.3     1  UNL1        0.1152
     12 C           2.8125   -0.6080   18.7596 C.ar    1  UNL1        0.0765
     13 C           2.0371   -1.1996   19.8993 C.ar    1  UNL1        0.0193
     14 C           0.8860   -0.4447   20.4952 C.ar    1  UNL1        0.0411
     15 C           0.5103    0.9018   19.9514 C.ar    1  UNL1        0.1708
     16 C           1.2856    1.4935   18.8117 C.ar    1  UNL1        0.1682
     17 N           2.4367    0.7386   18.2159 N.ar    1  UNL1       -0.2304
     18 N           0.9099    2.8399   18.2680 N.am    1  UNL1       -0.2639
     19 C          -0.2412    3.5948   18.8638 C.2     1  UNL1        0.2718
     20 O          -0.6171    4.9414   18.3201 O.2     1  UNL1       -0.2707
     21 C          -1.0166    3.0032   20.0036 C.3     1  UNL1        0.2898
     22 O          -0.6409    1.6567   20.5473 O.3     1  UNL1       -0.4628
     23 H           1.4188    3.2282   17.5200 H       1  UNL1        0.1565
     24 C           7.2250   -3.8921   23.6607 C.3     1  UNL1        0.0604
     25 C           7.0019   -5.7467   30.6084 C.3     1  UNL1        0.0328
     26 C           6.9152   -4.7384   29.5013 C.ar    1  UNL1        0.0019
     27 C           6.6435   -3.2977   29.8185 C.ar    1  UNL1        0.0580
     28 C           6.5569   -2.2894   28.7113 C.ar    1  UNL1        0.2608
     29 O           6.2852   -0.8487   29.0285 O.2     1  UNL1       -0.2670
     30 N           6.7223   -2.5874   27.2436 N.ar    1  UNL1       -0.2915
     31 C           6.9866   -4.0549   27.0809 C.ar    1  UNL1        0.0803
     32 C           7.1490   -4.3371   25.6167 C.ar    1  UNL1        0.0500
     33 C           7.4251   -5.7351   25.1484 C.ar    1  UNL1        0.1588
     34 F           7.5876   -6.0173   23.6842 F       1  UNL1       -0.2027
     35 C           7.5389   -6.8509   26.1444 C.ar    1  UNL1        0.1282
     36 N           7.3765   -6.5687   27.6086 N.ar    1  UNL1       -0.2404
     37 C           7.1003   -5.1707   28.0769 C.ar    1  UNL1        0.0932
     38 C           6.9851   -3.0440   24.8745 C.3     1  UNL1        0.1335
     39 O           6.8713   -1.9281   23.8785 O.3     1  UNL1       -0.3806
     40 C           6.7214   -1.9625   25.8799 C.3     1  UNL1        0.1402
     41 H           7.0012   -2.2789   22.9835 H       1  UNL1        0.2108
@<TRIPOS>BOND
     1    25    26    1
     2    26    27   ar
     3    27    28   ar
     4    28    29    2
     5    28    30   ar
     6    30    31   ar
     7    31    32   ar
     8    32    33   ar
     9    33    34    1
    10    33    35   ar
    11    35    36   ar
    12    36    37   ar
    13    32    38    1
    14    38    39    1
    15    38    24    1
    16    24     1    1
    17     1     2    1
    18     2     3    1
    19     3     4    1
    20     4     9    1
    21     9    11    1
    22    11    12    1
    23    12    13   ar
    24    13    14   ar
    25    14    15   ar
    26    15    16   ar
    27    16    17   ar
    28    16    18    1
    29    18    19   am
    30    19    20    2
    31    19    21    1
    32    21    22    1
    33     4     5    1
    34     5     6    1
    35     4     7    1
    36     7     8    1
    37    38    40    1
    38    37    26   ar
    39     6     1    1
    40    40    30    1
    41    37    31   ar
    42     8     1    1
    43    17    12   ar
    44    22    15    1
    45    39    41    1
    46     9    10    1
    47    18    23    1
@<TRIPOS>MOLECULE
*****
 41 47 0 0 0
SMALL
GASTEIGER

@<TRIPOS>ATOM
      1 C           1.3289    2.6922   18.6189 C.3     1  UNL1        0.0955
      2 C           2.7791    3.0752   18.6015 C.3     1  UNL1        0.0287
      3 C           3.8298    2.0250   18.3940 C.3     1  UNL1        0.0193
      4 C           3.4303    0.5918   18.2037 C.3     1  UNL1        0.0700
      5 C           1.9801    0.2087   18.2211 C.3     1  UNL1        0.0193
      6 C           0.9294    1.2589   18.4286 C.3     1  UNL1        0.0287
      7 C           2.8187    1.1319   18.3141 C.3     1  UNL1        0.1562
      8 O           1.8686    2.0815   18.5018 O.3     1  UNL1       -0.3571
      9 N           4.4809   -0.4585   17.9962 N.3     1  UNL1       -0.2926
     10 H           5.3304   -0.1182   18.4466 H       1  UNL1        0.1236
     11 C           4.2550   -1.8545   18.4963 C.3     1  UNL1        0.1152
     12 C           4.5382   -2.1927   19.9300 C.ar    1  UNL1        0.0765
     13 C           3.6224   -1.7011   21.0115 C.ar    1  UNL1        0.0193
     14 C           3.9056   -2.0393   22.4451 C.ar    1  UNL1        0.0411
     15 C           5.1045   -2.8690   22.7973 C.ar    1  UNL1        0.1708
     16 C           6.0204   -3.3606   21.7158 C.ar    1  UNL1        0.1682
     17 N           5.7372   -3.0224   20.2821 N.ar    1  UNL1       -0.2304
     18 N           7.2193   -4.1902   22.0679 N.am    1  UNL1       -0.2639
     19 C           7.5025   -4.5284   23.5016 C.2     1  UNL1        0.2718
     20 O           8.7015   -5.3581   23.8538 O.2     1  UNL1       -0.2707
     21 C           6.5867   -4.0368   24.5832 C.3     1  UNL1        0.2898
     22 O           5.3877   -3.2071   24.2310 O.3     1  UNL1       -0.4628
     23 H           7.8204   -4.5128   21.3581 H       1  UNL1        0.1565
     24 C           0.2782    3.7425   18.8265 C.3     1  UNL1        0.0604
     25 C          -6.9161    3.7831   18.8157 C.3     1  UNL1        0.0328
     26 C          -5.5912    3.7002   19.5141 C.ar    1  UNL1        0.0019
     27 C          -5.5377    3.5386   21.0044 C.ar    1  UNL1        0.0580
     28 C          -4.2127    3.4558   21.7027 C.ar    1  UNL1        0.2608
     29 O          -4.1592    3.2942   23.1930 O.2     1  UNL1       -0.2670
     30 N          -2.8656    3.5211   21.0308 N.ar    1  UNL1       -0.2915
     31 C          -3.0755    3.6821   19.5543 C.ar    1  UNL1        0.0803
     32 C          -1.7279    3.7457   18.8988 C.ar    1  UNL1        0.0500
     33 C          -1.6244    3.9061   17.4110 C.ar    1  UNL1        0.1588
     34 F          -0.2767    3.9697   16.7555 F       1  UNL1       -0.2027
     35 C          -2.8685    4.0030   16.5788 C.ar    1  UNL1        0.1282
     36 N          -4.2162    3.9395   17.2343 N.ar    1  UNL1       -0.2404
     37 C          -4.3197    3.7790   18.7221 C.ar    1  UNL1        0.0932
     38 C          -0.6851    3.6240   19.9701 C.3     1  UNL1        0.1335
     39 O           0.5591    3.5271   20.8024 O.3     1  UNL1       -0.3806
     40 C          -1.3883    3.4852   21.2878 C.3     1  UNL1        0.1402
     41 H           1.3381    3.5850   20.2274 H       1  UNL1        0.2108
@<TRIPOS>BOND
     1    25    26    1
     2    26    27   ar
     3    27    28   ar
     4    28    29    2
     5    28    30   ar
     6    30    31   ar
     7    31    32   ar
     8    32    33   ar
     9    33    34    1
    10    33    35   ar
    11    35    36   ar
    12    36    37   ar
    13    32    38    1
    14    38    39    1
    15    38    24    1
    16    24     1    1
    17     1     2    1
    18     2     3    1
    19     3     4    1
    20     4     9    1
    21     9    11    1
    22    11    12    1
    23    12    13   ar
    24    13    14   ar
    25    14    15   ar
    26    15    16   ar
    27    16    17   ar
    28    16    18    1
    29    18    19   am
    30    19    20    2
    31    19    21    1
    32    21    22    1
    33     4     5    1
    34     5     6    1
    35     4     7    1
    36     7     8    1
    37    38    40    1
    38    37    26   ar
    39     6     1    1
    40    40    30    1
    41    37    31   ar
    42     8     1    1
    43    17    12   ar
    44    22    15    1
    45    39    41    1
    46     9    10    1
    47    18    23    1
@<TRIPOS>MOLECULE
*****
 41 47 0 0 0
SMALL
GASTEIGER

@<TRIPOS>ATOM
      1 C          -0.7848    2.7876   27.4075 C.3     1  UNL1        0.0955
      2 C           0.2046    3.4877   28.2912 C.3     1  UNL1        0.0287
      3 C           0.9296    2.7228   29.3586 C.3     1  UNL1        0.0193
      4 C           0.6652    1.2577   29.5422 C.3     1  UNL1        0.0700
      5 C          -0.3241    0.5576   28.6584 C.3     1  UNL1        0.0193
      6 C          -1.0491    1.3225   27.5911 C.3     1  UNL1        0.0287
      7 C           0.2437    1.6348   28.9438 C.3     1  UNL1        0.1562
      8 O          -0.4119    2.3264   27.9786 O.3     1  UNL1       -0.3571
      9 N           1.3902    0.4928   30.6095 N.3     1  UNL1       -0.2926
     10 H           0.6795    0.0144   31.1631 H       1  UNL1        0.1236
     11 C           2.4110   -0.5389   30.2307 C.3     1  UNL1        0.1152
     12 C           3.2651   -0.3378   29.0141 C.ar    1  UNL1        0.0765
     13 C           4.2234    0.8146   28.9527 C.ar    1  UNL1        0.0193
     14 C           5.0775    1.0157   27.7362 C.ar    1  UNL1        0.0411
     15 C           4.9734    0.0646   26.5811 C.ar    1  UNL1        0.1708
     16 C           4.0151   -1.0878   26.6424 C.ar    1  UNL1        0.1682
     17 N           3.1610   -1.2890   27.8590 N.ar    1  UNL1       -0.2304
     18 N           3.9110   -2.0390   25.4873 N.am    1  UNL1       -0.2639
     19 C           4.7651   -1.8378   24.2708 C.2     1  UNL1        0.2718
     20 O           4.6610   -2.7890   23.1156 O.2     1  UNL1       -0.2707
     21 C           5.7234   -0.6854   24.2094 C.3     1  UNL1        0.2898
     22 O           5.8275    0.2658   25.3645 O.3     1  UNL1       -0.4628
     23 H           3.2820   -2.7953   25.5276 H       1  UNL1        0.1565
     24 C          -1.5098    3.5526   26.3401 C.3     1  UNL1        0.0604
     25 C          -5.5161    3.5859   20.3644 C.3     1  UNL1        0.0328
     26 C          -4.2005    3.4922   21.0789 C.ar    1  UNL1        0.0019
     27 C          -2.9342    3.3046   20.2970 C.ar    1  UNL1        0.0580
     28 C          -1.6186    3.2109   21.0114 C.ar    1  UNL1        0.2608
     29 O          -0.3522    3.0233   20.2295 O.2     1  UNL1       -0.2670
     30 N          -1.4276    3.2894   22.5040 N.ar    1  UNL1       -0.2915
     31 C          -2.7693    3.4760   23.1481 C.ar    1  UNL1        0.0803
     32 C          -2.5644    3.5524   24.6321 C.ar    1  UNL1        0.0500
     33 C          -3.7414    3.7390   25.5431 C.ar    1  UNL1        0.1588
     34 F          -3.5365    3.8154   27.0270 F       1  UNL1       -0.2027
     35 C          -5.1232    3.8492   24.9701 C.ar    1  UNL1        0.1282
     36 N          -5.3281    3.7727   23.4861 N.ar    1  UNL1       -0.2404
     37 C          -4.1511    3.5862   22.5751 C.ar    1  UNL1        0.0932
     38 C          -1.0961    3.4131   24.9050 C.3     1  UNL1        0.1335
     39 O           0.2859    3.3029   25.4780 O.3     1  UNL1       -0.3806
     40 C          -0.3934    3.2506   23.5898 C.3     1  UNL1        0.1402
     41 H           0.2416    3.3718   26.4446 H       1  UNL1        0.2108
@<TRIPOS>BOND
     1    25    26    1
     2    26    27   ar
     3    27    28   ar
     4    28    29    2
     5    28    30   ar
     6    30    31   ar
     7    31    32   ar
     8    32    33   ar
     9    33    34    1
    10    33    35   ar
    11    35    36   ar
    12    36    37   ar
    13    32    38    1
    14    38    39    1
    15    38    24    1
    16    24     1    1
    17     1     2    1
    18     2     3    1
    19     3     4    1
    20     4     9    1
    21     9    11    1
    22    11    12    1
    23    12    13   ar
    24    13    14   ar
    25    14    15   ar
    26    15    16   ar
    27    16    17   ar
    28    16    18    1
    29    18    19   am
    30    19    20    2
    31    19    21    1
    32    21    22    1
    33     4     5    1
    34     5     6    1
    35     4     7    1
    36     7     8    1
    37    38    40    1
    38    37    26   ar
    39     6     1    1
    40    40    30    1
    41    37    31   ar
    42     8     1    1
    43    17    12   ar
    44    22    15    1
    45    39    41    1
    46     9    10    1
    47    18    23    1
@<TRIPOS>MOLECULE
*****
 41 47 0 0 0
SMALL
GASTEIGER

@<TRIPOS>ATOM
      1 C           4.3325   -0.9799   31.8747 C.3     1  UNL1        0.0955
      2 C           5.4300   -1.0719   30.8563 C.3     1  UNL1        0.0287
      3 C           6.4016   -2.2138   30.9019 C.3     1  UNL1        0.0193
      4 C           6.2757   -3.2636   31.9659 C.3     1  UNL1        0.0700
      5 C           5.1783   -3.1715   32.9843 C.3     1  UNL1        0.0193
      6 C           4.2066   -2.0297   32.9387 C.3     1  UNL1        0.0287
      7 C           5.7196   -2.6566   31.9813 C.3     1  UNL1        0.1562
      8 O           4.8410   -1.6241   31.9401 O.3     1  UNL1       -0.3571
      9 N           7.2473   -4.4054   32.0115 N.3     1  UNL1       -0.2926
     10 H           7.3442   -4.6706   32.9917 H       1  UNL1        0.1236
     11 C           6.9610   -5.6648   31.2486 C.3     1  UNL1        0.1152
     12 C           7.3854   -5.7861   29.8150 C.ar    1  UNL1        0.0765
     13 C           8.5695   -6.6325   29.4524 C.ar    1  UNL1        0.0193
     14 C           8.9939   -6.7539   28.0188 C.ar    1  UNL1        0.0411
     15 C           8.2341   -6.0289   26.9479 C.ar    1  UNL1        0.1708
     16 C           7.0500   -5.1825   27.3103 C.ar    1  UNL1        0.1682
     17 N           6.6256   -5.0611   28.7439 N.ar    1  UNL1       -0.2304
     18 N           6.2903   -4.4575   26.2394 N.am    1  UNL1       -0.2639
     19 C           6.7146   -4.5789   24.8058 C.2     1  UNL1        0.2718
     20 O           5.9549   -3.8539   23.7347 O.2     1  UNL1       -0.2707
     21 C           7.8988   -5.4253   24.4432 C.3     1  UNL1        0.2898
     22 O           8.6586   -6.1503   25.5142 O.3     1  UNL1       -0.4628
     23 H           5.5131   -3.9020   26.4773 H       1  UNL1        0.1565
     24 C           3.3608    0.1621   31.8290 C.3     1  UNL1        0.0604
     25 C           1.0667    5.9342   28.1987 C.3     1  UNL1        0.0328
     26 C           1.0741    4.4608   28.4801 C.ar    1  UNL1        0.0019
     27 C           0.2027    3.5398   27.6786 C.ar    1  UNL1        0.0580
     28 C           0.2101    2.0665   27.9600 C.ar    1  UNL1        0.2608
     29 O          -0.6613    1.1454   27.1584 O.2     1  UNL1       -0.2670
     30 N           1.0414    1.3828   29.0144 N.ar    1  UNL1       -0.2915
     31 C           1.8545    2.4210   29.7292 C.ar    1  UNL1        0.0803
     32 C           2.6762    1.7272   30.7749 C.ar    1  UNL1        0.0500
     33 C           3.5963    2.5209   31.6544 C.ar    1  UNL1        0.1588
     34 F           4.4180    1.8271   32.7000 F       1  UNL1       -0.2027
     35 C           3.6946    4.0084   31.4882 C.ar    1  UNL1        0.1282
     36 N           2.8728    4.7022   30.4426 N.ar    1  UNL1       -0.2404
     37 C           1.9528    3.9085   29.5631 C.ar    1  UNL1        0.0932
     38 C           2.3710    0.2602   30.7063 C.3     1  UNL1        0.1335
     39 O           2.2727   -1.2274   30.8724 O.3     1  UNL1       -0.3806
     40 C           1.3606    0.0473   29.6183 C.3     1  UNL1        0.1402
     41 H           2.8646   -1.5129   31.5859 H       1  UNL1        0.2108
@<TRIPOS>BOND
     1    25    26    1
     2    26    27   ar
     3    27    28   ar
     4    28    29    2
     5    28    30   ar
     6    30    31   ar
     7    31    32   ar
     8    32    33   ar
     9    33    34    1
    10    33    35   ar
    11    35    36   ar
    12    36    37   ar
    13    32    38    1
    14    38    39    1
    15    38    24    1
    16    24     1    1
    17     1     2    1
    18     2     3    1
    19     3     4    1
    20     4     9    1
    21     9    11    1
    22    11    12    1
    23    12    13   ar
    24    13    14   ar
    25    14    15   ar
    26    15    16   ar
    27    16    17   ar
    28    16    18    1
    29    18    19   am
    30    19    20    2
    31    19    21    1
    32    21    22    1
    33     4     5    1
    34     5     6    1
    35     4     7    1
    36     7     8    1
    37    38    40    1
    38    37    26   ar
    39     6     1    1
    40    40    30    1
    41    37    31   ar
    42     8     1    1
    43    17    12   ar
    44    22    15    1
    45    39    41    1
    46     9    10    1
    47    18    23    1
