@<TRIPOS>MOLECULE
*****
 45 49 0 0 0
SMALL
GASTEIGER

@<TRIPOS>ATOM
      1 C          -1.3502    3.1880   21.6387 C.2     1  UNL1        0.3851
      2 N          -1.4784    3.5541   23.0876 N.am    1  UNL1        0.0007
      3 N           0.0000    3.1729   20.9855 N.pl3   1  UNL1       -0.2438
      4 H           0.3835    4.0065   20.6287 H       1  UNL1        0.2647
      5 C           4.5394   -2.9471   22.8730 C.3     1  UNL1        0.0725
      6 C           3.6561   -1.9045   22.2543 C.ar    1  UNL1        0.1233
      7 C           3.1354   -0.6733   22.9348 C.ar    1  UNL1        0.0361
      8 C           2.2958    0.0821   21.9476 C.ar    1  UNL1        0.0400
      9 C           1.5300    1.3671   22.0571 C.ar    1  UNL1        0.0365
     10 C           0.7659    1.8878   20.8760 C.ar    1  UNL1        0.1168
     11 C           0.7677    1.1235   19.5854 C.ar    1  UNL1        0.0365
     12 C           1.5336   -0.1616   19.4758 C.ar    1  UNL1        0.0404
     13 C           2.2976   -0.6823   20.6569 C.ar    1  UNL1        0.1450
     14 O           3.1383   -1.9100   20.8465 O.2     1  UNL1       -0.4577
     15 C          -0.2563    3.9052   23.8835 C.2     1  UNL1        0.3433
     16 O           0.6813    4.9666   23.3891 O.2     1  UNL1       -0.2483
     17 C           0.0282    3.1949   25.1736 C.ar    1  UNL1        0.0919
     18 C          -0.3853    1.7637   25.3489 C.ar    1  UNL1        0.0094
     19 C          -0.1008    1.0534   26.6390 C.ar    1  UNL1        0.0240
     20 C           0.5972    1.7743   27.7540 C.ar    1  UNL1        0.1347
     21 N           1.0107    3.2055   27.5787 N.ar    1  UNL1       -0.2390
     22 C           0.7262    3.9158   26.2885 C.ar    1  UNL1        0.1051
     23 C           0.8817    1.0641   29.0441 C.2     1  UNL1        0.2669
     24 O          -0.1120    1.1206   30.1663 O.2     1  UNL1       -0.2683
     25 N           2.1599    0.2972   29.2121 N.am    1  UNL1       -0.2713
     26 C           2.4444   -0.4131   30.5022 C.3     1  UNL1        0.1153
     27 C           3.1536    0.2407   28.0899 C.3     1  UNL1        0.1153
     28 N          -2.5723    2.8369   20.8429 N.pl3   1  UNL1       -0.2585
     29 H          -2.6569    1.9429   20.4392 H       1  UNL1        0.2589
     30 C          -3.6656    3.8479   20.6620 C.3     1  UNL1        0.2142
     31 C          -3.4346    4.8714   19.5901 C.3     1  UNL1        0.0490
     32 C          -4.3263    6.0016   19.1684 C.3     1  UNL1        0.0057
     33 C          -5.6691    6.3872   19.7146 C.3     1  UNL1        0.0216
     34 C          -6.4519    5.7380   20.8172 C.3     1  UNL1        0.0940
     35 N          -6.0851    4.5428   21.6460 N.am    1  UNL1       -0.2686
     36 C          -4.8451    3.7016   21.5770 C.2     1  UNL1        0.2622
     37 O          -4.7755    2.5637   22.5518 O.2     1  UNL1       -0.2712
     38 C          -7.0916    4.1348   22.6808 C.3     1  UNL1        0.1794
     39 C          -7.5051    5.1044   23.7480 C.2     1  UNL1        0.2459
     40 O          -8.7171    5.9656   23.5501 O.2     1  UNL1       -0.2730
     41 N          -6.7065    5.2127   25.0131 N.am    1  UNL1       -0.2781
     42 C          -5.4778    4.4212   25.3507 C.3     1  UNL1        0.0935
     43 C          -5.0084    4.8509   26.7089 C.3     1  UNL1        0.0233
     44 C          -5.9469    5.9079   27.2109 C.3     1  UNL1        0.0233
     45 C          -6.9964    6.1315   26.1627 C.3     1  UNL1        0.0935
@<TRIPOS>BOND
     1     5     6    1
     2     6     7   ar
     3     7     8   ar
     4     8     9   ar
     5     9    10   ar
     6    10     3    1
     7     3     1    1
     8     1     2    2
     9     2    15    1
    10    15    16    2
    11    15    17    1
    12    17    18   ar
    13    18    19   ar
    14    19    20   ar
    15    20    23    1
    16    23    24    2
    17    23    25   am
    18    25    26    1
    19    25    27    1
    20    20    21   ar
    21    21    22   ar
    22     1    28    1
    23    30    28    1
    24    30    31    1
    25    31    32    1
    26    32    33    1
    27    33    34    1
    28    34    35    1
    29    35    38    1
    30    38    39    1
    31    39    40    2
    32    39    41   am
    33    41    42    1
    34    42    43    1
    35    43    44    1
    36    44    45    1
    37    35    36   am
    38    36    37    2
    39    10    11   ar
    40    11    12   ar
    41    12    13   ar
    42    13    14   ar
    43    14     6   ar
    44    13     8   ar
    45    22    17   ar
    46    36    30    1
    47    45    41    1
    48     3     4    1
    49    28    29    1
@<TRIPOS>MOLECULE
*****
 45 49 0 0 0
SMALL
GASTEIGER

@<TRIPOS>ATOM
      1 C           6.6438   -4.0441   28.8323 C.2     1  UNL1        0.3851
      2 N           6.9177   -4.6943   30.1560 N.am    1  UNL1        0.0007
      3 N           7.1226   -2.6471   28.5695 N.pl3   1  UNL1       -0.2438
      4 H           8.0740   -2.4804   28.3793 H       1  UNL1        0.2647
      5 C           0.6968    1.6000   30.0842 C.3     1  UNL1        0.0725
      6 C           2.0137    1.0241   29.6553 C.ar    1  UNL1        0.1233
      7 C           2.5134   -0.3569   29.9604 C.ar    1  UNL1        0.0361
      8 C           3.8707   -0.5065   29.3396 C.ar    1  UNL1        0.0400
      9 C           4.8415   -1.6496   29.3125 C.ar    1  UNL1        0.0365
     10 C           6.1516   -1.5040   28.5966 C.ar    1  UNL1        0.1168
     11 C           6.4908   -0.2154   27.9078 C.ar    1  UNL1        0.0365
     12 C           5.5199    0.9277   27.9349 C.ar    1  UNL1        0.0404
     13 C           4.2099    0.7821   28.6508 C.ar    1  UNL1        0.1450
     14 O           3.0622    1.7280   28.8459 O.2     1  UNL1       -0.4577
     15 C           7.6703   -3.9474   31.2170 C.2     1  UNL1        0.3433
     16 O           9.1484   -4.1505   31.3717 O.2     1  UNL1       -0.2483
     17 C           6.9449   -2.9975   32.1232 C.ar    1  UNL1        0.0919
     18 C           5.5199   -3.2670   32.5064 C.ar    1  UNL1        0.0094
     19 C           4.7945   -2.3171   33.4127 C.ar    1  UNL1        0.0240
     20 C           5.4940   -1.0976   33.9358 C.ar    1  UNL1        0.1347
     21 N           6.9189   -0.8281   33.5526 N.ar    1  UNL1       -0.2390
     22 C           7.6444   -1.7781   32.6463 C.ar    1  UNL1        0.1051
     23 C           4.7685   -0.1477   34.8420 C.2     1  UNL1        0.2669
     24 O           4.7348   -0.3995   36.3203 O.2     1  UNL1       -0.2683
     25 N           4.0767    1.0541   34.2700 N.am    1  UNL1       -0.2713
     26 C           3.3513    2.0040   35.1762 C.3     1  UNL1        0.1153
     27 C           4.1104    1.3059   32.7917 C.3     1  UNL1        0.1153
     28 N           5.8912   -4.7910   27.7712 N.pl3   1  UNL1       -0.2585
     29 H           4.9134   -4.8864   27.8359 H       1  UNL1        0.2589
     30 C           6.6282   -5.3926   26.6116 C.3     1  UNL1        0.2142
     31 C           7.0938   -6.8062   26.7990 C.3     1  UNL1        0.0490
     32 C           7.8484   -7.6774   25.8390 C.3     1  UNL1        0.0057
     33 C           8.3239   -7.3502   24.4544 C.3     1  UNL1        0.0216
     34 C           8.1621   -6.0710   23.6880 C.3     1  UNL1        0.0940
     35 N           7.4849   -4.8031   24.1168 N.am    1  UNL1       -0.2686
     36 C           6.8023   -4.5012   25.4179 C.2     1  UNL1        0.2622
     37 O           6.2162   -3.1260   25.5416 O.2     1  UNL1       -0.2712
     38 C           7.4912   -3.6898   23.1114 C.3     1  UNL1        0.1794
     39 C           6.7744   -3.8557   21.8043 C.2     1  UNL1        0.2459
     40 O           7.3058   -4.8064   20.7729 O.2     1  UNL1       -0.2730
     41 N           5.5262   -3.0709   21.5285 N.am    1  UNL1       -0.2781
     42 C           4.8791   -2.0880   22.4587 C.3     1  UNL1        0.0935
     43 C           3.6590   -1.5409   21.7792 C.3     1  UNL1        0.0233
     44 C           3.5519   -2.1855   20.4290 C.3     1  UNL1        0.0233
     45 C           4.7060   -3.1311   20.2741 C.3     1  UNL1        0.0935
@<TRIPOS>BOND
     1     5     6    1
     2     6     7   ar
     3     7     8   ar
     4     8     9   ar
     5     9    10   ar
     6    10     3    1
     7     3     1    1
     8     1     2    2
     9     2    15    1
    10    15    16    2
    11    15    17    1
    12    17    18   ar
    13    18    19   ar
    14    19    20   ar
    15    20    23    1
    16    23    24    2
    17    23    25   am
    18    25    26    1
    19    25    27    1
    20    20    21   ar
    21    21    22   ar
    22     1    28    1
    23    30    28    1
    24    30    31    1
    25    31    32    1
    26    32    33    1
    27    33    34    1
    28    34    35    1
    29    35    38    1
    30    38    39    1
    31    39    40    2
    32    39    41   am
    33    41    42    1
    34    42    43    1
    35    43    44    1
    36    44    45    1
    37    35    36   am
    38    36    37    2
    39    10    11   ar
    40    11    12   ar
    41    12    13   ar
    42    13    14   ar
    43    14     6   ar
    44    13     8   ar
    45    22    17   ar
    46    36    30    1
    47    45    41    1
    48     3     4    1
    49    28    29    1
@<TRIPOS>MOLECULE
*****
 45 49 0 0 0
SMALL
GASTEIGER

@<TRIPOS>ATOM
      1 C           8.0910   -4.1832   23.1180 C.2     1  UNL1        0.3851
      2 N           8.9843   -5.1395   23.8509 N.am    1  UNL1        0.0007
      3 N           6.6012   -4.2968   23.2506 N.pl3   1  UNL1       -0.2438
      4 H           6.1329   -5.0820   22.8855 H       1  UNL1        0.2647
      5 C           1.2756    1.3112   24.5970 C.3     1  UNL1        0.0725
      6 C           2.3837    0.3002   24.6063 C.ar    1  UNL1        0.1233
      7 C           2.7384   -0.6295   23.4839 C.ar    1  UNL1        0.0361
      8 C           3.9056   -1.4629   23.9235 C.ar    1  UNL1        0.0400
      9 C           4.6819   -2.5457   23.2345 C.ar    1  UNL1        0.0365
     10 C           5.8248   -3.2138   23.9396 C.ar    1  UNL1        0.1168
     11 C           6.1915   -2.7991   25.3337 C.ar    1  UNL1        0.0365
     12 C           5.4152   -1.7163   26.0228 C.ar    1  UNL1        0.0404
     13 C           4.2723   -1.0482   25.3176 C.ar    1  UNL1        0.1450
     14 O           3.3317    0.0415   25.7396 O.2     1  UNL1       -0.4577
     15 C           8.3878   -6.2095   24.7167 C.2     1  UNL1        0.3433
     16 O           8.1589   -7.5835   24.1601 O.2     1  UNL1       -0.2483
     17 C           8.0204   -5.9055   26.1388 C.ar    1  UNL1        0.0919
     18 C           6.5946   -6.0291   26.5879 C.ar    1  UNL1        0.0094
     19 C           6.2271   -5.7251   28.0100 C.ar    1  UNL1        0.0240
     20 C           7.2855   -5.2975   28.9832 C.ar    1  UNL1        0.1347
     21 N           8.7114   -5.1739   28.5341 N.ar    1  UNL1       -0.2390
     22 C           9.0788   -5.4779   27.1118 C.ar    1  UNL1        0.1051
     23 C           6.9181   -4.9935   30.4053 C.2     1  UNL1        0.2669
     24 O           6.8763   -6.0962   31.4212 O.2     1  UNL1       -0.2683
     25 N           6.5924   -3.5867   30.8115 N.am    1  UNL1       -0.2713
     26 C           6.2250   -3.2827   32.2336 C.3     1  UNL1        0.1153
     27 C           6.6342   -2.4840   29.7956 C.3     1  UNL1        0.1153
     28 N           8.6874   -3.1131   22.2523 N.pl3   1  UNL1       -0.2585
     29 H           9.5394   -3.2750   21.7862 H       1  UNL1        0.2589
     30 C           7.9858   -1.7965   22.0967 C.3     1  UNL1        0.2142
     31 C           8.3627   -0.7369   23.0893 C.3     1  UNL1        0.0490
     32 C           7.8469    0.6673   23.1994 C.3     1  UNL1        0.0057
     33 C           6.8268    1.3588   22.3441 C.3     1  UNL1        0.0216
     34 C           6.0706    0.8167   21.1675 C.3     1  UNL1        0.0940
     35 N           6.1477   -0.5506   20.5556 N.am    1  UNL1       -0.2686
     36 C           7.0001   -1.7136   20.9691 C.2     1  UNL1        0.2622
     37 O           6.8462   -2.9583   20.1462 O.2     1  UNL1       -0.2712
     38 C           5.2543   -0.7861   19.3739 C.3     1  UNL1        0.1794
     39 C           3.8817   -1.3570   19.5735 C.2     1  UNL1        0.2459
     40 O           3.6604   -2.8360   19.4583 O.2     1  UNL1       -0.2730
     41 N           2.7302   -0.4487   19.8884 N.am    1  UNL1       -0.2781
     42 C           2.7978    1.0427   20.0340 C.3     1  UNL1        0.0935
     43 C           1.4183    1.5407   20.3485 C.3     1  UNL1        0.0233
     44 C           0.4981    0.3572   20.3972 C.3     1  UNL1        0.0233
     45 C           1.3089   -0.8723   20.1128 C.3     1  UNL1        0.0935
@<TRIPOS>BOND
     1     5     6    1
     2     6     7   ar
     3     7     8   ar
     4     8     9   ar
     5     9    10   ar
     6    10     3    1
     7     3     1    1
     8     1     2    2
     9     2    15    1
    10    15    16    2
    11    15    17    1
    12    17    18   ar
    13    18    19   ar
    14    19    20   ar
    15    20    23    1
    16    23    24    2
    17    23    25   am
    18    25    26    1
    19    25    27    1
    20    20    21   ar
    21    21    22   ar
    22     1    28    1
    23    30    28    1
    24    30    31    1
    25    31    32    1
    26    32    33    1
    27    33    34    1
    28    34    35    1
    29    35    38    1
    30    38    39    1
    31    39    40    2
    32    39    41   am
    33    41    42    1
    34    42    43    1
    35    43    44    1
    36    44    45    1
    37    35    36   am
    38    36    37    2
    39    10    11   ar
    40    11    12   ar
    41    12    13   ar
    42    13    14   ar
    43    14     6   ar
    44    13     8   ar
    45    22    17   ar
    46    36    30    1
    47    45    41    1
    48     3     4    1
    49    28    29    1
@<TRIPOS>MOLECULE
*****
 45 49 0 0 0
SMALL
GASTEIGER

@<TRIPOS>ATOM
      1 C           6.8970   -3.6399   23.8929 C.2     1  UNL1        0.3851
      2 N           8.0033   -3.4864   22.8917 N.am    1  UNL1        0.0007
      3 N           5.5037   -3.9469   23.4300 N.pl3   1  UNL1       -0.2438
      4 H           5.1779   -4.8760   23.4317 H       1  UNL1        0.2647
      5 C           1.1543    0.6128   18.7487 C.3     1  UNL1        0.0725
      6 C           1.9048   -0.0753   19.8502 C.ar    1  UNL1        0.1233
      7 C           2.7456   -1.3092   19.7072 C.ar    1  UNL1        0.0361
      8 C           3.3068   -1.6467   21.0567 C.ar    1  UNL1        0.0400
      9 C           4.2037   -2.7552   21.5221 C.ar    1  UNL1        0.0365
     10 C           4.6066   -2.8384   22.9646 C.ar    1  UNL1        0.1168
     11 C           4.1125   -1.8131   23.9416 C.ar    1  UNL1        0.0365
     12 C           3.2156   -0.7046   23.4763 C.ar    1  UNL1        0.0404
     13 C           2.8127   -0.6214   22.0338 C.ar    1  UNL1        0.1450
     14 O           1.9462    0.3497   21.2881 O.2     1  UNL1       -0.4577
     15 C           7.7162   -3.6399   21.4274 C.2     1  UNL1        0.3433
     16 O           7.5184   -5.0063   20.8411 O.2     1  UNL1       -0.2483
     17 C           7.6269   -2.4270   20.5494 C.ar    1  UNL1        0.0919
     18 C           7.0843   -2.5478   19.1562 C.ar    1  UNL1        0.0094
     19 C           6.9950   -1.3349   18.2783 C.ar    1  UNL1        0.0240
     20 C           7.4484   -0.0011   18.7935 C.ar    1  UNL1        0.1347
     21 N           7.9911    0.1198   20.1867 N.ar    1  UNL1       -0.2390
     22 C           8.0803   -1.0932   21.0646 C.ar    1  UNL1        0.1051
     23 C           7.3592    1.2118   17.9155 C.2     1  UNL1        0.2669
     24 O           8.4917    1.5557   16.9941 O.2     1  UNL1       -0.2683
     25 N           6.1373    2.0809   17.9590 N.am    1  UNL1       -0.2713
     26 C           6.0481    3.2938   17.0810 C.3     1  UNL1        0.1153
     27 C           5.0048    1.7370   18.8804 C.3     1  UNL1        0.1153
     28 N           7.1841   -3.4864   25.3572 N.pl3   1  UNL1       -0.2585
     29 H           7.1761   -2.5924   25.7694 H       1  UNL1        0.2589
     30 C           7.4834   -4.6951   26.1936 C.3     1  UNL1        0.2142
     31 C           7.4343   -6.0114   25.4759 C.3     1  UNL1        0.0490
     32 C           7.6819   -7.3855   26.0244 C.3     1  UNL1        0.0057
     33 C           8.0397   -7.7825   27.4261 C.3     1  UNL1        0.0216
     34 C           8.2382   -6.9036   28.6253 C.3     1  UNL1        0.0940
     35 N           8.1280   -5.4106   28.7191 N.am    1  UNL1       -0.2686
     36 C           7.7921   -4.4277   27.6368 C.2     1  UNL1        0.2622
     37 O           7.7607   -2.9869   28.0530 O.2     1  UNL1       -0.2712
     38 C           8.3882   -4.8227   30.0743 C.3     1  UNL1        0.1794
     39 C           7.2944   -4.7901   31.1002 C.2     1  UNL1        0.2459
     40 O           6.6915   -6.0714   31.5947 O.2     1  UNL1       -0.2730
     41 N           6.8034   -3.4761   31.6316 N.am    1  UNL1       -0.2781
     42 C           7.3074   -2.1204   31.2337 C.3     1  UNL1        0.0935
     43 C           6.5378   -1.0936   32.0104 C.3     1  UNL1        0.0233
     44 C           5.5581   -1.8145   32.8882 C.3     1  UNL1        0.0233
     45 C           5.7224   -3.2870   32.6541 C.3     1  UNL1        0.0935
@<TRIPOS>BOND
     1     5     6    1
     2     6     7   ar
     3     7     8   ar
     4     8     9   ar
     5     9    10   ar
     6    10     3    1
     7     3     1    1
     8     1     2    2
     9     2    15    1
    10    15    16    2
    11    15    17    1
    12    17    18   ar
    13    18    19   ar
    14    19    20   ar
    15    20    23    1
    16    23    24    2
    17    23    25   am
    18    25    26    1
    19    25    27    1
    20    20    21   ar
    21    21    22   ar
    22     1    28    1
    23    30    28    1
    24    30    31    1
    25    31    32    1
    26    32    33    1
    27    33    34    1
    28    34    35    1
    29    35    38    1
    30    38    39    1
    31    39    40    2
    32    39    41   am
    33    41    42    1
    34    42    43    1
    35    43    44    1
    36    44    45    1
    37    35    36   am
    38    36    37    2
    39    10    11   ar
    40    11    12   ar
    41    12    13   ar
    42    13    14   ar
    43    14     6   ar
    44    13     8   ar
    45    22    17   ar
    46    36    30    1
    47    45    41    1
    48     3     4    1
    49    28    29    1
@<TRIPOS>MOLECULE
*****
 45 49 0 0 0
SMALL
GASTEIGER

@<TRIPOS>ATOM
      1 C           3.3996   -0.3229   31.2508 C.2     1  UNL1        0.3851
      2 N           2.9190    0.4844   32.4201 N.am    1  UNL1        0.0007
      3 N           4.8698   -0.4556   30.9846 N.pl3   1  UNL1       -0.2438
      4 H           5.4003    0.3383   30.7451 H       1  UNL1        0.2647
      5 C           8.7341   -6.9913   28.9908 C.3     1  UNL1        0.0725
      6 C           7.9879   -5.8603   29.6344 C.ar    1  UNL1        0.1233
      7 C           7.5241   -4.6081   28.9511 C.ar    1  UNL1        0.0361
      8 C           6.8240   -3.7569   29.9686 C.ar    1  UNL1        0.0400
      9 C           6.1622   -2.4145   29.8699 C.ar    1  UNL1        0.0365
     10 C           5.5316   -1.7981   31.0833 C.ar    1  UNL1        0.1168
     11 C           5.5628   -2.5243   32.3955 C.ar    1  UNL1        0.0365
     12 C           6.2246   -3.8667   32.4942 C.ar    1  UNL1        0.0404
     13 C           6.8552   -4.4830   31.2808 C.ar    1  UNL1        0.1450
     14 O           7.5746   -5.7830   31.0742 O.2     1  UNL1       -0.4577
     15 C           3.9086    1.1590   33.3232 C.2     1  UNL1        0.3433
     16 O           5.2881    1.4713   32.8240 O.2     1  UNL1       -0.2483
     17 C           3.5186    1.5213   34.7256 C.ar    1  UNL1        0.0919
     18 C           4.1962    0.8576   35.8877 C.ar    1  UNL1        0.0094
     19 C           3.8063    1.2199   37.2900 C.ar    1  UNL1        0.0240
     20 C           2.7386    2.2458   37.5304 C.ar    1  UNL1        0.1347
     21 N           2.0611    2.9095   36.3683 N.ar    1  UNL1       -0.2390
     22 C           2.4511    2.5472   34.9659 C.ar    1  UNL1        0.1051
     23 C           2.3487    2.6081   38.9327 C.2     1  UNL1        0.2669
     24 O           3.1383    3.6348   39.6892 O.2     1  UNL1       -0.2683
     25 N           1.1692    1.9436   39.5786 N.am    1  UNL1       -0.2713
     26 C           0.7792    2.3059   40.9809 C.3     1  UNL1        0.1153
     27 C           0.3796    0.9169   38.8221 C.3     1  UNL1        0.1153
     28 N           2.4099   -0.9975   30.3476 N.pl3   1  UNL1       -0.2585
     29 H           2.1643   -1.9383   30.5019 H       1  UNL1        0.2589
     30 C           1.7946   -0.2386   29.2094 C.3     1  UNL1        0.2142
     31 C           0.3877    0.2339   29.4273 C.3     1  UNL1        0.0490
     32 C          -0.4937    1.0091   28.4934 C.3     1  UNL1        0.0057
     33 C          -0.1859    1.5033   27.1109 C.3     1  UNL1        0.0216
     34 C           1.0793    1.3443   26.3210 C.3     1  UNL1        0.0940
     35 N           2.3492    0.6518   26.7184 N.am    1  UNL1       -0.2686
     36 C           2.6675   -0.0526   28.0039 C.2     1  UNL1        0.2622
     37 O           4.0404   -0.6501   28.0959 O.2     1  UNL1       -0.2712
     38 C           3.4458    0.6657   25.6950 C.3     1  UNL1        0.1794
     39 C           3.5209   -0.4190   24.6617 C.2     1  UNL1        0.2459
     40 O           4.1526   -1.7363   25.0017 O.2     1  UNL1       -0.2730
     41 N           2.9644   -0.1864   23.2883 N.am    1  UNL1       -0.2781
     42 C           2.3070    1.0723   22.8049 C.3     1  UNL1        0.0935
     43 C           1.9039    0.8650   21.3751 C.3     1  UNL1        0.0233
     44 C           2.3120   -0.5218   20.9748 C.3     1  UNL1        0.0233
     45 C           2.9674   -1.1716   22.1572 C.3     1  UNL1        0.0935
@<TRIPOS>BOND
     1     5     6    1
     2     6     7   ar
     3     7     8   ar
     4     8     9   ar
     5     9    10   ar
     6    10     3    1
     7     3     1    1
     8     1     2    2
     9     2    15    1
    10    15    16    2
    11    15    17    1
    12    17    18   ar
    13    18    19   ar
    14    19    20   ar
    15    20    23    1
    16    23    24    2
    17    23    25   am
    18    25    26    1
    19    25    27    1
    20    20    21   ar
    21    21    22   ar
    22     1    28    1
    23    30    28    1
    24    30    31    1
    25    31    32    1
    26    32    33    1
    27    33    34    1
    28    34    35    1
    29    35    38    1
    30    38    39    1
    31    39    40    2
    32    39    41   am
    33    41    42    1
    34    42    43    1
    35    43    44    1
    36    44    45    1
    37    35    36   am
    38    36    37    2
    39    10    11   ar
    40    11    12   ar
    41    12    13   ar
    42    13    14   ar
    43    14     6   ar
    44    13     8   ar
    45    22    17   ar
    46    36    30    1
    47    45    41    1
    48     3     4    1
    49    28    29    1
@<TRIPOS>MOLECULE
*****
 45 49 0 0 0
SMALL
GASTEIGER

@<TRIPOS>ATOM
      1 C           6.4168   -2.5552   25.0771 C.2     1  UNL1        0.3851
      2 N           6.2383   -1.2524   25.7988 N.am    1  UNL1        0.0007
      3 N           5.2991   -3.1113   24.2456 N.pl3   1  UNL1       -0.2438
      4 H           4.5232   -3.5320   24.6818 H       1  UNL1        0.2647
      5 C           3.7235   -0.9798   16.8566 C.3     1  UNL1        0.0725
      6 C           4.2242   -1.5560   18.1479 C.ar    1  UNL1        0.1233
      7 C           3.7126   -1.2245   19.5184 C.ar    1  UNL1        0.0361
      8 C           4.4965   -2.0285   20.5129 C.ar    1  UNL1        0.0400
      9 C           4.4320   -2.1133   22.0091 C.ar    1  UNL1        0.0365
     10 C           5.3636   -3.0265   22.7493 C.ar    1  UNL1        0.1168
     11 C           6.3597   -3.8550   21.9934 C.ar    1  UNL1        0.0365
     12 C           6.4242   -3.7703   20.4972 C.ar    1  UNL1        0.0404
     13 C           5.4926   -2.8570   19.7570 C.ar    1  UNL1        0.1450
     14 O           5.3243   -2.5650   18.2953 O.2     1  UNL1       -0.4577
     15 C           4.9420   -0.5056   25.6888 C.2     1  UNL1        0.3433
     16 O           4.3906   -0.1550   24.3386 O.2     1  UNL1       -0.2483
     17 C           4.1971   -0.1096   26.9291 C.ar    1  UNL1        0.0919
     18 C           3.9317   -1.1248   28.0009 C.ar    1  UNL1        0.0094
     19 C           3.1868   -0.7287   29.2412 C.ar    1  UNL1        0.0240
     20 C           2.7073    0.6826   29.4096 C.ar    1  UNL1        0.1347
     21 N           2.9727    1.6978   28.3377 N.ar    1  UNL1       -0.2390
     22 C           3.7176    1.3017   27.0974 C.ar    1  UNL1        0.1051
     23 C           1.9624    1.0787   30.6498 C.2     1  UNL1        0.2669
     24 O           0.4659    0.9842   30.6882 O.2     1  UNL1       -0.2683
     25 N           2.7140    1.5692   31.8517 N.am    1  UNL1       -0.2713
     26 C           1.9692    1.9653   33.0919 C.3     1  UNL1        0.1153
     27 C           4.2105    1.6636   31.8133 C.3     1  UNL1        0.1153
     28 N           7.7131   -3.3020   25.1871 N.pl3   1  UNL1       -0.2585
     29 H           8.5168   -2.9628   24.7307 H       1  UNL1        0.2589
     30 C           7.7849   -4.5655   25.9923 C.3     1  UNL1        0.2142
     31 C           7.5403   -5.8358   25.2331 C.3     1  UNL1        0.0490
     32 C           7.5421   -7.2460   25.7444 C.3     1  UNL1        0.0057
     33 C           7.7890   -7.7341   27.1412 C.3     1  UNL1        0.0216
     34 C           8.0949   -6.9325   28.3716 C.3     1  UNL1        0.0940
     35 N           8.2296   -5.4449   28.5091 N.am    1  UNL1       -0.2686
     36 C           8.0916   -4.3915   27.4502 C.2     1  UNL1        0.2622
     37 O           8.2861   -2.9770   27.9102 O.2     1  UNL1       -0.2712
     38 C           8.5439   -4.9446   29.8879 C.3     1  UNL1        0.1794
     39 C           7.4602   -4.8655   30.9220 C.2     1  UNL1        0.2459
     40 O           6.8378   -6.1223   31.4539 O.2     1  UNL1       -0.2730
     41 N           6.9990   -3.5294   31.4243 N.am    1  UNL1       -0.2781
     42 C           7.5247   -2.1940   30.9880 C.3     1  UNL1        0.0935
     43 C           6.7817   -1.1335   31.7451 C.3     1  UNL1        0.0233
     44 C           5.7967   -1.8134   32.6493 C.3     1  UNL1        0.0233
     45 C           5.9310   -3.2942   32.4510 C.3     1  UNL1        0.0935
@<TRIPOS>BOND
     1     5     6    1
     2     6     7   ar
     3     7     8   ar
     4     8     9   ar
     5     9    10   ar
     6    10     3    1
     7     3     1    1
     8     1     2    2
     9     2    15    1
    10    15    16    2
    11    15    17    1
    12    17    18   ar
    13    18    19   ar
    14    19    20   ar
    15    20    23    1
    16    23    24    2
    17    23    25   am
    18    25    26    1
    19    25    27    1
    20    20    21   ar
    21    21    22   ar
    22     1    28    1
    23    30    28    1
    24    30    31    1
    25    31    32    1
    26    32    33    1
    27    33    34    1
    28    34    35    1
    29    35    38    1
    30    38    39    1
    31    39    40    2
    32    39    41   am
    33    41    42    1
    34    42    43    1
    35    43    44    1
    36    44    45    1
    37    35    36   am
    38    36    37    2
    39    10    11   ar
    40    11    12   ar
    41    12    13   ar
    42    13    14   ar
    43    14     6   ar
    44    13     8   ar
    45    22    17   ar
    46    36    30    1
    47    45    41    1
    48     3     4    1
    49    28    29    1
@<TRIPOS>MOLECULE
*****
 45 49 0 0 0
SMALL
GASTEIGER

@<TRIPOS>ATOM
      1 C          -0.1911    1.8057   20.8076 C.2     1  UNL1        0.3851
      2 N          -1.1868    2.4478   19.8878 N.am    1  UNL1        0.0007
      3 N           0.4449    2.6093   21.9030 N.pl3   1  UNL1       -0.2438
      4 H           1.2332    3.1668   21.7104 H       1  UNL1        0.2647
      5 C          -0.5226    0.7398   29.4655 C.3     1  UNL1        0.0725
      6 C          -0.5704    1.2620   28.0602 C.ar    1  UNL1        0.1233
      7 C           0.3828    0.9113   26.9564 C.ar    1  UNL1        0.0361
      8 C          -0.0374    1.6591   25.7259 C.ar    1  UNL1        0.0400
      9 C           0.5277    1.7048   24.3372 C.ar    1  UNL1        0.0365
     10 C          -0.1202    2.5635   23.2918 C.ar    1  UNL1        0.1168
     11 C          -1.3332    3.3764   23.6351 C.ar    1  UNL1        0.0365
     12 C          -1.8983    3.3306   25.0237 C.ar    1  UNL1        0.0404
     13 C          -1.2504    2.4720   26.0691 C.ar    1  UNL1        0.1450
     14 O          -1.5798    2.2265   27.5118 O.2     1  UNL1       -0.4577
     15 C          -1.5467    3.8934   20.0632 C.2     1  UNL1        0.3433
     16 O          -0.5667    4.9621   19.6793 O.2     1  UNL1       -0.2483
     17 C          -2.8864    4.2702   20.6226 C.ar    1  UNL1        0.0919
     18 C          -3.9876    3.2533   20.6816 C.ar    1  UNL1        0.0094
     19 C          -5.3273    3.6302   21.2409 C.ar    1  UNL1        0.0240
     20 C          -5.5660    5.0240   21.7414 C.ar    1  UNL1        0.1347
     21 N          -4.4649    6.0409   21.6824 N.ar    1  UNL1       -0.2390
     22 C          -3.1251    5.6640   21.1230 C.ar    1  UNL1        0.1051
     23 C          -6.9058    5.4009   22.3008 C.2     1  UNL1        0.2669
     24 O          -7.9602    5.9734   21.4006 O.2     1  UNL1       -0.2683
     25 N          -7.1912    5.2052   23.7603 N.am    1  UNL1       -0.2713
     26 C          -8.5309    5.5820   24.3197 C.3     1  UNL1        0.1153
     27 C          -6.1367    4.6327   24.6605 C.3     1  UNL1        0.1153
     28 N           0.1688    0.3601   20.6322 N.pl3   1  UNL1       -0.2585
     29 H          -0.5385   -0.3091   20.4867 H       1  UNL1        0.2589
     30 C           1.6063   -0.0659   20.6783 C.3     1  UNL1        0.2142
     31 C           2.1181   -0.4846   22.0247 C.3     1  UNL1        0.0490
     32 C           3.4919   -0.9576   22.3973 C.3     1  UNL1        0.0057
     33 C           4.6933   -1.1289   21.5154 C.3     1  UNL1        0.0216
     34 C           4.8174   -0.8693   20.0433 C.3     1  UNL1        0.0940
     35 N           3.7709   -0.3744   19.0894 N.am    1  UNL1       -0.2686
     36 C           2.3418   -0.0169   19.3720 C.2     1  UNL1        0.2622
     37 O           1.5427    0.4516   18.1922 O.2     1  UNL1       -0.2712
     38 C           4.2118   -0.2162   17.6644 C.3     1  UNL1        0.1794
     39 C           5.6717   -0.1006   17.3395 C.2     1  UNL1        0.2459
     40 O           6.4846   -1.3362   17.0901 O.2     1  UNL1       -0.2730
     41 N           6.3185    1.2507   17.2642 N.am    1  UNL1       -0.2781
     42 C           5.6371    2.5681   17.4882 C.3     1  UNL1        0.0935
     43 C           6.6578    3.6534   17.3140 C.3     1  UNL1        0.0233
     44 C           7.9700    3.0067   16.9824 C.3     1  UNL1        0.0233
     45 C           7.7603    1.5218   16.9516 C.3     1  UNL1        0.0935
@<TRIPOS>BOND
     1     5     6    1
     2     6     7   ar
     3     7     8   ar
     4     8     9   ar
     5     9    10   ar
     6    10     3    1
     7     3     1    1
     8     1     2    2
     9     2    15    1
    10    15    16    2
    11    15    17    1
    12    17    18   ar
    13    18    19   ar
    14    19    20   ar
    15    20    23    1
    16    23    24    2
    17    23    25   am
    18    25    26    1
    19    25    27    1
    20    20    21   ar
    21    21    22   ar
    22     1    28    1
    23    30    28    1
    24    30    31    1
    25    31    32    1
    26    32    33    1
    27    33    34    1
    28    34    35    1
    29    35    38    1
    30    38    39    1
    31    39    40    2
    32    39    41   am
    33    41    42    1
    34    42    43    1
    35    43    44    1
    36    44    45    1
    37    35    36   am
    38    36    37    2
    39    10    11   ar
    40    11    12   ar
    41    12    13   ar
    42    13    14   ar
    43    14     6   ar
    44    13     8   ar
    45    22    17   ar
    46    36    30    1
    47    45    41    1
    48     3     4    1
    49    28    29    1
@<TRIPOS>MOLECULE
*****
 45 49 0 0 0
SMALL
GASTEIGER

@<TRIPOS>ATOM
      1 C           5.7000   -2.6009   25.5257 C.2     1  UNL1        0.3851
      2 N           6.7433   -2.0174   26.4316 N.am    1  UNL1        0.0007
      3 N           4.3348   -1.9829   25.4580 N.pl3   1  UNL1       -0.2438
      4 H           3.6325   -2.2709   26.0850 H       1  UNL1        0.2647
      5 C           5.2158    2.9542   19.4188 C.3     1  UNL1        0.0725
      6 C           4.7837    2.1249   20.5916 C.ar    1  UNL1        0.1233
      7 C           5.6126    1.0897   21.2926 C.ar    1  UNL1        0.0361
      8 C           4.7881    0.5102   22.4037 C.ar    1  UNL1        0.0400
      9 C           5.0832   -0.5465   23.4265 C.ar    1  UNL1        0.0365
     10 C           4.0398   -0.9261   24.4351 C.ar    1  UNL1        0.1168
     11 C           2.7014   -0.2491   24.4208 C.ar    1  UNL1        0.0365
     12 C           2.4063    0.8076   23.3979 C.ar    1  UNL1        0.0404
     13 C           3.4497    1.1873   22.3894 C.ar    1  UNL1        0.1450
     14 O           3.4470    2.1852   21.2695 O.2     1  UNL1       -0.4577
     15 C           6.4216   -0.8158   27.2700 C.2     1  UNL1        0.3433
     16 O           6.5107    0.5587   26.6762 O.2     1  UNL1       -0.2483
     17 C           6.0108   -0.9888   28.7022 C.ar    1  UNL1        0.0919
     18 C           6.8695   -1.7874   29.6376 C.ar    1  UNL1        0.0094
     19 C           6.4587   -1.9604   31.0698 C.ar    1  UNL1        0.0240
     20 C           5.1891   -1.3349   31.5667 C.ar    1  UNL1        0.1347
     21 N           4.3303   -0.5363   30.6314 N.ar    1  UNL1       -0.2390
     22 C           4.7412   -0.3633   29.1991 C.ar    1  UNL1        0.1051
     23 C           4.7782   -1.5079   32.9989 C.2     1  UNL1        0.2669
     24 O           3.9733   -2.7054   33.4088 O.2     1  UNL1       -0.2683
     25 N           5.1724   -0.4835   34.0212 N.am    1  UNL1       -0.2713
     26 C           4.7616   -0.6565   35.4534 C.3     1  UNL1        0.1153
     27 C           5.9773    0.7140   33.6114 C.3     1  UNL1        0.1153
     28 N           6.0217   -3.8024   24.6872 N.pl3   1  UNL1       -0.2585
     29 H           5.7102   -4.6941   24.9649 H       1  UNL1        0.2589
     30 C           6.8179   -3.6453   23.4258 C.3     1  UNL1        0.2142
     31 C           8.2895   -3.4194   23.6089 C.3     1  UNL1        0.0490
     32 C           9.3439   -3.2273   22.5594 C.3     1  UNL1        0.0057
     33 C           9.1871   -3.2136   21.0676 C.3     1  UNL1        0.0216
     34 C           7.9372   -3.3886   20.2569 C.3     1  UNL1        0.0940
     35 N           6.5355   -3.6206   20.7378 N.am    1  UNL1       -0.2686
     36 C           6.0373   -3.7348   22.1481 C.2     1  UNL1        0.2622
     37 O           4.5637   -3.9696   22.3007 O.2     1  UNL1       -0.2712
     38 C           5.4941   -3.7562   19.6667 C.3     1  UNL1        0.1794
     39 C           5.2684   -2.6368   18.6941 C.2     1  UNL1        0.2459
     40 O           6.2131   -2.4389   17.5460 O.2     1  UNL1       -0.2730
     41 N           4.0979   -1.7153   18.8697 N.am    1  UNL1       -0.2781
     42 C           3.0741   -1.7890   19.9635 C.3     1  UNL1        0.0935
     43 C           2.0892   -0.6776   19.7521 C.3     1  UNL1        0.0233
     44 C           2.5043    0.0830   18.5277 C.3     1  UNL1        0.0233
     45 C           3.7458   -0.5584   17.9824 C.3     1  UNL1        0.0935
@<TRIPOS>BOND
     1     5     6    1
     2     6     7   ar
     3     7     8   ar
     4     8     9   ar
     5     9    10   ar
     6    10     3    1
     7     3     1    1
     8     1     2    2
     9     2    15    1
    10    15    16    2
    11    15    17    1
    12    17    18   ar
    13    18    19   ar
    14    19    20   ar
    15    20    23    1
    16    23    24    2
    17    23    25   am
    18    25    26    1
    19    25    27    1
    20    20    21   ar
    21    21    22   ar
    22     1    28    1
    23    30    28    1
    24    30    31    1
    25    31    32    1
    26    32    33    1
    27    33    34    1
    28    34    35    1
    29    35    38    1
    30    38    39    1
    31    39    40    2
    32    39    41   am
    33    41    42    1
    34    42    43    1
    35    43    44    1
    36    44    45    1
    37    35    36   am
    38    36    37    2
    39    10    11   ar
    40    11    12   ar
    41    12    13   ar
    42    13    14   ar
    43    14     6   ar
    44    13     8   ar
    45    22    17   ar
    46    36    30    1
    47    45    41    1
    48     3     4    1
    49    28    29    1
@<TRIPOS>MOLECULE
*****
 45 49 0 0 0
SMALL
GASTEIGER

@<TRIPOS>ATOM
      1 C          -0.8446    3.6670   19.9125 C.2     1  UNL1        0.3851
      2 N          -0.6660    4.0989   21.3378 N.am    1  UNL1        0.0007
      3 N           0.3482    3.2713   19.0936 N.pl3   1  UNL1       -0.2438
      4 H           0.7370    3.9076   18.4508 H       1  UNL1        0.2647
      5 C           5.1810   -2.8578   18.2564 C.3     1  UNL1        0.0725
      6 C           4.1142   -1.8596   18.5965 C.ar    1  UNL1        0.1233
      7 C           4.0106   -0.4627   18.0602 C.ar    1  UNL1        0.0361
      8 C           2.7961    0.1772   18.6649 C.ar    1  UNL1        0.0400
      9 C           2.1958    1.5424   18.5044 C.ar    1  UNL1        0.0365
     10 C           0.9485    1.9060   19.2541 C.ar    1  UNL1        0.1168
     11 C           0.3016    0.9045   20.1641 C.ar    1  UNL1        0.0365
     12 C           0.9019   -0.4607   20.3246 C.ar    1  UNL1        0.0404
     13 C           2.1492   -0.8244   19.5750 C.ar    1  UNL1        0.1450
     14 O           2.9638   -2.0832   19.5327 O.2     1  UNL1       -0.4577
     15 C           0.7056    4.1351   21.9443 C.2     1  UNL1        0.3433
     16 O           1.7873    4.9536   21.3040 O.2     1  UNL1       -0.2483
     17 C           0.9953    3.3528   23.1908 C.ar    1  UNL1        0.0919
     18 C           2.1481    3.7405   24.0687 C.ar    1  UNL1        0.0094
     19 C           2.4378    2.9582   25.3153 C.ar    1  UNL1        0.0240
     20 C           1.5747    1.7880   25.6840 C.ar    1  UNL1        0.1347
     21 N           0.4219    1.4003   24.8061 N.ar    1  UNL1       -0.2390
     22 C           0.1322    2.1827   23.5595 C.ar    1  UNL1        0.1051
     23 C           1.8644    1.0057   26.9306 C.2     1  UNL1        0.2669
     24 O           2.8894   -0.0892   26.9076 O.2     1  UNL1       -0.2683
     25 N           1.1292    1.3183   28.2001 N.am    1  UNL1       -0.2713
     26 C           1.4189    0.5360   29.4467 C.3     1  UNL1        0.1153
     27 C           0.1042    2.4132   28.2231 C.3     1  UNL1        0.1153
     28 N          -2.2162    3.6309   19.3061 N.pl3   1  UNL1       -0.2585
     29 H          -2.4291    2.9685   18.6095 H       1  UNL1        0.2589
     30 C          -3.2632    4.6039   19.7610 C.3     1  UNL1        0.2142
     31 C          -3.1912    5.9711   19.1482 C.3     1  UNL1        0.0490
     32 C          -4.0821    7.1532   19.3916 C.3     1  UNL1        0.0057
     33 C          -5.2649    7.2599   20.3080 C.3     1  UNL1        0.0216
     34 C          -5.8490    6.2109   21.2072 C.3     1  UNL1        0.0940
     35 N          -5.3945    4.7961   21.4121 N.am    1  UNL1       -0.2686
     36 C          -4.2437    4.0810   20.7685 C.2     1  UNL1        0.2622
     37 O          -4.0476    2.6542   21.1879 O.2     1  UNL1       -0.2712
     38 C          -6.1970    3.9900   22.3900 C.3     1  UNL1        0.1794
     39 C          -6.3594    4.4692   23.8020 C.2     1  UNL1        0.2459
     40 O          -7.6364    5.1311   24.2272 O.2     1  UNL1       -0.2730
     41 N          -5.2447    4.2863   24.7889 N.am    1  UNL1       -0.2781
     42 C          -3.9170    3.6458   24.5109 C.3     1  UNL1        0.0935
     43 C          -3.1138    3.6756   25.7772 C.3     1  UNL1        0.0233
     44 C          -3.9448    4.3344   26.8380 C.3     1  UNL1        0.0233
     45 C          -5.2618    4.7119   26.2272 C.3     1  UNL1        0.0935
@<TRIPOS>BOND
     1     5     6    1
     2     6     7   ar
     3     7     8   ar
     4     8     9   ar
     5     9    10   ar
     6    10     3    1
     7     3     1    1
     8     1     2    2
     9     2    15    1
    10    15    16    2
    11    15    17    1
    12    17    18   ar
    13    18    19   ar
    14    19    20   ar
    15    20    23    1
    16    23    24    2
    17    23    25   am
    18    25    26    1
    19    25    27    1
    20    20    21   ar
    21    21    22   ar
    22     1    28    1
    23    30    28    1
    24    30    31    1
    25    31    32    1
    26    32    33    1
    27    33    34    1
    28    34    35    1
    29    35    38    1
    30    38    39    1
    31    39    40    2
    32    39    41   am
    33    41    42    1
    34    42    43    1
    35    43    44    1
    36    44    45    1
    37    35    36   am
    38    36    37    2
    39    10    11   ar
    40    11    12   ar
    41    12    13   ar
    42    13    14   ar
    43    14     6   ar
    44    13     8   ar
    45    22    17   ar
    46    36    30    1
    47    45    41    1
    48     3     4    1
    49    28    29    1
