@<TRIPOS>MOLECULE
*****
 25 27 0 0 0
SMALL
GASTEIGER

@<TRIPOS>ATOM
      1 O         -10.7931  -17.9865   21.3078 O.2     1  UNL1       -0.2262
      2 C          -9.6245  -18.1620   22.2317 C.2     1  UNL1        0.4052
      3 N          -8.3387  -18.7352   21.7141 N.am    1  UNL1       -0.2460
      4 C          -7.1701  -18.9107   22.6380 C.3     1  UNL1        0.0968
      5 C          -5.8842  -19.4839   22.1204 C.3     1  UNL1        0.0234
      6 C          -5.7669  -19.8815   20.6787 C.3     1  UNL1        0.0230
      7 C          -6.9355  -19.7059   19.7548 C.3     1  UNL1        0.0234
      8 C          -8.2214  -19.1327   20.2725 C.3     1  UNL1        0.0968
      9 O          -9.7419  -17.7644   23.6733 O.3     1  UNL1       -0.4295
     10 C          -9.4991  -16.3415   24.0810 C.3     1  UNL1        0.2367
     11 C          -8.2651  -15.9831   24.8550 C.ar    1  UNL1        0.0213
     12 C          -8.2989  -15.9659   26.3545 C.ar    1  UNL1       -0.0007
     13 C          -7.0650  -15.6076   27.1284 C.ar    1  UNL1       -0.0002
     14 C          -5.7972  -15.2665   26.4028 C.ar    1  UNL1       -0.0000
     15 C          -5.7634  -15.2838   24.9033 C.ar    1  UNL1       -0.0002
     16 C          -6.9974  -15.6421   24.1294 C.ar    1  UNL1       -0.0007
     17 C          -4.4810  -20.4546   20.1611 C.3     1  UNL1        0.0882
     18 N          -3.2182  -20.3025   20.9562 N.pl3   1  UNL1       -0.3181
     19 H          -2.9429  -21.0099   21.5830 H       1  UNL1        0.1482
     20 C          -2.3749  -19.0724   20.7963 C.ar    1  UNL1        0.1285
     21 C          -2.7623  -17.8016   21.4929 C.ar    1  UNL1        0.0341
     22 C          -1.9189  -16.5715   21.3329 C.ar    1  UNL1        0.0045
     23 C          -0.6882  -16.6121   20.4764 C.ar    1  UNL1        0.0208
     24 C          -0.3008  -17.8828   19.7798 C.ar    1  UNL1        0.1003
     25 N          -1.1441  -19.1129   19.9398 N.ar    1  UNL1       -0.2294
@<TRIPOS>BOND
     1     1     2    2
     2     2     9    1
     3     9    10    1
     4    10    11    1
     5    11    12   ar
     6    12    13   ar
     7    13    14   ar
     8    14    15   ar
     9    15    16   ar
    10     2     3   am
    11     3     4    1
    12     4     5    1
    13     5     6    1
    14     6    17    1
    15    17    18    1
    16    18    20    1
    17    20    21   ar
    18    21    22   ar
    19    22    23   ar
    20    23    24   ar
    21    24    25   ar
    22     6     7    1
    23     7     8    1
    24    16    11   ar
    25     8     3    1
    26    25    20   ar
    27    18    19    1
@<TRIPOS>MOLECULE
*****
 25 27 0 0 0
SMALL
GASTEIGER

@<TRIPOS>ATOM
      1 O          -9.3902  -20.4016   18.3013 O.2     1  UNL1       -0.2262
      2 C          -9.0524  -19.3840   19.3503 C.2     1  UNL1        0.4052
      3 N          -7.7865  -19.5166   20.1438 N.am    1  UNL1       -0.2460
      4 C          -7.4487  -18.4990   21.1927 C.3     1  UNL1        0.0968
      5 C          -6.1827  -18.6316   21.9862 C.3     1  UNL1        0.0234
      6 C          -5.2544  -19.7819   21.7307 C.3     1  UNL1        0.0230
      7 C          -5.5922  -20.7995   20.6817 C.3     1  UNL1        0.0234
      8 C          -6.8582  -20.6668   19.8883 C.3     1  UNL1        0.0968
      9 O          -9.9807  -18.2337   19.6058 O.3     1  UNL1       -0.4295
     10 C         -11.3843  -18.4911   20.0680 C.3     1  UNL1        0.2367
     11 C         -11.6936  -18.5412   21.5349 C.ar    1  UNL1        0.0213
     12 C         -12.8918  -17.8176   22.0740 C.ar    1  UNL1       -0.0007
     13 C         -13.2010  -17.8678   23.5409 C.ar    1  UNL1       -0.0002
     14 C         -12.3120  -18.6415   24.4687 C.ar    1  UNL1       -0.0000
     15 C         -11.1138  -19.3651   23.9297 C.ar    1  UNL1       -0.0002
     16 C         -10.8046  -19.3149   22.4628 C.ar    1  UNL1       -0.0007
     17 C          -3.9884  -19.9145   22.5242 C.3     1  UNL1        0.0882
     18 N          -2.6711  -20.0443   21.8186 N.pl3   1  UNL1       -0.3181
     19 H          -2.2794  -20.9348   21.6673 H       1  UNL1        0.1482
     20 C          -1.9507  -18.8175   21.3435 C.ar    1  UNL1        0.1285
     21 C          -2.3471  -17.4669   21.8620 C.ar    1  UNL1        0.0341
     22 C          -1.6266  -16.2400   21.3868 C.ar    1  UNL1        0.0045
     23 C          -0.5098  -16.3637   20.3932 C.ar    1  UNL1        0.0208
     24 C          -0.1134  -17.7143   19.8747 C.ar    1  UNL1        0.1003
     25 N          -0.8338  -18.9411   20.3498 N.ar    1  UNL1       -0.2294
@<TRIPOS>BOND
     1     1     2    2
     2     2     9    1
     3     9    10    1
     4    10    11    1
     5    11    12   ar
     6    12    13   ar
     7    13    14   ar
     8    14    15   ar
     9    15    16   ar
    10     2     3   am
    11     3     4    1
    12     4     5    1
    13     5     6    1
    14     6    17    1
    15    17    18    1
    16    18    20    1
    17    20    21   ar
    18    21    22   ar
    19    22    23   ar
    20    23    24   ar
    21    24    25   ar
    22     6     7    1
    23     7     8    1
    24    16    11   ar
    25     8     3    1
    26    25    20   ar
    27    18    19    1
@<TRIPOS>MOLECULE
*****
 25 27 0 0 0
SMALL
GASTEIGER

@<TRIPOS>ATOM
      1 O          -6.5093  -14.5650   24.8351 O.2     1  UNL1       -0.2262
      2 C          -6.2144  -15.6781   23.8737 C.2     1  UNL1        0.4052
      3 N          -7.2035  -16.7904   23.6880 N.am    1  UNL1       -0.2460
      4 C          -6.9087  -17.9034   22.7267 C.3     1  UNL1        0.0968
      5 C          -7.8977  -19.0157   22.5410 C.3     1  UNL1        0.0234
      6 C          -9.1816  -19.0150   23.3166 C.3     1  UNL1        0.0230
      7 C          -9.4765  -17.9020   24.2780 C.3     1  UNL1        0.0234
      8 C          -8.4873  -16.7896   24.4637 C.3     1  UNL1        0.0968
      9 O          -4.9305  -15.6788   23.0980 O.3     1  UNL1       -0.4295
     10 C          -3.8310  -16.6294   23.4685 C.3     1  UNL1        0.2367
     11 C          -2.9879  -17.2552   22.3971 C.ar    1  UNL1        0.0213
     12 C          -3.0753  -18.7304   22.1400 C.ar    1  UNL1       -0.0007
     13 C          -2.2322  -19.3561   21.0687 C.ar    1  UNL1       -0.0002
     14 C          -1.3018  -18.5066   20.2546 C.ar    1  UNL1       -0.0000
     15 C          -1.2145  -17.0315   20.5118 C.ar    1  UNL1       -0.0002
     16 C          -2.0575  -16.4058   21.5830 C.ar    1  UNL1       -0.0007
     17 C         -10.1707  -20.1273   23.1310 C.3     1  UNL1        0.0882
     18 N         -11.2095  -20.0350   22.0529 N.pl3   1  UNL1       -0.3181
     19 H         -11.7047  -20.8397   21.7762 H       1  UNL1        0.1482
     20 C         -11.4940  -18.7167   21.3964 C.ar    1  UNL1        0.1285
     21 C         -10.8887  -18.3974   20.0616 C.ar    1  UNL1        0.0341
     22 C         -11.1732  -17.0790   19.4051 C.ar    1  UNL1        0.0045
     23 C         -12.0631  -16.0800   20.0834 C.ar    1  UNL1        0.0208
     24 C         -12.6684  -16.3993   21.4181 C.ar    1  UNL1        0.1003
     25 N         -12.3839  -17.7176   22.0746 N.ar    1  UNL1       -0.2294
@<TRIPOS>BOND
     1     1     2    2
     2     2     9    1
     3     9    10    1
     4    10    11    1
     5    11    12   ar
     6    12    13   ar
     7    13    14   ar
     8    14    15   ar
     9    15    16   ar
    10     2     3   am
    11     3     4    1
    12     4     5    1
    13     5     6    1
    14     6    17    1
    15    17    18    1
    16    18    20    1
    17    20    21   ar
    18    21    22   ar
    19    22    23   ar
    20    23    24   ar
    21    24    25   ar
    22     6     7    1
    23     7     8    1
    24    16    11   ar
    25     8     3    1
    26    25    20   ar
    27    18    19    1
@<TRIPOS>MOLECULE
*****
 25 27 0 0 0
SMALL
GASTEIGER

@<TRIPOS>ATOM
      1 O          -5.2551  -15.9493   24.3161 O.2     1  UNL1       -0.2262
      2 C          -5.1152  -17.2908   23.6598 C.2     1  UNL1        0.4052
      3 N          -6.1908  -17.7929   22.7428 N.am    1  UNL1       -0.2460
      4 C          -6.0509  -19.1344   22.0864 C.3     1  UNL1        0.0968
      5 C          -7.1265  -19.6366   21.1695 C.3     1  UNL1        0.0234
      6 C          -8.3421  -18.7973   20.9088 C.3     1  UNL1        0.0230
      7 C          -8.4820  -17.4558   21.5652 C.3     1  UNL1        0.0234
      8 C          -7.4063  -16.9536   22.4822 C.3     1  UNL1        0.0968
      9 O          -3.8996  -18.1301   23.9204 O.3     1  UNL1       -0.4295
     10 C          -2.5963  -17.7875   23.2617 C.3     1  UNL1        0.2367
     11 C          -2.4360  -17.9613   21.7805 C.ar    1  UNL1        0.0213
     12 C          -2.9546  -19.1989   21.1101 C.ar    1  UNL1       -0.0007
     13 C          -2.7943  -19.3727   19.6289 C.ar    1  UNL1       -0.0002
     14 C          -2.1153  -18.3089   18.8180 C.ar    1  UNL1       -0.0000
     15 C          -1.5967  -17.0714   19.4884 C.ar    1  UNL1       -0.0002
     16 C          -1.7570  -16.8976   20.9696 C.ar    1  UNL1       -0.0007
     17 C          -9.4177  -19.2994   19.9919 C.3     1  UNL1        0.0882
     18 N         -10.6616  -19.9148   20.5611 N.pl3   1  UNL1       -0.3181
     19 H         -11.0708  -20.6946   20.1210 H       1  UNL1        0.1482
     20 C         -11.2821  -19.3419   21.8007 C.ar    1  UNL1        0.1285
     21 C         -12.3367  -18.2810   21.6901 C.ar    1  UNL1        0.0341
     22 C         -12.9572  -17.7082   22.9299 C.ar    1  UNL1        0.0045
     23 C         -12.5231  -18.1963   24.2802 C.ar    1  UNL1        0.0208
     24 C         -11.4684  -19.2572   24.3908 C.ar    1  UNL1        0.1003
     25 N         -10.8480  -19.8300   23.1511 N.ar    1  UNL1       -0.2294
@<TRIPOS>BOND
     1     1     2    2
     2     2     9    1
     3     9    10    1
     4    10    11    1
     5    11    12   ar
     6    12    13   ar
     7    13    14   ar
     8    14    15   ar
     9    15    16   ar
    10     2     3   am
    11     3     4    1
    12     4     5    1
    13     5     6    1
    14     6    17    1
    15    17    18    1
    16    18    20    1
    17    20    21   ar
    18    21    22   ar
    19    22    23   ar
    20    23    24   ar
    21    24    25   ar
    22     6     7    1
    23     7     8    1
    24    16    11   ar
    25     8     3    1
    26    25    20   ar
    27    18    19    1
@<TRIPOS>MOLECULE
*****
 25 27 0 0 0
SMALL
GASTEIGER

@<TRIPOS>ATOM
      1 O          -9.0676  -20.8593   18.2397 O.2     1  UNL1       -0.2262
      2 C          -9.1472  -19.8001   19.2988 C.2     1  UNL1        0.4052
      3 N          -7.9492  -19.4988   20.1497 N.am    1  UNL1       -0.2460
      4 C          -8.0288  -18.4396   21.2088 C.3     1  UNL1        0.0968
      5 C          -6.8308  -18.1384   22.0597 C.3     1  UNL1        0.0234
      6 C          -5.5532  -18.8963   21.8515 C.3     1  UNL1        0.0230
      7 C          -5.4737  -19.9556   20.7924 C.3     1  UNL1        0.0234
      8 C          -6.6717  -20.2568   19.9415 C.3     1  UNL1        0.0968
      9 O         -10.4248  -19.0421   19.5070 O.3     1  UNL1       -0.4295
     10 C         -11.3842  -19.4691   20.5780 C.3     1  UNL1        0.2367
     11 C         -11.0370  -19.2612   22.0224 C.ar    1  UNL1        0.0213
     12 C         -11.1793  -17.9016   22.6398 C.ar    1  UNL1       -0.0007
     13 C         -10.8321  -17.6937   24.0841 C.ar    1  UNL1       -0.0002
     14 C         -10.3426  -18.8455   24.9111 C.ar    1  UNL1       -0.0000
     15 C         -10.2003  -20.2051   24.2937 C.ar    1  UNL1       -0.0002
     16 C         -10.5475  -20.4129   22.8494 C.ar    1  UNL1       -0.0007
     17 C          -4.3552  -18.5951   22.7025 C.3     1  UNL1        0.0882
     18 N          -4.0412  -17.1780   23.0807 N.pl3   1  UNL1       -0.3181
     19 H          -3.2261  -16.7458   22.7370 H       1  UNL1        0.1482
     20 C          -4.9689  -16.4192   23.9827 C.ar    1  UNL1        0.1285
     21 C          -4.7355  -16.4125   25.4644 C.ar    1  UNL1        0.0341
     22 C          -5.6634  -15.6537   26.3663 C.ar    1  UNL1        0.0045
     23 C          -6.8246  -14.9018   25.7865 C.ar    1  UNL1        0.0208
     24 C          -7.0580  -14.9085   24.3048 C.ar    1  UNL1        0.1003
     25 N          -6.1302  -15.6673   23.4029 N.ar    1  UNL1       -0.2294
@<TRIPOS>BOND
     1     1     2    2
     2     2     9    1
     3     9    10    1
     4    10    11    1
     5    11    12   ar
     6    12    13   ar
     7    13    14   ar
     8    14    15   ar
     9    15    16   ar
    10     2     3   am
    11     3     4    1
    12     4     5    1
    13     5     6    1
    14     6    17    1
    15    17    18    1
    16    18    20    1
    17    20    21   ar
    18    21    22   ar
    19    22    23   ar
    20    23    24   ar
    21    24    25   ar
    22     6     7    1
    23     7     8    1
    24    16    11   ar
    25     8     3    1
    26    25    20   ar
    27    18    19    1
@<TRIPOS>MOLECULE
*****
 25 27 0 0 0
SMALL
GASTEIGER

@<TRIPOS>ATOM
      1 O           6.9346   -0.1645   16.8922 O.2     1  UNL1       -0.2262
      2 C           6.0794   -1.2036   17.5548 C.2     1  UNL1        0.4052
      3 N           6.6604   -2.0848   18.6205 N.am    1  UNL1       -0.2460
      4 C           5.8053   -3.1239   19.2831 C.3     1  UNL1        0.0968
      5 C           6.3862   -4.0052   20.3488 C.3     1  UNL1        0.0234
      6 C           7.8224   -3.8473   20.7521 C.3     1  UNL1        0.0230
      7 C           8.6776   -2.8082   20.0895 C.3     1  UNL1        0.0234
      8 C           8.0965   -1.9269   19.0237 C.3     1  UNL1        0.0968
      9 O           4.6433   -1.3615   17.1515 O.3     1  UNL1       -0.4295
     10 C           3.7054   -0.1947   17.2451 C.3     1  UNL1        0.2367
     11 C           2.7196   -0.1133   18.3728 C.ar    1  UNL1        0.0213
     12 C           1.5888    0.8702   18.3109 C.ar    1  UNL1       -0.0007
     13 C           0.6030    0.9516   19.4386 C.ar    1  UNL1       -0.0002
     14 C           0.7482    0.0494   20.6281 C.ar    1  UNL1       -0.0000
     15 C           1.8790   -0.9341   20.6900 C.ar    1  UNL1       -0.0002
     16 C           2.8647   -1.0155   19.5623 C.ar    1  UNL1       -0.0007
     17 C           8.4034   -4.7285   21.8179 C.3     1  UNL1        0.0882
     18 N           8.2764   -4.3425   23.2618 N.pl3   1  UNL1       -0.3181
     19 H           8.4198   -3.4079   23.5359 H       1  UNL1        0.1482
     20 C           7.9309   -5.3805   24.2880 C.ar    1  UNL1        0.1285
     21 C           8.4282   -6.7868   24.1293 C.ar    1  UNL1        0.0341
     22 C           8.0827   -7.8248   25.1556 C.ar    1  UNL1        0.0045
     23 C           7.2399   -7.4566   26.3405 C.ar    1  UNL1        0.0208
     24 C           6.7426   -6.0504   26.4992 C.ar    1  UNL1        0.1003
     25 N           7.0881   -5.0124   25.4730 N.ar    1  UNL1       -0.2294
@<TRIPOS>BOND
     1     1     2    2
     2     2     9    1
     3     9    10    1
     4    10    11    1
     5    11    12   ar
     6    12    13   ar
     7    13    14   ar
     8    14    15   ar
     9    15    16   ar
    10     2     3   am
    11     3     4    1
    12     4     5    1
    13     5     6    1
    14     6    17    1
    15    17    18    1
    16    18    20    1
    17    20    21   ar
    18    21    22   ar
    19    22    23   ar
    20    23    24   ar
    21    24    25   ar
    22     6     7    1
    23     7     8    1
    24    16    11   ar
    25     8     3    1
    26    25    20   ar
    27    18    19    1
@<TRIPOS>MOLECULE
*****
 25 27 0 0 0
SMALL
GASTEIGER

@<TRIPOS>ATOM
      1 O           9.4636   -3.7339   20.5899 O.2     1  UNL1       -0.2262
      2 C           8.0014   -3.9861   20.8095 C.2     1  UNL1        0.4052
      3 N           6.9838   -3.2933   19.9524 N.am    1  UNL1       -0.2460
      4 C           5.5216   -3.5454   20.1720 C.3     1  UNL1        0.0968
      5 C           4.5040   -2.8527   19.3150 C.3     1  UNL1        0.0234
      6 C           4.9487   -1.9077   18.2382 C.3     1  UNL1        0.0230
      7 C           6.4110   -1.6556   18.0186 C.3     1  UNL1        0.0234
      8 C           7.4285   -2.3484   18.8757 C.3     1  UNL1        0.0968
      9 O           7.5567   -4.9310   21.8863 O.3     1  UNL1       -0.4295
     10 C           7.6320   -4.5166   23.3259 C.3     1  UNL1        0.2367
     11 C           7.6009   -5.5551   24.4079 C.ar    1  UNL1        0.0213
     12 C           6.9227   -5.2588   25.7126 C.ar    1  UNL1       -0.0007
     13 C           6.8916   -6.2972   26.7945 C.ar    1  UNL1       -0.0002
     14 C           7.5388   -7.6319   26.5718 C.ar    1  UNL1       -0.0000
     15 C           8.2171   -7.9282   25.2672 C.ar    1  UNL1       -0.0002
     16 C           8.2482   -6.8898   24.1853 C.ar    1  UNL1       -0.0007
     17 C           3.9312   -1.2150   17.3811 C.3     1  UNL1        0.0882
     18 N           3.5569    0.2097   17.6644 N.pl3   1  UNL1       -0.3181
     19 H           4.0773    0.9440   17.2655 H       1  UNL1        0.1482
     20 C           2.3897    0.5155   18.5555 C.ar    1  UNL1        0.1285
     21 C           1.8995   -0.5147   19.5294 C.ar    1  UNL1        0.0341
     22 C           0.7323   -0.2088   20.4206 C.ar    1  UNL1        0.0045
     23 C           0.0553    1.1271   20.3378 C.ar    1  UNL1        0.0208
     24 C           0.5455    2.1573   19.3640 C.ar    1  UNL1        0.1003
     25 N           1.7127    1.8515   18.4728 N.ar    1  UNL1       -0.2294
@<TRIPOS>BOND
     1     1     2    2
     2     2     9    1
     3     9    10    1
     4    10    11    1
     5    11    12   ar
     6    12    13   ar
     7    13    14   ar
     8    14    15   ar
     9    15    16   ar
    10     2     3   am
    11     3     4    1
    12     4     5    1
    13     5     6    1
    14     6    17    1
    15    17    18    1
    16    18    20    1
    17    20    21   ar
    18    21    22   ar
    19    22    23   ar
    20    23    24   ar
    21    24    25   ar
    22     6     7    1
    23     7     8    1
    24    16    11   ar
    25     8     3    1
    26    25    20   ar
    27    18    19    1
@<TRIPOS>MOLECULE
*****
 25 27 0 0 0
SMALL
GASTEIGER

@<TRIPOS>ATOM
      1 O           6.9089   -2.3438   17.4992 O.2     1  UNL1       -0.2262
      2 C           5.8611   -2.5361   18.5552 C.2     1  UNL1        0.4052
      3 N           6.2594   -2.9539   19.9397 N.am    1  UNL1       -0.2460
      4 C           5.2116   -3.1462   20.9957 C.3     1  UNL1        0.0968
      5 C           5.6099   -3.5640   22.3801 C.3     1  UNL1        0.0234
      6 C           7.0561   -3.7895   22.7086 C.3     1  UNL1        0.0230
      7 C           8.1039   -3.5972   21.6526 C.3     1  UNL1        0.0234
      8 C           7.7055   -3.1794   20.2681 C.3     1  UNL1        0.0968
      9 O           4.4149   -2.3106   18.2267 O.3     1  UNL1       -0.4295
     10 C           3.9272   -0.9313   17.8960 C.3     1  UNL1        0.2367
     11 C           2.7737   -0.3421   18.6526 C.ar    1  UNL1        0.0213
     12 C           2.2564    1.0187   18.2913 C.ar    1  UNL1       -0.0007
     13 C           1.1029    1.6077   19.0479 C.ar    1  UNL1       -0.0002
     14 C           0.4668    0.8360   20.1658 C.ar    1  UNL1       -0.0000
     15 C           0.9841   -0.5248   20.5272 C.ar    1  UNL1       -0.0002
     16 C           2.1375   -1.1138   19.7706 C.ar    1  UNL1       -0.0007
     17 C           7.4544   -4.2073   24.0931 C.3     1  UNL1        0.0882
     18 N           6.4045   -4.6058   25.0875 N.pl3   1  UNL1       -0.3181
     19 H           5.4510   -4.5195   24.8579 H       1  UNL1        0.1482
     20 C           6.8072   -5.1359   26.4316 C.ar    1  UNL1        0.1285
     21 C           7.5758   -6.4202   26.5318 C.ar    1  UNL1        0.0341
     22 C           7.9785   -6.9503   27.8760 C.ar    1  UNL1        0.0045
     23 C           7.6127   -6.1961   29.1200 C.ar    1  UNL1        0.0208
     24 C           6.8442   -4.9119   29.0198 C.ar    1  UNL1        0.1003
     25 N           6.4414   -4.3818   27.6756 N.ar    1  UNL1       -0.2294
@<TRIPOS>BOND
     1     1     2    2
     2     2     9    1
     3     9    10    1
     4    10    11    1
     5    11    12   ar
     6    12    13   ar
     7    13    14   ar
     8    14    15   ar
     9    15    16   ar
    10     2     3   am
    11     3     4    1
    12     4     5    1
    13     5     6    1
    14     6    17    1
    15    17    18    1
    16    18    20    1
    17    20    21   ar
    18    21    22   ar
    19    22    23   ar
    20    23    24   ar
    21    24    25   ar
    22     6     7    1
    23     7     8    1
    24    16    11   ar
    25     8     3    1
    26    25    20   ar
    27    18    19    1
@<TRIPOS>MOLECULE
*****
 25 27 0 0 0
SMALL
GASTEIGER

@<TRIPOS>ATOM
      1 O          -6.5982  -15.8118   26.4415 O.2     1  UNL1       -0.2262
      2 C          -6.8026  -15.5650   24.9761 C.2     1  UNL1        0.4052
      3 N          -8.0208  -16.1048   24.2874 N.am    1  UNL1       -0.2460
      4 C          -8.2252  -15.8581   22.8220 C.3     1  UNL1        0.0968
      5 C          -9.4435  -16.3979   22.1333 C.3     1  UNL1        0.0234
      6 C         -10.4575  -17.1845   22.9100 C.3     1  UNL1        0.0230
      7 C         -10.2531  -17.4313   24.3754 C.3     1  UNL1        0.0234
      8 C          -9.0347  -16.8914   25.0641 C.3     1  UNL1        0.0968
      9 O          -5.7886  -14.7784   24.1994 O.3     1  UNL1       -0.4295
     10 C          -4.3742  -15.2681   24.1014 C.3     1  UNL1        0.2367
     11 C          -4.0616  -16.5041   23.3110 C.ar    1  UNL1        0.0213
     12 C          -5.0538  -17.6275   23.2517 C.ar    1  UNL1       -0.0007
     13 C          -4.7411  -18.8634   22.4614 C.ar    1  UNL1       -0.0002
     14 C          -3.4362  -18.9759   21.7302 C.ar    1  UNL1       -0.0000
     15 C          -2.4440  -17.8525   21.7895 C.ar    1  UNL1       -0.0002
     16 C          -2.7567  -16.6166   22.5798 C.ar    1  UNL1       -0.0007
     17 C         -11.6758  -17.7243   22.2213 C.3     1  UNL1        0.0882
     18 N         -11.5983  -19.0166   21.4637 N.pl3   1  UNL1       -0.3181
     19 H         -12.3776  -19.6175   21.4343 H       1  UNL1        0.1482
     20 C         -10.3335  -19.3933   20.7507 C.ar    1  UNL1        0.1285
     21 C         -10.3760  -19.7815   19.3024 C.ar    1  UNL1        0.0341
     22 C          -9.1112  -20.1582   18.5894 C.ar    1  UNL1        0.0045
     23 C          -7.8039  -20.1468   19.3248 C.ar    1  UNL1        0.0208
     24 C          -7.7613  -19.7587   20.7731 C.ar    1  UNL1        0.1003
     25 N          -9.0261  -19.3820   21.4860 N.ar    1  UNL1       -0.2294
@<TRIPOS>BOND
     1     1     2    2
     2     2     9    1
     3     9    10    1
     4    10    11    1
     5    11    12   ar
     6    12    13   ar
     7    13    14   ar
     8    14    15   ar
     9    15    16   ar
    10     2     3   am
    11     3     4    1
    12     4     5    1
    13     5     6    1
    14     6    17    1
    15    17    18    1
    16    18    20    1
    17    20    21   ar
    18    21    22   ar
    19    22    23   ar
    20    23    24   ar
    21    24    25   ar
    22     6     7    1
    23     7     8    1
    24    16    11   ar
    25     8     3    1
    26    25    20   ar
    27    18    19    1
