@<TRIPOS>MOLECULE
*****
 35 38 0 0 0
SMALL
GASTEIGER

@<TRIPOS>ATOM
      1 N          -7.5011  -19.2062   21.3814 N.am    1  UNL1       -0.2679
      2 C          -6.2155  -19.9789   21.3689 C.2     1  UNL1        0.2495
      3 O          -6.2389  -21.4713   21.2203 O.2     1  UNL1       -0.2699
      4 C          -4.9065  -19.2591   21.5049 C.ar    1  UNL1        0.0542
      5 C          -4.4642  -18.7541   22.8463 C.ar    1  UNL1        0.0061
      6 C          -3.1552  -18.0343   22.9823 C.ar    1  UNL1        0.0198
      7 C          -2.2886  -17.8197   21.7769 C.ar    1  UNL1        0.0892
      8 N          -0.9572  -17.1505   21.6043 N.ar    1  UNL1       -0.2245
      9 C          -0.5767  -17.2420   20.1563 C.ar    1  UNL1        0.1567
     10 N           0.6794  -16.7025   19.5388 N.pl3   1  UNL1       -0.3375
     11 S          -1.6729  -17.9677   19.4340 S.2     1  UNL1       -0.0520
     12 C          -2.7309  -18.3247   20.4356 C.ar    1  UNL1        0.0498
     13 C          -4.0399  -19.0444   20.2996 C.ar    1  UNL1        0.0126
     14 H           1.3431  -16.2384   20.0987 H       1  UNL1        0.1442
     15 H           0.8402  -16.8125   18.5738 H       1  UNL1        0.1442
     16 C          -8.8102  -19.9260   21.2453 C.3     1  UNL1        0.1209
     17 C         -12.5400  -18.1733   23.0526 C.ar    1  UNL1        0.1724
     18 C         -11.7262  -19.1666   23.8280 C.ar    1  UNL1        0.0398
     19 C         -10.4829  -19.7508   23.2256 C.ar    1  UNL1        0.0007
     20 C         -10.0534  -19.3418   21.8478 C.ar    1  UNL1        0.0009
     21 C         -10.8672  -18.3485   21.0725 C.ar    1  UNL1        0.0374
     22 C         -12.1105  -17.7642   21.6749 C.ar    1  UNL1        0.1721
     23 C         -14.4823  -18.3039   24.7731 C.3     1  UNL1        0.2526
     24 O         -13.7833  -17.5890   23.6551 O.3     1  UNL1       -0.4684
     25 O         -12.9243  -16.7709   20.8996 O.3     1  UNL1       -0.4684
     26 C         -12.2750  -15.9378   19.8345 C.3     1  UNL1        0.2526
     27 C          -7.4778  -17.7138   21.5299 C.3     1  UNL1        0.1208
     28 C          -7.5655  -17.0943   22.8933 C.ar    1  UNL1       -0.0014
     29 C          -8.8622  -17.1200   23.6468 C.ar    1  UNL1       -0.0017
     30 C          -8.9498  -16.5006   25.0100 C.ar    1  UNL1        0.0120
     31 C          -7.7407  -15.8554   25.6198 C.ar    1  UNL1        0.0682
     32 CL         -7.8284  -15.2360   26.9832 Cl      1  UNL1       -0.0814
     33 C          -6.4440  -15.8297   24.8664 C.ar    1  UNL1        0.0679
     34 CL         -5.2349  -15.1846   25.4762 Cl      1  UNL1       -0.0814
     35 C          -6.3563  -16.4492   23.5031 C.ar    1  UNL1        0.0096
@<TRIPOS>BOND
     1    23    24    1
     2    24    17    1
     3    17    18   ar
     4    18    19   ar
     5    19    20   ar
     6    20    16    1
     7    16     1    1
     8     1    27    1
     9    27    28    1
    10    28    29   ar
    11    29    30   ar
    12    30    31   ar
    13    31    32    1
    14    31    33   ar
    15    33    34    1
    16    33    35   ar
    17     1     2   am
    18     2     3    2
    19     2     4    1
    20     4     5   ar
    21     5     6   ar
    22     6     7   ar
    23     7     8   ar
    24     8     9   ar
    25     9    10    1
    26     9    11   ar
    27    11    12   ar
    28    12    13   ar
    29    20    21   ar
    30    21    22   ar
    31    22    25    1
    32    25    26    1
    33    22    17   ar
    34    35    28   ar
    35    13     4   ar
    36    12     7   ar
    37    10    14    1
    38    10    15    1
@<TRIPOS>MOLECULE
*****
 35 38 0 0 0
SMALL
GASTEIGER

@<TRIPOS>ATOM
      1 N          -6.0278  -18.5098   22.4070 N.am    1  UNL1       -0.2679
      2 C          -7.0624  -19.5766   22.2034 C.2     1  UNL1        0.2495
      3 O          -6.6440  -21.0105   22.0655 O.2     1  UNL1       -0.2699
      4 C          -8.5153  -19.2096   22.1376 C.ar    1  UNL1        0.0542
      5 C          -9.1535  -18.9077   20.8142 C.ar    1  UNL1        0.0061
      6 C         -10.6064  -18.5407   20.7485 C.ar    1  UNL1        0.0198
      7 C         -11.4211  -18.4756   22.0062 C.ar    1  UNL1        0.0892
      8 N         -12.8635  -18.1450   22.2518 N.ar    1  UNL1       -0.2245
      9 C         -13.1168  -18.2425   23.7270 C.ar    1  UNL1        0.1567
     10 N         -14.4260  -17.9930   24.4153 N.pl3   1  UNL1       -0.3375
     11 S         -11.8309  -18.6333   24.3932 S.2     1  UNL1       -0.0520
     12 C         -10.7830  -18.7774   23.3297 C.ar    1  UNL1        0.0498
     13 C          -9.3301  -19.1444   23.3954 C.ar    1  UNL1        0.0126
     14 H         -15.2184  -17.7395   23.8889 H       1  UNL1        0.1442
     15 H         -14.4929  -18.0827   25.3934 H       1  UNL1        0.1442
     16 C          -4.5748  -18.8768   22.4727 C.3     1  UNL1        0.1209
     17 C          -1.9021  -18.1259   18.9312 C.ar    1  UNL1        0.1724
     18 C          -3.1588  -18.9280   18.7657 C.ar    1  UNL1        0.0398
     19 C          -4.0497  -19.1783   19.9462 C.ar    1  UNL1        0.0007
     20 C          -3.6839  -18.6265   21.2922 C.ar    1  UNL1        0.0009
     21 C          -2.4272  -17.8244   21.4577 C.ar    1  UNL1        0.0374
     22 C          -1.5363  -17.5741   20.2772 C.ar    1  UNL1        0.1721
     23 C          -1.5955  -17.8087   16.3709 C.3     1  UNL1        0.2526
     24 O          -1.0111  -17.8756   17.7507 O.3     1  UNL1       -0.4684
     25 O          -0.2797  -16.7720   20.4427 O.3     1  UNL1       -0.4684
     26 C           1.0574  -17.4469   20.3585 C.3     1  UNL1        0.2526
     27 C          -6.4461  -17.0759   22.5449 C.3     1  UNL1        0.1208
     28 C          -6.4365  -16.4181   23.8930 C.ar    1  UNL1       -0.0014
     29 C          -5.1382  -15.9855   24.5071 C.ar    1  UNL1       -0.0017
     30 C          -5.1286  -15.3278   25.8552 C.ar    1  UNL1        0.0120
     31 C          -6.4173  -15.1027   26.5891 C.ar    1  UNL1        0.0682
     32 CL         -6.4077  -14.4449   27.9372 Cl      1  UNL1       -0.0814
     33 C          -7.7156  -15.5353   25.9749 C.ar    1  UNL1        0.0679
     34 CL         -9.0043  -15.3103   26.7088 Cl      1  UNL1       -0.0814
     35 C          -7.7252  -16.1930   24.6269 C.ar    1  UNL1        0.0096
@<TRIPOS>BOND
     1    23    24    1
     2    24    17    1
     3    17    18   ar
     4    18    19   ar
     5    19    20   ar
     6    20    16    1
     7    16     1    1
     8     1    27    1
     9    27    28    1
    10    28    29   ar
    11    29    30   ar
    12    30    31   ar
    13    31    32    1
    14    31    33   ar
    15    33    34    1
    16    33    35   ar
    17     1     2   am
    18     2     3    2
    19     2     4    1
    20     4     5   ar
    21     5     6   ar
    22     6     7   ar
    23     7     8   ar
    24     8     9   ar
    25     9    10    1
    26     9    11   ar
    27    11    12   ar
    28    12    13   ar
    29    20    21   ar
    30    21    22   ar
    31    22    25    1
    32    25    26    1
    33    22    17   ar
    34    35    28   ar
    35    13     4   ar
    36    12     7   ar
    37    10    14    1
    38    10    15    1
@<TRIPOS>MOLECULE
*****
 35 38 0 0 0
SMALL
GASTEIGER

@<TRIPOS>ATOM
      1 N          -7.4462  -19.9357   20.6640 N.am    1  UNL1       -0.2679
      2 C          -8.7012  -19.5644   19.9311 C.2     1  UNL1        0.2495
      3 O          -8.7824  -19.7439   18.4441 O.2     1  UNL1       -0.2699
      4 C          -9.8751  -19.0135   20.6853 C.ar    1  UNL1        0.0542
      5 C         -10.7294  -17.9463   20.0679 C.ar    1  UNL1        0.0061
      6 C         -11.9031  -17.3955   20.8221 C.ar    1  UNL1        0.0198
      7 C         -12.2226  -17.9119   22.1937 C.ar    1  UNL1        0.0892
      8 N         -13.3066  -17.5631   23.1702 N.ar    1  UNL1       -0.2245
      9 C         -13.1222  -18.4148   24.3911 C.ar    1  UNL1        0.1567
     10 N         -13.9843  -18.3949   25.6184 N.pl3   1  UNL1       -0.3375
     11 S         -11.9243  -19.2899   24.1691 S.2     1  UNL1       -0.0520
     12 C         -11.3683  -18.9791   22.8111 C.ar    1  UNL1        0.0498
     13 C         -10.1945  -19.5299   22.0569 C.ar    1  UNL1        0.0126
     14 H         -14.7529  -17.7818   25.6703 H       1  UNL1        0.1442
     15 H         -13.7816  -18.9950   26.3721 H       1  UNL1        0.1442
     16 C          -6.2724  -20.4866   19.9098 C.3     1  UNL1        0.1209
     17 C          -2.1591  -18.7987   20.6040 C.ar    1  UNL1        0.1724
     18 C          -2.5672  -20.0785   21.2718 C.ar    1  UNL1        0.0398
     19 C          -3.9383  -20.6411   21.0404 C.ar    1  UNL1        0.0007
     20 C          -4.9013  -19.9240   20.1412 C.ar    1  UNL1        0.0009
     21 C          -4.4932  -18.6443   19.4735 C.ar    1  UNL1        0.0374
     22 C          -3.1221  -18.0817   19.7049 C.ar    1  UNL1        0.1721
     23 C           0.1527  -18.0542   19.6813 C.3     1  UNL1        0.2526
     24 O          -0.7880  -18.2361   20.8354 O.3     1  UNL1       -0.4684
     25 O          -2.7139  -16.8021   19.0371 O.3     1  UNL1       -0.4684
     26 C          -2.8460  -16.6568   17.5500 C.3     1  UNL1        0.2526
     27 C          -7.3650  -19.7562   22.1510 C.3     1  UNL1        0.1208
     28 C          -6.7924  -18.4937   22.7238 C.ar    1  UNL1       -0.0014
     29 C          -5.3093  -18.3553   22.9003 C.ar    1  UNL1       -0.0017
     30 C          -4.7367  -17.0928   23.4731 C.ar    1  UNL1        0.0120
     31 C          -5.6473  -15.9686   23.8695 C.ar    1  UNL1        0.0682
     32 CL         -5.0746  -14.7061   24.4424 Cl      1  UNL1       -0.0814
     33 C          -7.1304  -16.1070   23.6931 C.ar    1  UNL1        0.0679
     34 CL         -8.0409  -14.9828   24.0895 Cl      1  UNL1       -0.0814
     35 C          -7.7029  -17.3695   23.1202 C.ar    1  UNL1        0.0096
@<TRIPOS>BOND
     1    23    24    1
     2    24    17    1
     3    17    18   ar
     4    18    19   ar
     5    19    20   ar
     6    20    16    1
     7    16     1    1
     8     1    27    1
     9    27    28    1
    10    28    29   ar
    11    29    30   ar
    12    30    31   ar
    13    31    32    1
    14    31    33   ar
    15    33    34    1
    16    33    35   ar
    17     1     2   am
    18     2     3    2
    19     2     4    1
    20     4     5   ar
    21     5     6   ar
    22     6     7   ar
    23     7     8   ar
    24     8     9   ar
    25     9    10    1
    26     9    11   ar
    27    11    12   ar
    28    12    13   ar
    29    20    21   ar
    30    21    22   ar
    31    22    25    1
    32    25    26    1
    33    22    17   ar
    34    35    28   ar
    35    13     4   ar
    36    12     7   ar
    37    10    14    1
    38    10    15    1
@<TRIPOS>MOLECULE
*****
 35 38 0 0 0
SMALL
GASTEIGER

@<TRIPOS>ATOM
      1 N         -15.2718   -4.8451   19.7572 N.am    1  UNL1       -0.2679
      2 C         -16.7520   -4.8672   19.5156 C.2     1  UNL1        0.2495
      3 O         -17.6154   -3.7622   20.0479 O.2     1  UNL1       -0.2699
      4 C         -17.3689   -5.9944   18.7416 C.ar    1  UNL1        0.0542
      5 C         -17.3611   -5.9670   17.2419 C.ar    1  UNL1        0.0061
      6 C         -17.9779   -7.0942   16.4680 C.ar    1  UNL1        0.0198
      7 C         -18.6026   -8.2487   17.1938 C.ar    1  UNL1        0.0892
      8 N         -19.2819   -9.4932   16.7039 N.ar    1  UNL1       -0.2245
      9 C         -19.7095  -10.2897   17.9008 C.ar    1  UNL1        0.1567
     10 N         -20.4263  -11.6071   17.8731 N.pl3   1  UNL1       -0.3375
     11 S         -19.2945   -9.5375   19.1305 S.2     1  UNL1       -0.0520
     12 C         -18.6104   -8.2761   18.6935 C.ar    1  UNL1        0.0498
     13 C         -17.9935   -7.1490   19.4674 C.ar    1  UNL1        0.0126
     14 H         -20.6571  -12.0238   17.0115 H       1  UNL1        0.1442
     15 H         -20.6660  -12.0549   18.7164 H       1  UNL1        0.1442
     16 C         -14.6549   -3.7179   20.5312 C.3     1  UNL1        0.1209
     17 C         -13.0498   -0.1149   18.3651 C.ar    1  UNL1        0.1724
     18 C         -12.1114   -1.1855   18.8377 C.ar    1  UNL1        0.0398
     19 C         -12.6465   -2.3865   19.5597 C.ar    1  UNL1        0.0007
     20 C         -14.1199   -2.5169   19.8091 C.ar    1  UNL1        0.0009
     21 C         -15.0582   -1.4463   19.3365 C.ar    1  UNL1        0.0374
     22 C         -14.5232   -0.2453   18.6145 C.ar    1  UNL1        0.1721
     23 C         -12.2165    1.0075   16.1752 C.3     1  UNL1        0.2526
     24 O         -12.5148    1.0862   17.6431 O.3     1  UNL1       -0.4684
     25 O         -15.4614    0.8253   18.1419 O.3     1  UNL1       -0.4684
     26 C         -15.9912    0.7925   16.7389 C.3     1  UNL1        0.2526
     27 C         -14.4084   -5.9501   19.2249 C.3     1  UNL1        0.1208
     28 C         -13.0967   -5.6288   18.5719 C.ar    1  UNL1       -0.0014
     29 C         -13.0703   -5.0236   17.1997 C.ar    1  UNL1       -0.0017
     30 C         -11.7587   -4.7023   16.5468 C.ar    1  UNL1        0.0120
     31 C         -10.4734   -4.9861   17.2661 C.ar    1  UNL1        0.0682
     32 CL         -9.1617   -4.6648   16.6132 Cl      1  UNL1       -0.0814
     33 C         -10.4997   -5.5913   18.6384 C.ar    1  UNL1        0.0679
     34 CL         -9.2144   -5.8751   19.3577 Cl      1  UNL1       -0.0814
     35 C         -11.8114   -5.9126   19.2912 C.ar    1  UNL1        0.0096
@<TRIPOS>BOND
     1    23    24    1
     2    24    17    1
     3    17    18   ar
     4    18    19   ar
     5    19    20   ar
     6    20    16    1
     7    16     1    1
     8     1    27    1
     9    27    28    1
    10    28    29   ar
    11    29    30   ar
    12    30    31   ar
    13    31    32    1
    14    31    33   ar
    15    33    34    1
    16    33    35   ar
    17     1     2   am
    18     2     3    2
    19     2     4    1
    20     4     5   ar
    21     5     6   ar
    22     6     7   ar
    23     7     8   ar
    24     8     9   ar
    25     9    10    1
    26     9    11   ar
    27    11    12   ar
    28    12    13   ar
    29    20    21   ar
    30    21    22   ar
    31    22    25    1
    32    25    26    1
    33    22    17   ar
    34    35    28   ar
    35    13     4   ar
    36    12     7   ar
    37    10    14    1
    38    10    15    1
@<TRIPOS>MOLECULE
*****
 35 38 0 0 0
SMALL
GASTEIGER

@<TRIPOS>ATOM
      1 N          -7.2395  -18.9413   22.3752 N.am    1  UNL1       -0.2679
      2 C          -6.1256  -19.9186   22.1429 C.2     1  UNL1        0.2495
      3 O          -6.4007  -21.3926   22.1822 O.2     1  UNL1       -0.2699
      4 C          -4.7365  -19.4219   21.8713 C.ar    1  UNL1        0.0542
      5 C          -3.8126  -19.1166   23.0129 C.ar    1  UNL1        0.0061
      6 C          -2.4236  -18.6199   22.7413 C.ar    1  UNL1        0.0198
      7 C          -1.9584  -18.4285   21.3281 C.ar    1  UNL1        0.0892
      8 N          -0.6547  -17.9563   20.7558 N.ar    1  UNL1       -0.2245
      9 C          -0.7729  -17.9699   19.2606 C.ar    1  UNL1        0.1567
     10 N           0.2977  -17.5726   18.2878 N.pl3   1  UNL1       -0.3375
     11 S          -2.1496  -18.4504   18.9088 S.2     1  UNL1       -0.0520
     12 C          -2.8823  -18.7338   20.1866 C.ar    1  UNL1        0.0498
     13 C          -4.2713  -19.2305   20.4582 C.ar    1  UNL1        0.0126
     14 H           1.1742  -17.2687   18.6174 H       1  UNL1        0.1442
     15 H           0.1238  -17.6158   17.3197 H       1  UNL1        0.1442
     16 C          -8.6287  -19.4380   22.6468 C.3     1  UNL1        0.1209
     17 C         -12.1755  -17.2202   20.9883 C.ar    1  UNL1        0.1724
     18 C         -11.0825  -17.6807   20.0699 C.ar    1  UNL1        0.0398
     19 C          -9.9002  -18.4199   20.6227 C.ar    1  UNL1        0.0007
     20 C          -9.8110  -18.6987   22.0939 C.ar    1  UNL1        0.0009
     21 C         -10.9039  -18.2382   23.0122 C.ar    1  UNL1        0.0374
     22 C         -12.0862  -17.4990   22.4594 C.ar    1  UNL1        0.1721
     23 C         -13.1599  -15.4267   19.3868 C.3     1  UNL1        0.2526
     24 O         -13.3578  -16.4809   20.4354 O.3     1  UNL1       -0.4684
     25 O         -13.1792  -17.0385   23.3776 O.3     1  UNL1       -0.4684
     26 C         -13.9989  -18.0436   24.1312 C.3     1  UNL1        0.2526
     27 C          -6.9644  -17.4673   22.3360 C.3     1  UNL1        0.1208
     28 C          -6.7632  -16.7076   23.6137 C.ar    1  UNL1       -0.0014
     29 C          -5.4022  -16.1878   23.9708 C.ar    1  UNL1       -0.0017
     30 C          -5.2010  -15.4282   25.2484 C.ar    1  UNL1        0.0120
     31 C          -6.3608  -15.1884   26.1690 C.ar    1  UNL1        0.0682
     32 CL         -6.1595  -14.4287   27.4467 Cl      1  UNL1       -0.0814
     33 C          -7.7217  -15.7082   25.8119 C.ar    1  UNL1        0.0679
     34 CL         -8.8815  -15.4683   26.7325 Cl      1  UNL1       -0.0814
     35 C          -7.9229  -16.4678   24.5343 C.ar    1  UNL1        0.0096
@<TRIPOS>BOND
     1    23    24    1
     2    24    17    1
     3    17    18   ar
     4    18    19   ar
     5    19    20   ar
     6    20    16    1
     7    16     1    1
     8     1    27    1
     9    27    28    1
    10    28    29   ar
    11    29    30   ar
    12    30    31   ar
    13    31    32    1
    14    31    33   ar
    15    33    34    1
    16    33    35   ar
    17     1     2   am
    18     2     3    2
    19     2     4    1
    20     4     5   ar
    21     5     6   ar
    22     6     7   ar
    23     7     8   ar
    24     8     9   ar
    25     9    10    1
    26     9    11   ar
    27    11    12   ar
    28    12    13   ar
    29    20    21   ar
    30    21    22   ar
    31    22    25    1
    32    25    26    1
    33    22    17   ar
    34    35    28   ar
    35    13     4   ar
    36    12     7   ar
    37    10    14    1
    38    10    15    1
@<TRIPOS>MOLECULE
*****
 35 38 0 0 0
SMALL
GASTEIGER

@<TRIPOS>ATOM
      1 N         -16.5221   -3.4577   19.4963 N.am    1  UNL1       -0.2679
      2 C         -17.2064   -4.2666   18.4346 C.2     1  UNL1        0.2495
      3 O         -18.2714   -3.6400   17.5842 O.2     1  UNL1       -0.2699
      4 C         -16.8257   -5.7020   18.2231 C.ar    1  UNL1        0.0542
      5 C         -15.7867   -6.0598   17.2021 C.ar    1  UNL1        0.0061
      6 C         -15.4061   -7.4952   16.9907 C.ar    1  UNL1        0.0198
      7 C         -16.0644   -8.5728   17.8003 C.ar    1  UNL1        0.0892
      8 N         -15.8957  -10.0633   17.8132 N.ar    1  UNL1       -0.2245
      9 C         -16.8305  -10.6266   18.8422 C.ar    1  UNL1        0.1567
     10 N         -16.9908  -12.0775   19.1876 N.pl3   1  UNL1       -0.3375
     11 S         -17.5768   -9.4843   19.4652 S.2     1  UNL1       -0.0520
     12 C         -17.1034   -8.2150   18.8213 C.ar    1  UNL1        0.0498
     13 C         -17.4840   -6.7796   19.0327 C.ar    1  UNL1        0.0126
     14 H         -16.4529  -12.7570   18.7206 H       1  UNL1        0.1442
     15 H         -17.6340  -12.3502   19.8813 H       1  UNL1        0.1442
     16 C         -16.9028   -2.0223   19.7078 C.3     1  UNL1        0.1209
     17 C         -14.7374    1.2317   17.4778 C.ar    1  UNL1        0.1724
     18 C         -15.0635   -0.0605   16.7891 C.ar    1  UNL1        0.0398
     19 C         -15.7853   -1.1451   17.5325 C.ar    1  UNL1        0.0007
     20 C         -16.1810   -0.9376   18.9645 C.ar    1  UNL1        0.0009
     21 C         -15.8549    0.3544   19.6530 C.ar    1  UNL1        0.0374
     22 C         -15.1331    1.4391   18.9097 C.ar    1  UNL1        0.1721
     23 C         -12.5199    2.2845   16.6270 C.3     1  UNL1        0.2526
     24 O         -14.0156    2.3163   16.7344 O.3     1  UNL1       -0.4684
     25 O         -14.8070    2.7312   19.5982 O.3     1  UNL1       -0.4684
     26 C         -15.6981    3.9240   19.4157 C.3     1  UNL1        0.2526
     27 C         -15.4570   -4.0843   20.3467 C.3     1  UNL1        0.1208
     28 C         -14.0364   -4.1173   19.8661 C.ar    1  UNL1       -0.0014
     29 C         -13.2999   -2.8351   19.6142 C.ar    1  UNL1       -0.0017
     30 C         -11.8794   -2.8682   19.1336 C.ar    1  UNL1        0.0120
     31 C         -11.1954   -4.1835   18.9050 C.ar    1  UNL1        0.0682
     32 CL         -9.7748   -4.2165   18.4244 Cl      1  UNL1       -0.0814
     33 C         -11.9319   -5.4656   19.1570 C.ar    1  UNL1        0.0679
     34 CL        -11.2479   -6.7809   18.9283 Cl      1  UNL1       -0.0814
     35 C         -13.3524   -5.4326   19.6375 C.ar    1  UNL1        0.0096
@<TRIPOS>BOND
     1    23    24    1
     2    24    17    1
     3    17    18   ar
     4    18    19   ar
     5    19    20   ar
     6    20    16    1
     7    16     1    1
     8     1    27    1
     9    27    28    1
    10    28    29   ar
    11    29    30   ar
    12    30    31   ar
    13    31    32    1
    14    31    33   ar
    15    33    34    1
    16    33    35   ar
    17     1     2   am
    18     2     3    2
    19     2     4    1
    20     4     5   ar
    21     5     6   ar
    22     6     7   ar
    23     7     8   ar
    24     8     9   ar
    25     9    10    1
    26     9    11   ar
    27    11    12   ar
    28    12    13   ar
    29    20    21   ar
    30    21    22   ar
    31    22    25    1
    32    25    26    1
    33    22    17   ar
    34    35    28   ar
    35    13     4   ar
    36    12     7   ar
    37    10    14    1
    38    10    15    1
@<TRIPOS>MOLECULE
*****
 35 38 0 0 0
SMALL
GASTEIGER

@<TRIPOS>ATOM
      1 N         -16.4937   -3.2809   19.6277 N.am    1  UNL1       -0.2679
      2 C         -17.1731   -4.0353   18.5235 C.2     1  UNL1        0.2495
      3 O         -18.2033   -3.3535   17.6727 O.2     1  UNL1       -0.2699
      4 C         -16.8222   -5.4715   18.2700 C.ar    1  UNL1        0.0542
      5 C         -15.8522   -5.8259   17.1822 C.ar    1  UNL1        0.0061
      6 C         -15.5014   -7.2621   16.9287 C.ar    1  UNL1        0.0198
      7 C         -16.1207   -8.3439   17.7631 C.ar    1  UNL1        0.0892
      8 N         -15.9684   -9.8361   17.7458 N.ar    1  UNL1       -0.2245
      9 C         -16.8443  -10.4039   18.8230 C.ar    1  UNL1        0.1567
     10 N         -16.9994  -11.8577   19.1584 N.pl3   1  UNL1       -0.3375
     11 S         -17.5380   -9.2626   19.5059 S.2     1  UNL1       -0.0520
     12 C         -17.0908   -7.9895   18.8508 C.ar    1  UNL1        0.0498
     13 C         -17.4416   -6.5533   19.1043 C.ar    1  UNL1        0.0126
     14 H         -16.4989  -12.5363   18.6501 H       1  UNL1        0.1442
     15 H         -17.6017  -12.1333   19.8867 H       1  UNL1        0.1442
     16 C         -16.8445   -1.8446   19.8812 C.3     1  UNL1        0.1209
     17 C         -14.4939    1.4319   17.8839 C.ar    1  UNL1        0.1724
     18 C         -15.2199    1.7053   19.1678 C.ar    1  UNL1        0.0398
     19 C         -16.0034    0.6131   19.8335 C.ar    1  UNL1        0.0007
     20 C         -16.0609   -0.7525   19.2154 C.ar    1  UNL1        0.0009
     21 C         -15.3350   -1.0258   17.9316 C.ar    1  UNL1        0.0374
     22 C         -14.5515    0.0664   17.2658 C.ar    1  UNL1        0.1721
     23 C         -14.3728    3.8292   16.8897 C.3     1  UNL1        0.2526
     24 O         -13.7103    2.5241   17.2181 O.3     1  UNL1       -0.4684
     25 O         -13.8255   -0.2069   15.9820 O.3     1  UNL1       -0.4684
     26 C         -12.3602   -0.5272   16.0025 C.3     1  UNL1        0.2526
     27 C         -15.4634   -3.9627   20.4784 C.3     1  UNL1        0.1208
     28 C         -14.0629   -4.1324   19.9687 C.ar    1  UNL1       -0.0014
     29 C         -13.5116   -5.5076   19.7341 C.ar    1  UNL1       -0.0017
     30 C         -12.1112   -5.6773   19.2244 C.ar    1  UNL1        0.0120
     31 C         -11.2619   -4.4718   18.9493 C.ar    1  UNL1        0.0682
     32 CL         -9.8614   -4.6416   18.4396 Cl      1  UNL1       -0.0814
     33 C         -11.8131   -3.0967   19.1840 C.ar    1  UNL1        0.0679
     34 CL        -10.9639   -1.8912   18.9089 Cl      1  UNL1       -0.0814
     35 C         -13.2136   -2.9270   19.6936 C.ar    1  UNL1        0.0096
@<TRIPOS>BOND
     1    23    24    1
     2    24    17    1
     3    17    18   ar
     4    18    19   ar
     5    19    20   ar
     6    20    16    1
     7    16     1    1
     8     1    27    1
     9    27    28    1
    10    28    29   ar
    11    29    30   ar
    12    30    31   ar
    13    31    32    1
    14    31    33   ar
    15    33    34    1
    16    33    35   ar
    17     1     2   am
    18     2     3    2
    19     2     4    1
    20     4     5   ar
    21     5     6   ar
    22     6     7   ar
    23     7     8   ar
    24     8     9   ar
    25     9    10    1
    26     9    11   ar
    27    11    12   ar
    28    12    13   ar
    29    20    21   ar
    30    21    22   ar
    31    22    25    1
    32    25    26    1
    33    22    17   ar
    34    35    28   ar
    35    13     4   ar
    36    12     7   ar
    37    10    14    1
    38    10    15    1
@<TRIPOS>MOLECULE
*****
 35 38 0 0 0
SMALL
GASTEIGER

@<TRIPOS>ATOM
      1 N          -6.0750  -18.7831   22.4405 N.am    1  UNL1       -0.2679
      2 C          -7.1992  -19.7655   22.2958 C.2     1  UNL1        0.2495
      3 O          -6.9111  -21.2375   22.2775 O.2     1  UNL1       -0.2699
      4 C          -8.6115  -19.2760   22.1695 C.ar    1  UNL1        0.0542
      5 C          -9.1053  -18.7411   20.8580 C.ar    1  UNL1        0.0061
      6 C         -10.5175  -18.2517   20.7317 C.ar    1  UNL1        0.0198
      7 C         -11.4359  -18.2971   21.9168 C.ar    1  UNL1        0.0892
      8 N         -12.8683  -17.8879   22.0929 N.ar    1  UNL1       -0.2245
      9 C         -13.2597  -18.1700   23.5132 C.ar    1  UNL1        0.1567
     10 N         -14.6053  -17.9136   24.1245 N.pl3   1  UNL1       -0.3375
     11 S         -12.0692  -18.7535   24.2149 S.2     1  UNL1       -0.0520
     12 C         -10.9421  -18.8320   23.2283 C.ar    1  UNL1        0.0498
     13 C          -9.5298  -19.3215   23.3546 C.ar    1  UNL1        0.0126
     14 H         -15.3276  -17.5255   23.5797 H       1  UNL1        0.1442
     15 H         -14.7661  -18.1336   25.0705 H       1  UNL1        0.1442
     16 C          -4.6627  -19.2726   22.5669 C.3     1  UNL1        0.1209
     17 C          -1.3121  -17.0105   20.5905 C.ar    1  UNL1        0.1724
     18 C          -1.6793  -16.7144   22.0144 C.ar    1  UNL1        0.0398
     19 C          -2.7962  -17.4684   22.6732 C.ar    1  UNL1        0.0007
     20 C          -3.5458  -18.5186   21.9081 C.ar    1  UNL1        0.0009
     21 C          -3.1785  -18.8147   20.4843 C.ar    1  UNL1        0.0374
     22 C          -2.0617  -18.0606   19.8255 C.ar    1  UNL1        0.1721
     23 C           1.1713  -16.8682   19.8406 C.3     1  UNL1        0.2526
     24 O          -0.1952  -16.2565   19.9317 O.3     1  UNL1       -0.4684
     25 O          -1.6944  -18.3567   18.4016 O.3     1  UNL1       -0.4684
     26 C          -2.1303  -17.4293   17.3062 C.3     1  UNL1        0.2526
     27 C          -6.3630  -17.3111   22.4589 C.3     1  UNL1        0.1208
     28 C          -6.8842  -16.6644   23.7080 C.ar    1  UNL1       -0.0014
     29 C          -8.3590  -16.6384   23.9799 C.ar    1  UNL1       -0.0017
     30 C          -8.8801  -15.9917   25.2289 C.ar    1  UNL1        0.0120
     31 C          -7.9263  -15.3709   26.2061 C.ar    1  UNL1        0.0682
     32 CL         -8.4474  -14.7242   27.4552 Cl      1  UNL1       -0.0814
     33 C          -6.4514  -15.3969   25.9342 C.ar    1  UNL1        0.0679
     34 CL         -5.4975  -14.7761   26.9114 Cl      1  UNL1       -0.0814
     35 C          -5.9303  -16.0436   24.6852 C.ar    1  UNL1        0.0096
@<TRIPOS>BOND
     1    23    24    1
     2    24    17    1
     3    17    18   ar
     4    18    19   ar
     5    19    20   ar
     6    20    16    1
     7    16     1    1
     8     1    27    1
     9    27    28    1
    10    28    29   ar
    11    29    30   ar
    12    30    31   ar
    13    31    32    1
    14    31    33   ar
    15    33    34    1
    16    33    35   ar
    17     1     2   am
    18     2     3    2
    19     2     4    1
    20     4     5   ar
    21     5     6   ar
    22     6     7   ar
    23     7     8   ar
    24     8     9   ar
    25     9    10    1
    26     9    11   ar
    27    11    12   ar
    28    12    13   ar
    29    20    21   ar
    30    21    22   ar
    31    22    25    1
    32    25    26    1
    33    22    17   ar
    34    35    28   ar
    35    13     4   ar
    36    12     7   ar
    37    10    14    1
    38    10    15    1
@<TRIPOS>MOLECULE
*****
 35 38 0 0 0
SMALL
GASTEIGER

@<TRIPOS>ATOM
      1 N           5.2265    0.4726   33.4611 N.am    1  UNL1       -0.2679
      2 C           6.5144   -0.0116   32.8640 C.2     1  UNL1        0.2495
      3 O           7.7840    0.7519   33.0992 O.2     1  UNL1       -0.2699
      4 C           6.5329   -1.2593   32.0315 C.ar    1  UNL1        0.0542
      5 C           6.6905   -2.5978   32.6898 C.ar    1  UNL1        0.0061
      6 C           6.7089   -3.8454   31.8573 C.ar    1  UNL1        0.0198
      7 C           6.5698   -3.7545   30.3666 C.ar    1  UNL1        0.0892
      8 N           6.5522   -4.8034   29.2943 N.ar    1  UNL1       -0.2245
      9 C           6.3838   -4.1130   27.9733 C.ar    1  UNL1        0.1567
     10 N           6.3141   -4.7808   26.6320 N.pl3   1  UNL1       -0.3375
     11 S           6.2972   -2.6375   28.2292 S.2     1  UNL1       -0.0520
     12 C           6.4122   -2.4160   29.7083 C.ar    1  UNL1        0.0498
     13 C           6.3937   -1.1683   30.5407 C.ar    1  UNL1        0.0126
     14 H           6.3808   -5.7609   26.5659 H       1  UNL1        0.1442
     15 H           6.2016   -4.2391   25.8176 H       1  UNL1        0.1442
     16 C           5.2080    1.7204   34.2936 C.3     1  UNL1        0.1209
     17 C           2.9143    1.8090   38.1642 C.ar    1  UNL1        0.1724
     18 C           4.0801    0.8786   38.0043 C.ar    1  UNL1        0.0398
     19 C           4.8446    0.8490   36.7141 C.ar    1  UNL1        0.0007
     20 C           4.4435    1.7499   35.5838 C.ar    1  UNL1        0.0009
     21 C           3.2778    2.6802   35.7437 C.ar    1  UNL1        0.0374
     22 C           2.5132    2.7098   37.0339 C.ar    1  UNL1        0.1721
     23 C           0.8182    1.1550   39.5529 C.3     1  UNL1        0.2526
     24 O           2.1497    1.8385   39.4543 O.3     1  UNL1       -0.4684
     25 O           1.3475    3.6401   37.1937 O.3     1  UNL1       -0.4684
     26 C           1.3663    4.9865   36.5327 C.3     1  UNL1        0.2526
     27 C           3.9569   -0.2908   33.2259 C.3     1  UNL1        0.1208
     28 C           3.0208    0.1295   32.1317 C.ar    1  UNL1       -0.0014
     29 C           2.8724   -0.7197   30.9042 C.ar    1  UNL1       -0.0017
     30 C           1.9363   -0.2994   29.8102 C.ar    1  UNL1        0.0120
     31 C           1.1486    0.9702   29.9436 C.ar    1  UNL1        0.0682
     32 CL          0.2125    1.3905   28.8495 Cl      1  UNL1       -0.0814
     33 C           1.2969    1.8193   31.1711 C.ar    1  UNL1        0.0679
     34 CL          0.5092    3.0888   31.3046 Cl      1  UNL1       -0.0814
     35 C           2.2330    1.3990   32.2652 C.ar    1  UNL1        0.0096
@<TRIPOS>BOND
     1    23    24    1
     2    24    17    1
     3    17    18   ar
     4    18    19   ar
     5    19    20   ar
     6    20    16    1
     7    16     1    1
     8     1    27    1
     9    27    28    1
    10    28    29   ar
    11    29    30   ar
    12    30    31   ar
    13    31    32    1
    14    31    33   ar
    15    33    34    1
    16    33    35   ar
    17     1     2   am
    18     2     3    2
    19     2     4    1
    20     4     5   ar
    21     5     6   ar
    22     6     7   ar
    23     7     8   ar
    24     8     9   ar
    25     9    10    1
    26     9    11   ar
    27    11    12   ar
    28    12    13   ar
    29    20    21   ar
    30    21    22   ar
    31    22    25    1
    32    25    26    1
    33    22    17   ar
    34    35    28   ar
    35    13     4   ar
    36    12     7   ar
    37    10    14    1
    38    10    15    1
