@<TRIPOS>MOLECULE
*****
 18 20 0 0 0
SMALL
GASTEIGER

@<TRIPOS>ATOM
      1 C         -10.9008  -17.3785   23.0883 C.3     1  UNL1        0.0313
      2 C         -12.1289  -18.2090   22.8604 C.3     1  UNL1        0.0222
      3 C         -12.8348  -17.6704   21.6514 C.3     1  UNL1        0.0689
      4 N         -12.0429  -16.5071   21.1321 N.3     1  UNL1       -0.2972
      5 C         -10.8476  -16.3266   22.0202 C.3     1  UNL1        0.0723
      6 H         -12.6162  -15.6636   21.1477 H       1  UNL1        0.1233
      7 C          -9.6281  -16.7399   23.5602 C.2     1  UNL1       -0.0390
      8 C          -8.6612  -16.1701   22.5652 C.2     1  UNL1       -0.0066
      9 C          -7.3884  -15.5315   23.0370 C.2     1  UNL1        0.0182
     10 C          -7.0828  -15.4629   24.5039 C.2     1  UNL1        0.0777
     11 N          -5.9174  -14.8985   25.2609 N.2     1  UNL1       -0.2442
     12 C          -6.1641  -15.1195   26.7239 C.2     1  UNL1        0.0985
     13 C          -7.4820  -15.8206   26.8710 C.2     1  UNL1        0.0182
     14 C          -8.0498  -16.0328   25.4989 C.2     1  UNL1        0.0011
     15 C          -9.3225  -16.6713   25.0271 C.3     1  UNL1        0.0499
     16 C         -10.6878  -18.2967   24.2551 C.3     1  UNL1        0.0051
     17 C          -9.3245  -20.4782   23.8904 C.3     1  UNL1        0.0000
     18 C         -10.6439  -19.7810   24.0430 C.3     1  UNL1        0.0004
@<TRIPOS>BOND
     1    17    18    1
     2    18    16    1
     3    16     1    1
     4     1     7    1
     5     7     8    2
     6     8     9    1
     7     9    10    2
     8    10    11    1
     9    11    12    2
    10    12    13    1
    11    13    14    2
    12    14    15    1
    13     1     2    1
    14     2     3    1
    15     3     4    1
    16     4     5    1
    17     5     1    1
    18    15     7    1
    19    14    10    1
    20     4     6    1
@<TRIPOS>MOLECULE
*****
 18 20 0 0 0
SMALL
GASTEIGER

@<TRIPOS>ATOM
      1 C         -11.4731  -17.3001   23.2535 C.3     1  UNL1        0.0313
      2 C         -12.9589  -17.1957   23.0766 C.3     1  UNL1        0.0222
      3 C         -13.6082  -18.1436   24.0408 C.3     1  UNL1        0.0689
      4 N         -12.5237  -18.8339   24.8137 N.3     1  UNL1       -0.2972
      5 C         -11.2041  -18.3126   24.3272 C.3     1  UNL1        0.0723
      6 H         -12.5761  -19.8409   24.6597 H       1  UNL1        0.1233
      7 C          -9.9780  -17.1879   23.2039 C.2     1  UNL1       -0.0390
      8 C          -9.1871  -18.0958   22.3095 C.2     1  UNL1       -0.0066
      9 C          -7.6920  -17.9836   22.2599 C.2     1  UNL1        0.0182
     10 C          -6.9881  -16.9636   23.1048 C.2     1  UNL1        0.0777
     11 N          -5.5362  -16.6225   23.2651 N.2     1  UNL1       -0.2442
     12 C          -5.4299  -15.5037   24.2587 C.2     1  UNL1        0.0985
     13 C          -6.8161  -15.1535   24.7124 C.2     1  UNL1        0.0182
     14 C          -7.7791  -16.0557   23.9993 C.2     1  UNL1        0.0011
     15 C          -9.2741  -16.1679   24.0489 C.3     1  UNL1        0.0499
     16 C         -11.4294  -16.2642   22.1696 C.3     1  UNL1        0.0051
     17 C         -11.6766  -15.9300   19.6050 C.3     1  UNL1        0.0000
     18 C         -12.2016  -16.4734   20.9008 C.3     1  UNL1        0.0004
@<TRIPOS>BOND
     1    17    18    1
     2    18    16    1
     3    16     1    1
     4     1     7    1
     5     7     8    2
     6     8     9    1
     7     9    10    2
     8    10    11    1
     9    11    12    2
    10    12    13    1
    11    13    14    2
    12    14    15    1
    13     1     2    1
    14     2     3    1
    15     3     4    1
    16     4     5    1
    17     5     1    1
    18    15     7    1
    19    14    10    1
    20     4     6    1
@<TRIPOS>MOLECULE
*****
 18 20 0 0 0
SMALL
GASTEIGER

@<TRIPOS>ATOM
      1 C         -11.4913  -17.4820   23.1901 C.3     1  UNL1        0.0313
      2 C         -12.9648  -17.2094   23.1238 C.3     1  UNL1        0.0222
      3 C         -13.6402  -18.0584   24.1596 C.3     1  UNL1        0.0689
      4 N         -12.5842  -18.8557   24.8661 N.3     1  UNL1       -0.2972
      5 C         -11.2560  -18.4995   24.2669 C.3     1  UNL1        0.0723
      6 H         -12.7630  -19.8524   24.7436 H       1  UNL1        0.1233
      7 C         -10.0017  -17.5447   23.0240 C.2     1  UNL1       -0.0390
      8 C          -9.1646  -16.3311   23.3000 C.2     1  UNL1       -0.0066
      9 C          -7.6751  -16.3937   23.1339 C.2     1  UNL1        0.0182
     10 C          -7.0228  -17.6701   22.6919 C.2     1  UNL1        0.0777
     11 N          -5.5881  -18.0303   22.4433 N.2     1  UNL1       -0.2442
     12 C          -5.5386  -19.4666   22.0138 C.2     1  UNL1        0.0985
     13 C          -6.9427  -19.9941   21.9969 C.2     1  UNL1        0.0182
     14 C          -7.8600  -18.8838   22.4160 C.2     1  UNL1        0.0011
     15 C          -9.3495  -18.8211   22.5821 C.3     1  UNL1        0.0499
     16 C         -11.4150  -16.4777   22.0786 C.3     1  UNL1        0.0051
     17 C         -11.7074  -15.9157   19.5589 C.3     1  UNL1        0.0000
     18 C         -11.9978  -16.8007   20.7347 C.3     1  UNL1        0.0004
@<TRIPOS>BOND
     1    17    18    1
     2    18    16    1
     3    16     1    1
     4     1     7    1
     5     7     8    2
     6     8     9    1
     7     9    10    2
     8    10    11    1
     9    11    12    2
    10    12    13    1
    11    13    14    2
    12    14    15    1
    13     1     2    1
    14     2     3    1
    15     3     4    1
    16     4     5    1
    17     5     1    1
    18    15     7    1
    19    14    10    1
    20     4     6    1
@<TRIPOS>MOLECULE
*****
 18 20 0 0 0
SMALL
GASTEIGER

@<TRIPOS>ATOM
      1 C         -11.4321  -18.3524   22.2157 C.3     1  UNL1        0.0313
      2 C         -12.8243  -17.9011   22.5445 C.3     1  UNL1        0.0222
      3 C         -13.0681  -18.1726   23.9994 C.3     1  UNL1        0.0689
      4 N         -11.8265  -18.7917   24.5699 N.3     1  UNL1       -0.2972
      5 C         -10.8154  -18.9027   23.4675 C.3     1  UNL1        0.0723
      6 H         -12.0399  -19.7184   24.9386 H       1  UNL1        0.1233
      7 C         -10.1110  -18.7039   21.5983 C.2     1  UNL1       -0.0390
      8 C         -10.0597  -19.2837   20.2159 C.2     1  UNL1       -0.0066
      9 C          -8.7386  -19.6353   19.5985 C.2     1  UNL1        0.0182
     10 C          -7.4688  -19.4070   20.3636 C.2     1  UNL1        0.0777
     11 N          -6.0303  -19.6538   20.0175 N.2     1  UNL1       -0.2442
     12 C          -5.1925  -19.2266   21.1861 C.2     1  UNL1        0.0985
     13 C          -6.1132  -18.7156   22.2544 C.2     1  UNL1        0.0182
     14 C          -7.5201  -18.8271   21.7461 C.2     1  UNL1        0.0011
     15 C          -8.8412  -18.4756   22.3634 C.3     1  UNL1        0.0499
     16 C         -11.7725  -17.8755   20.8349 C.3     1  UNL1        0.0051
     17 C         -11.6480  -15.7146   19.3979 C.3     1  UNL1        0.0000
     18 C         -12.1522  -16.4421   20.6089 C.3     1  UNL1        0.0004
@<TRIPOS>BOND
     1    17    18    1
     2    18    16    1
     3    16     1    1
     4     1     7    1
     5     7     8    2
     6     8     9    1
     7     9    10    2
     8    10    11    1
     9    11    12    2
    10    12    13    1
    11    13    14    2
    12    14    15    1
    13     1     2    1
    14     2     3    1
    15     3     4    1
    16     4     5    1
    17     5     1    1
    18    15     7    1
    19    14    10    1
    20     4     6    1
@<TRIPOS>MOLECULE
*****
 18 20 0 0 0
SMALL
GASTEIGER

@<TRIPOS>ATOM
      1 C         -10.5347  -18.1362   22.0008 C.3     1  UNL1        0.0313
      2 C         -11.9055  -17.9959   22.5934 C.3     1  UNL1        0.0222
      3 C         -12.2727  -16.5417   22.5728 C.3     1  UNL1        0.0689
      4 N         -11.1288  -15.7833   21.9674 N.3     1  UNL1       -0.2972
      5 C         -10.0547  -16.7687   21.6139 C.3     1  UNL1        0.0723
      6 H         -10.7690  -15.1052   22.6391 H       1  UNL1        0.1233
      7 C          -9.2061  -18.5819   21.4656 C.2     1  UNL1       -0.0390
      8 C          -9.1233  -19.2498   20.1251 C.2     1  UNL1       -0.0066
      9 C          -7.7947  -19.6955   19.5899 C.2     1  UNL1        0.0182
     10 C          -6.5490  -19.4731   20.3953 C.2     1  UNL1        0.0777
     11 N          -5.1099  -19.8021   20.1295 N.2     1  UNL1       -0.2442
     12 C          -4.3033  -19.3375   21.3057 C.2     1  UNL1        0.0985
     13 C          -5.2439  -18.7213   22.2985 C.2     1  UNL1        0.0182
     14 C          -6.6318  -18.8051   21.7358 C.2     1  UNL1        0.0011
     15 C          -7.9604  -18.3595   22.2710 C.3     1  UNL1        0.0499
     16 C         -10.7369  -19.5968   22.2757 C.3     1  UNL1        0.0051
     17 C          -9.7378  -20.5796   24.4634 C.3     1  UNL1        0.0000
     18 C         -10.9175  -20.0766   23.6854 C.3     1  UNL1        0.0004
@<TRIPOS>BOND
     1    17    18    1
     2    18    16    1
     3    16     1    1
     4     1     7    1
     5     7     8    2
     6     8     9    1
     7     9    10    2
     8    10    11    1
     9    11    12    2
    10    12    13    1
    11    13    14    2
    12    14    15    1
    13     1     2    1
    14     2     3    1
    15     3     4    1
    16     4     5    1
    17     5     1    1
    18    15     7    1
    19    14    10    1
    20     4     6    1
@<TRIPOS>MOLECULE
*****
 18 20 0 0 0
SMALL
GASTEIGER

@<TRIPOS>ATOM
      1 C          -9.7321  -17.6590   21.7706 C.3     1  UNL1        0.0313
      2 C         -10.3724  -18.5843   20.7788 C.3     1  UNL1        0.0222
      3 C         -11.1661  -17.7532   19.8148 C.3     1  UNL1        0.0689
      4 N         -11.0163  -16.3142   20.2108 N.3     1  UNL1       -0.2972
      5 C         -10.1300  -16.2559   21.4195 C.3     1  UNL1        0.0723
      6 H         -11.9302  -15.9192   20.4323 H       1  UNL1        0.1233
      7 C          -8.9754  -16.9980   22.8845 C.2     1  UNL1       -0.0390
      8 C          -9.7159  -16.4126   24.0501 C.2     1  UNL1       -0.0066
      9 C          -8.9593  -15.7516   25.1640 C.2     1  UNL1        0.0182
     10 C          -7.4621  -15.6761   25.1121 C.2     1  UNL1        0.0777
     11 N          -6.4534  -15.0907   26.0554 N.2     1  UNL1       -0.2442
     12 C          -5.0895  -15.3145   25.4727 C.2     1  UNL1        0.0985
     13 C          -5.2552  -16.0380   24.1692 C.2     1  UNL1        0.0182
     14 C          -6.7216  -16.2615   23.9464 C.2     1  UNL1        0.0011
     15 C          -7.4783  -16.9225   22.8326 C.3     1  UNL1        0.0499
     16 C          -9.1760  -18.9238   22.3545 C.3     1  UNL1        0.0051
     17 C          -9.8524  -20.4016   24.3815 C.3     1  UNL1        0.0000
     18 C         -10.0969  -19.9299   22.9788 C.3     1  UNL1        0.0004
@<TRIPOS>BOND
     1    17    18    1
     2    18    16    1
     3    16     1    1
     4     1     7    1
     5     7     8    2
     6     8     9    1
     7     9    10    2
     8    10    11    1
     9    11    12    2
    10    12    13    1
    11    13    14    2
    12    14    15    1
    13     1     2    1
    14     2     3    1
    15     3     4    1
    16     4     5    1
    17     5     1    1
    18    15     7    1
    19    14    10    1
    20     4     6    1
@<TRIPOS>MOLECULE
*****
 18 20 0 0 0
SMALL
GASTEIGER

@<TRIPOS>ATOM
      1 C         -10.7405  -17.8795   22.4397 C.3     1  UNL1        0.0313
      2 C         -12.1965  -17.8337   22.7972 C.3     1  UNL1        0.0222
      3 C         -12.9765  -17.6066   21.5363 C.3     1  UNL1        0.0689
      4 N         -12.0025  -17.5120   20.3994 N.3     1  UNL1       -0.2972
      5 C         -10.6206  -17.6806   20.9577 C.3     1  UNL1        0.0723
      6 H         -12.0848  -16.6009   19.9481 H       1  UNL1        0.1233
      7 C          -9.2440  -17.9708   22.3897 C.2     1  UNL1       -0.0390
      8 C          -8.4064  -16.9692   23.1279 C.2     1  UNL1       -0.0066
      9 C          -6.9100  -17.0605   23.0779 C.2     1  UNL1        0.0182
     10 C          -6.2513  -18.1535   22.2896 C.2     1  UNL1        0.0777
     11 N          -4.8091  -18.4942   22.0574 N.2     1  UNL1       -0.2442
     12 C          -4.7554  -19.7065   21.1757 C.2     1  UNL1        0.0985
     13 C          -6.1644  -20.1149   20.8629 C.2     1  UNL1        0.0182
     14 C          -7.0889  -19.1551   21.5513 C.2     1  UNL1        0.0011
     15 C          -8.5853  -19.0638   21.6014 C.3     1  UNL1        0.0499
     16 C         -10.5475  -18.0974   23.9111 C.3     1  UNL1        0.0051
     17 C          -9.9326  -20.4977   24.6926 C.3     1  UNL1        0.0000
     18 C         -10.9453  -19.4025   24.5345 C.3     1  UNL1        0.0004
@<TRIPOS>BOND
     1    17    18    1
     2    18    16    1
     3    16     1    1
     4     1     7    1
     5     7     8    2
     6     8     9    1
     7     9    10    2
     8    10    11    1
     9    11    12    2
    10    12    13    1
    11    13    14    2
    12    14    15    1
    13     1     2    1
    14     2     3    1
    15     3     4    1
    16     4     5    1
    17     5     1    1
    18    15     7    1
    19    14    10    1
    20     4     6    1
@<TRIPOS>MOLECULE
*****
 18 20 0 0 0
SMALL
GASTEIGER

@<TRIPOS>ATOM
      1 C          -8.7185  -19.4588   21.3204 C.3     1  UNL1        0.0313
      2 C         -10.1832  -19.3955   21.6378 C.3     1  UNL1        0.0222
      3 C         -10.9396  -19.4207   20.3427 C.3     1  UNL1        0.0689
      4 N          -9.9424  -19.4995   19.2249 N.3     1  UNL1       -0.2972
      5 C          -8.5697  -19.5230   19.8291 C.3     1  UNL1        0.0723
      6 H         -10.0391  -18.6863   18.6169 H       1  UNL1        0.1233
      7 C          -7.2194  -19.5109   21.3144 C.2     1  UNL1       -0.0390
      8 C          -6.5051  -20.4442   20.3826 C.2     1  UNL1       -0.0066
      9 C          -5.0059  -20.4963   20.3766 C.2     1  UNL1        0.0182
     10 C          -4.2212  -19.6149   21.3026 C.2     1  UNL1        0.0777
     11 N          -2.7465  -19.4480   21.5197 N.2     1  UNL1       -0.2442
     12 C          -2.5494  -18.4114   22.5858 C.2     1  UNL1        0.0985
     13 C          -3.9024  -17.9377   23.0276 C.2     1  UNL1        0.0182
     14 C          -4.9356  -18.6815   22.2344 C.2     1  UNL1        0.0011
     15 C          -6.4347  -18.6295   22.2404 C.3     1  UNL1        0.0499
     16 C          -8.5539  -19.4054   22.8103 C.3     1  UNL1        0.0051
     17 C          -9.9653  -19.8915   24.9368 C.3     1  UNL1        0.0000
     18 C          -9.2984  -20.3726   23.6822 C.3     1  UNL1        0.0004
@<TRIPOS>BOND
     1    17    18    1
     2    18    16    1
     3    16     1    1
     4     1     7    1
     5     7     8    2
     6     8     9    1
     7     9    10    2
     8    10    11    1
     9    11    12    2
    10    12    13    1
    11    13    14    2
    12    14    15    1
    13     1     2    1
    14     2     3    1
    15     3     4    1
    16     4     5    1
    17     5     1    1
    18    15     7    1
    19    14    10    1
    20     4     6    1
@<TRIPOS>MOLECULE
*****
 18 20 0 0 0
SMALL
GASTEIGER

@<TRIPOS>ATOM
      1 C         -10.4150  -18.1263   21.9171 C.3     1  UNL1        0.0313
      2 C         -11.7918  -18.6725   21.6810 C.3     1  UNL1        0.0222
      3 C         -12.6554  -17.5525   21.1813 C.3     1  UNL1        0.0689
      4 N         -11.8123  -16.3140   21.1086 N.3     1  UNL1       -0.2972
      5 C         -10.4276  -16.6686   21.5633 C.3     1  UNL1        0.0723
      6 H         -12.2023  -15.5936   21.7163 H       1  UNL1        0.1233
      7 C          -8.9723  -17.8736   22.2413 C.2     1  UNL1       -0.0390
      8 C          -7.9184  -18.8294   21.7664 C.2     1  UNL1       -0.0066
      9 C          -6.4757  -18.5767   22.0907 C.2     1  UNL1        0.0182
     10 C          -6.0872  -17.3683   22.8898 C.2     1  UNL1        0.0777
     11 N          -4.7560  -16.8613   23.3599 N.2     1  UNL1       -0.2442
     12 C          -4.9874  -15.5923   24.1254 C.2     1  UNL1        0.0985
     13 C          -6.4615  -15.3148   24.1284 C.2     1  UNL1        0.0182
     14 C          -7.1412  -16.4125   23.3647 C.2     1  UNL1        0.0011
     15 C          -8.5838  -16.6652   23.0405 C.3     1  UNL1        0.0499
     16 C         -10.1007  -19.5310   22.3386 C.3     1  UNL1        0.0051
     17 C         -10.0477  -20.0212   24.8895 C.3     1  UNL1        0.0000
     18 C         -10.7448  -20.1082   23.5642 C.3     1  UNL1        0.0004
@<TRIPOS>BOND
     1    17    18    1
     2    18    16    1
     3    16     1    1
     4     1     7    1
     5     7     8    2
     6     8     9    1
     7     9    10    2
     8    10    11    1
     9    11    12    2
    10    12    13    1
    11    13    14    2
    12    14    15    1
    13     1     2    1
    14     2     3    1
    15     3     4    1
    16     4     5    1
    17     5     1    1
    18    15     7    1
    19    14    10    1
    20     4     6    1
