@<TRIPOS>MOLECULE
*****
 30 32 0 0 0
SMALL
GASTEIGER

@<TRIPOS>ATOM
      1 C          -2.1356  -18.5502   20.8677 C.ar    1  UNL1        0.1724
      2 C          -2.4287  -19.2465   19.5719 C.ar    1  UNL1        0.0402
      3 C          -3.8164  -19.7360   19.2807 C.ar    1  UNL1        0.0078
      4 C          -4.9109  -19.5292   20.2853 C.ar    1  UNL1        0.0566
      5 C          -4.6177  -18.8330   21.5811 C.ar    1  UNL1        0.0446
      6 C          -3.2301  -18.3435   21.8723 C.ar    1  UNL1        0.1724
      7 C          -6.2985  -20.0188   19.9941 C.2     1  UNL1        0.2463
      8 O          -6.5979  -21.4882   20.0276 O.2     1  UNL1       -0.2701
      9 N          -7.3868  -19.0389   19.6694 N.am    1  UNL1       -0.2943
     10 H          -7.1903  -18.0744   19.6474 H       1  UNL1        0.1501
     11 C          -8.7744  -19.5284   19.3782 C.3     1  UNL1        0.1579
     12 C          -9.9398  -18.9810   20.1479 C.ar    1  UNL1        0.1738
     13 C         -10.1955  -19.1703   21.6138 C.ar    1  UNL1        0.0553
     14 C         -11.4677  -18.4545   21.9587 C.ar    1  UNL1        0.1000
     15 N         -11.9983  -17.8227   20.7059 N.ar    1  UNL1       -0.0817
     16 O         -11.0540  -18.1481   19.5868 O.2     1  UNL1       -0.3563
     17 C         -12.0985  -18.3830   23.3177 C.3     1  UNL1        0.0436
     18 C         -11.3345  -18.8416   24.5243 C.3     1  UNL1        0.0064
     19 C         -13.4935  -17.8529   23.4700 C.3     1  UNL1        0.0064
     20 C           0.0791  -17.4555   20.0637 C.3     1  UNL1        0.2526
     21 O          -0.7479  -18.0607   21.1589 O.3     1  UNL1       -0.4684
     22 O          -2.9369  -17.6472   23.1683 O.3     1  UNL1       -0.4709
     23 C          -4.0483  -17.3613   24.1342 C.3     1  UNL1        0.2228
     24 C          -4.9059  -16.1441   23.9518 C.3     1  UNL1        0.1200
     25 N          -6.0393  -15.8768   24.8973 N.3     1  UNL1       -0.2696
     26 C          -7.4505  -15.8556   24.3895 C.3     1  UNL1        0.0722
     27 C          -8.5839  -15.5882   25.3350 C.3     1  UNL1        0.0174
     28 C          -8.3060  -15.3420   26.7883 C.3     1  UNL1        0.0029
     29 C          -6.8947  -15.3631   27.2961 C.3     1  UNL1        0.0174
     30 C          -5.7614  -15.6305   26.3506 C.3     1  UNL1        0.0722
@<TRIPOS>BOND
     1    20    21    1
     2    21     1    1
     3     1     2   ar
     4     2     3   ar
     5     3     4   ar
     6     4     7    1
     7     7     8    2
     8     7     9   am
     9     9    11    1
    10    11    12    1
    11    12    13   ar
    12    13    14   ar
    13    14    17    1
    14    17    18    1
    15    17    19    1
    16    14    15   ar
    17    15    16   ar
    18     4     5   ar
    19     5     6   ar
    20     6    22    1
    21    22    23    1
    22    23    24    1
    23    24    25    1
    24    25    26    1
    25    26    27    1
    26    27    28    1
    27    28    29    1
    28    29    30    1
    29     6     1   ar
    30    30    25    1
    31    16    12   ar
    32     9    10    1
@<TRIPOS>MOLECULE
*****
 30 32 0 0 0
SMALL
GASTEIGER

@<TRIPOS>ATOM
      1 C         -11.8364  -17.8832   22.1561 C.ar    1  UNL1        0.1724
      2 C         -11.7783  -17.8289   20.6582 C.ar    1  UNL1        0.0402
      3 C         -10.6075  -18.4210   19.9311 C.ar    1  UNL1        0.0078
      4 C          -9.4948  -19.0673   20.7019 C.ar    1  UNL1        0.0566
      5 C          -9.5529  -19.1215   22.1998 C.ar    1  UNL1        0.0446
      6 C         -10.7237  -18.5295   22.9269 C.ar    1  UNL1        0.1724
      7 C          -8.3240  -19.6594   19.9748 C.2     1  UNL1        0.2463
      8 O          -8.4599  -20.0615   18.5362 O.2     1  UNL1       -0.2701
      9 N          -7.0173  -19.8493   20.6864 N.am    1  UNL1       -0.2943
     10 H          -6.9280  -19.5854   21.6306 H       1  UNL1        0.1501
     11 C          -5.8464  -20.4414   19.9593 C.3     1  UNL1        0.1579
     12 C          -4.4527  -20.0040   20.3002 C.ar    1  UNL1        0.1738
     13 C          -3.9361  -18.5963   20.2618 C.ar    1  UNL1        0.0553
     14 C          -2.4950  -18.6198   20.6773 C.ar    1  UNL1        0.1000
     15 N          -2.1209  -20.0421   20.9725 N.ar    1  UNL1       -0.0817
     16 O          -3.3308  -20.8976   20.7395 O.2     1  UNL1       -0.3563
     17 C          -1.5873  -17.4300   20.7795 C.3     1  UNL1        0.0436
     18 C          -1.9905  -16.2483   21.6109 C.3     1  UNL1        0.0064
     19 C          -0.2765  -17.4218   20.0504 C.3     1  UNL1        0.0064
     20 C         -13.8074  -18.1358   23.8298 C.3     1  UNL1        0.2526
     21 O         -13.0072  -17.2911   22.8832 O.3     1  UNL1       -0.4684
     22 O         -10.7817  -18.5837   24.4248 O.3     1  UNL1       -0.4709
     23 C          -9.7400  -17.8785   25.2418 C.3     1  UNL1        0.2228
     24 C          -9.2969  -16.4969   24.8612 C.3     1  UNL1        0.1200
     25 N          -7.8971  -16.0489   25.1611 N.3     1  UNL1       -0.2696
     26 C          -7.5097  -15.6877   26.5644 C.3     1  UNL1        0.0722
     27 C          -6.1099  -15.2398   26.8644 C.3     1  UNL1        0.0174
     28 C          -5.0976  -15.1531   25.7609 C.3     1  UNL1        0.0029
     29 C          -5.4850  -15.5143   24.3575 C.3     1  UNL1        0.0174
     30 C          -6.8848  -15.9622   24.0576 C.3     1  UNL1        0.0722
@<TRIPOS>BOND
     1    20    21    1
     2    21     1    1
     3     1     2   ar
     4     2     3   ar
     5     3     4   ar
     6     4     7    1
     7     7     8    2
     8     7     9   am
     9     9    11    1
    10    11    12    1
    11    12    13   ar
    12    13    14   ar
    13    14    17    1
    14    17    18    1
    15    17    19    1
    16    14    15   ar
    17    15    16   ar
    18     4     5   ar
    19     5     6   ar
    20     6    22    1
    21    22    23    1
    22    23    24    1
    23    24    25    1
    24    25    26    1
    25    26    27    1
    26    27    28    1
    27    28    29    1
    28    29    30    1
    29     6     1   ar
    30    30    25    1
    31    16    12   ar
    32     9    10    1
@<TRIPOS>MOLECULE
*****
 30 32 0 0 0
SMALL
GASTEIGER

@<TRIPOS>ATOM
      1 C         -10.8033  -19.7214   23.3414 C.ar    1  UNL1        0.1724
      2 C          -9.5121  -20.2563   23.8860 C.ar    1  UNL1        0.0402
      3 C          -8.2669  -20.2034   23.0514 C.ar    1  UNL1        0.0078
      4 C          -8.3129  -19.6156   21.6722 C.ar    1  UNL1        0.0566
      5 C          -9.6041  -19.0807   21.1276 C.ar    1  UNL1        0.0446
      6 C         -10.8493  -19.1336   21.9622 C.ar    1  UNL1        0.1724
      7 C          -7.0676  -19.5627   20.8375 C.2     1  UNL1        0.2463
      8 O          -6.6342  -18.2670   20.2184 O.2     1  UNL1       -0.2701
      9 N          -6.2558  -20.8054   20.6221 N.am    1  UNL1       -0.2943
     10 H          -6.5403  -21.6558   21.0284 H       1  UNL1        0.1501
     11 C          -5.0106  -20.7525   19.7874 C.3     1  UNL1        0.1579
     12 C          -3.7745  -20.0947   20.3255 C.ar    1  UNL1        0.1738
     13 C          -3.3073  -18.7045   20.0104 C.ar    1  UNL1        0.0553
     14 C          -2.0327  -18.4621   20.7632 C.ar    1  UNL1        0.1000
     15 N          -1.7121  -19.7025   21.5434 N.ar    1  UNL1       -0.0817
     16 O          -2.7886  -20.7114   21.2729 O.2     1  UNL1       -0.3563
     17 C          -1.2211  -17.2009   20.7398 C.3     1  UNL1        0.0436
     18 C           0.0623  -17.1490   19.9650 C.3     1  UNL1        0.0064
     19 C          -1.6929  -15.9914   21.4912 C.3     1  UNL1        0.0064
     20 C         -12.7359  -18.5035   24.5790 C.3     1  UNL1        0.2526
     21 O         -12.0486  -19.7743   24.1760 O.3     1  UNL1       -0.4684
     22 O         -12.1405  -18.5987   21.4175 O.3     1  UNL1       -0.4709
     23 C         -12.2677  -17.1417   21.0844 C.3     1  UNL1        0.2228
     24 C         -11.8672  -16.1044   22.0913 C.3     1  UNL1        0.1200
     25 N         -10.4386  -16.0047   22.5375 N.3     1  UNL1       -0.2696
     26 C         -10.0673  -16.3550   23.9479 C.3     1  UNL1        0.0722
     27 C          -8.6386  -16.2553   24.3943 C.3     1  UNL1        0.0174
     28 C          -7.5814  -15.8051   23.4301 C.3     1  UNL1        0.0029
     29 C          -7.9528  -15.4548   22.0196 C.3     1  UNL1        0.0174
     30 C          -9.3814  -15.5545   21.5734 C.3     1  UNL1        0.0722
@<TRIPOS>BOND
     1    20    21    1
     2    21     1    1
     3     1     2   ar
     4     2     3   ar
     5     3     4   ar
     6     4     7    1
     7     7     8    2
     8     7     9   am
     9     9    11    1
    10    11    12    1
    11    12    13   ar
    12    13    14   ar
    13    14    17    1
    14    17    18    1
    15    17    19    1
    16    14    15   ar
    17    15    16   ar
    18     4     5   ar
    19     5     6   ar
    20     6    22    1
    21    22    23    1
    22    23    24    1
    23    24    25    1
    24    25    26    1
    25    26    27    1
    26    27    28    1
    27    28    29    1
    28    29    30    1
    29     6     1   ar
    30    30    25    1
    31    16    12   ar
    32     9    10    1
@<TRIPOS>MOLECULE
*****
 30 32 0 0 0
SMALL
GASTEIGER

@<TRIPOS>ATOM
      1 C         -10.9051  -16.3804   22.4902 C.ar    1  UNL1        0.1724
      2 C         -10.0090  -15.5237   21.6458 C.ar    1  UNL1        0.0402
      3 C          -8.5431  -15.4410   21.9529 C.ar    1  UNL1        0.0078
      4 C          -7.9733  -16.2152   23.1043 C.ar    1  UNL1        0.0566
      5 C          -8.8693  -17.0719   23.9487 C.ar    1  UNL1        0.0446
      6 C         -10.3352  -17.1546   23.6416 C.ar    1  UNL1        0.1724
      7 C          -6.5074  -16.1325   23.4114 C.2     1  UNL1        0.2463
      8 O          -5.9182  -14.8491   23.9170 O.2     1  UNL1       -0.2701
      9 N          -5.6306  -17.3333   23.2129 N.am    1  UNL1       -0.2943
     10 H          -6.0173  -18.1757   22.8811 H       1  UNL1        0.1501
     11 C          -4.1647  -17.2506   23.5200 C.3     1  UNL1        0.1579
     12 C          -3.1663  -17.8616   22.5819 C.ar    1  UNL1        0.1738
     13 C          -2.3481  -17.1249   21.5631 C.ar    1  UNL1        0.0553
     14 C          -1.4870  -18.1244   20.8494 C.ar    1  UNL1        0.1000
     15 N          -1.7730  -19.4789   21.4272 N.ar    1  UNL1       -0.0817
     16 O          -2.8108  -19.3164   22.4979 O.2     1  UNL1       -0.3563
     17 C          -0.5112  -17.8225   19.7510 C.3     1  UNL1        0.0436
     18 C          -0.9582  -17.8594   18.3196 C.3     1  UNL1        0.0064
     19 C           0.9116  -17.4838   20.0839 C.3     1  UNL1        0.0064
     20 C         -12.9402  -17.7092   21.5723 C.3     1  UNL1        0.2526
     21 O         -12.3710  -16.4631   22.1831 O.3     1  UNL1       -0.4684
     22 O         -11.2312  -18.0114   24.4861 O.3     1  UNL1       -0.4709
     23 C         -10.9796  -19.4865   24.5887 C.3     1  UNL1        0.2228
     24 C         -10.8506  -20.3137   23.3440 C.3     1  UNL1        0.1200
     25 N          -9.7502  -20.0292   22.3651 N.3     1  UNL1       -0.2696
     26 C         -10.0828  -19.6321   20.9574 C.3     1  UNL1        0.0722
     27 C          -8.9824  -19.3476   19.9785 C.3     1  UNL1        0.0174
     28 C          -7.5494  -19.4602   20.4073 C.3     1  UNL1        0.0029
     29 C          -7.2169  -19.8574   21.8150 C.3     1  UNL1        0.0174
     30 C          -8.3172  -20.1419   22.7939 C.3     1  UNL1        0.0722
@<TRIPOS>BOND
     1    20    21    1
     2    21     1    1
     3     1     2   ar
     4     2     3   ar
     5     3     4   ar
     6     4     7    1
     7     7     8    2
     8     7     9   am
     9     9    11    1
    10    11    12    1
    11    12    13   ar
    12    13    14   ar
    13    14    17    1
    14    17    18    1
    15    17    19    1
    16    14    15   ar
    17    15    16   ar
    18     4     5   ar
    19     5     6   ar
    20     6    22    1
    21    22    23    1
    22    23    24    1
    23    24    25    1
    24    25    26    1
    25    26    27    1
    26    27    28    1
    27    28    29    1
    28    29    30    1
    29     6     1   ar
    30    30    25    1
    31    16    12   ar
    32     9    10    1
@<TRIPOS>MOLECULE
*****
 30 32 0 0 0
SMALL
GASTEIGER

@<TRIPOS>ATOM
      1 C           7.9346   -5.1470   26.4844 C.ar    1  UNL1        0.1724
      2 C           7.9305   -6.1949   25.4112 C.ar    1  UNL1        0.0402
      3 C           8.0002   -7.6471   25.7805 C.ar    1  UNL1        0.0078
      4 C           8.0740   -8.0513   27.2231 C.ar    1  UNL1        0.0566
      5 C           8.0781   -7.0034   28.2963 C.ar    1  UNL1        0.0446
      6 C           8.0084   -5.5513   27.9270 C.ar    1  UNL1        0.1724
      7 C           8.1438   -9.5035   27.5925 C.2     1  UNL1        0.2463
      8 O           9.4733  -10.1494   27.8478 O.2     1  UNL1       -0.2701
      9 N           6.8841  -10.3097   27.7065 N.am    1  UNL1       -0.2943
     10 H           6.0114   -9.8857   27.5390 H       1  UNL1        0.1501
     11 C           6.9538  -11.7618   28.0759 C.3     1  UNL1        0.1579
     12 C           5.7846  -12.6616   27.8047 C.ar    1  UNL1        0.1738
     13 C           4.5425  -12.7689   28.6388 C.ar    1  UNL1        0.0553
     14 C           3.6426  -13.7857   28.0015 C.ar    1  UNL1        0.1000
     15 N           4.3285  -14.3069   26.7735 N.ar    1  UNL1       -0.0817
     16 O           5.6523  -13.6122   26.6519 O.2     1  UNL1       -0.3563
     17 C           2.2936  -14.2073   28.5040 C.3     1  UNL1        0.0436
     18 C           1.8469  -15.6309   28.3492 C.3     1  UNL1        0.0064
     19 C           1.3913  -13.2053   29.1612 C.3     1  UNL1        0.0064
     20 C           6.5342   -3.0100   26.0132 C.3     1  UNL1        0.2526
     21 O           7.8648   -3.6949   26.1150 O.3     1  UNL1       -0.4684
     22 O           8.0125   -4.5034   29.0003 O.3     1  UNL1       -0.4709
     23 C           8.1399   -4.9048   30.4399 C.3     1  UNL1        0.2228
     24 C           8.6435   -3.9186   31.4518 C.3     1  UNL1        0.1200
     25 N           7.6793   -3.0194   32.1671 N.3     1  UNL1       -0.2696
     26 C           6.2230   -3.3745   32.2232 C.3     1  UNL1        0.0722
     27 C           5.2587   -2.4753   32.9385 C.3     1  UNL1        0.0174
     28 C           5.7507   -1.2209   33.5976 C.3     1  UNL1        0.0029
     29 C           7.2071   -0.8658   33.5414 C.3     1  UNL1        0.0174
     30 C           8.1713   -1.7650   32.8262 C.3     1  UNL1        0.0722
@<TRIPOS>BOND
     1    20    21    1
     2    21     1    1
     3     1     2   ar
     4     2     3   ar
     5     3     4   ar
     6     4     7    1
     7     7     8    2
     8     7     9   am
     9     9    11    1
    10    11    12    1
    11    12    13   ar
    12    13    14   ar
    13    14    17    1
    14    17    18    1
    15    17    19    1
    16    14    15   ar
    17    15    16   ar
    18     4     5   ar
    19     5     6   ar
    20     6    22    1
    21    22    23    1
    22    23    24    1
    23    24    25    1
    24    25    26    1
    25    26    27    1
    26    27    28    1
    27    28    29    1
    28    29    30    1
    29     6     1   ar
    30    30    25    1
    31    16    12   ar
    32     9    10    1
@<TRIPOS>MOLECULE
*****
 30 32 0 0 0
SMALL
GASTEIGER

@<TRIPOS>ATOM
      1 C           8.9554   -5.7795   26.9945 C.ar    1  UNL1        0.1724
      2 C           8.8972   -6.2940   28.4022 C.ar    1  UNL1        0.0402
      3 C           8.6957   -7.7583   28.6579 C.ar    1  UNL1        0.0078
      4 C           8.5523   -8.7080   27.5058 C.ar    1  UNL1        0.0566
      5 C           8.6105   -8.1935   26.0980 C.ar    1  UNL1        0.0446
      6 C           8.8120   -6.7292   25.8423 C.ar    1  UNL1        0.1724
      7 C           8.3508  -10.1723   27.7614 C.2     1  UNL1        0.2463
      8 O           9.5360  -11.0862   27.8615 O.2     1  UNL1       -0.2701
      9 N           6.9642  -10.7226   27.9170 N.am    1  UNL1       -0.2943
     10 H           6.1863  -10.1227   27.8513 H       1  UNL1        0.1501
     11 C           6.7626  -12.1868   28.1727 C.3     1  UNL1        0.1579
     12 C           5.5087  -12.8642   27.7047 C.ar    1  UNL1        0.1738
     13 C           4.3206  -13.2046   28.5548 C.ar    1  UNL1        0.0553
     14 C           3.3004  -13.8709   27.6802 C.ar    1  UNL1        0.1000
     15 N           3.8580  -13.9424   26.2894 N.ar    1  UNL1       -0.0817
     16 O           5.2228  -13.3203   26.3047 O.2     1  UNL1       -0.3563
     17 C           1.9583  -14.3769   28.1191 C.3     1  UNL1        0.0436
     18 C           1.7837  -15.8217   28.4827 C.3     1  UNL1        0.0064
     19 C           0.7908  -13.4382   28.1943 C.3     1  UNL1        0.0064
     20 C           8.1252   -3.3257   27.1930 C.3     1  UNL1        0.2526
     21 O           9.1569   -4.3152   26.7388 O.3     1  UNL1       -0.4684
     22 O           8.8701   -6.2147   24.4345 O.3     1  UNL1       -0.4709
     23 C           7.6880   -5.5025   23.8469 C.3     1  UNL1        0.2228
     24 C           7.8150   -4.8011   22.5270 C.3     1  UNL1        0.1200
     25 N           6.6238   -4.1187   21.9226 N.3     1  UNL1       -0.2696
     26 C           6.5898   -3.8334   20.4504 C.3     1  UNL1        0.0722
     27 C           5.3986   -3.1510   19.8460 C.3     1  UNL1        0.0174
     28 C           4.2413   -2.7539   20.7138 C.3     1  UNL1        0.0029
     29 C           4.2753   -3.0393   22.1861 C.3     1  UNL1        0.0174
     30 C           5.4665   -3.7217   22.7904 C.3     1  UNL1        0.0722
@<TRIPOS>BOND
     1    20    21    1
     2    21     1    1
     3     1     2   ar
     4     2     3   ar
     5     3     4   ar
     6     4     7    1
     7     7     8    2
     8     7     9   am
     9     9    11    1
    10    11    12    1
    11    12    13   ar
    12    13    14   ar
    13    14    17    1
    14    17    18    1
    15    17    19    1
    16    14    15   ar
    17    15    16   ar
    18     4     5   ar
    19     5     6   ar
    20     6    22    1
    21    22    23    1
    22    23    24    1
    23    24    25    1
    24    25    26    1
    25    26    27    1
    26    27    28    1
    27    28    29    1
    28    29    30    1
    29     6     1   ar
    30    30    25    1
    31    16    12   ar
    32     9    10    1
@<TRIPOS>MOLECULE
*****
 30 32 0 0 0
SMALL
GASTEIGER

@<TRIPOS>ATOM
      1 C         -10.3033  -15.9963   22.7185 C.ar    1  UNL1        0.1724
      2 C          -9.5212  -15.7914   23.9820 C.ar    1  UNL1        0.0402
      3 C          -8.1436  -16.3701   24.1135 C.ar    1  UNL1        0.0078
      4 C          -7.5481  -17.1537   22.9816 C.ar    1  UNL1        0.0566
      5 C          -8.3302  -17.3586   21.7182 C.ar    1  UNL1        0.0446
      6 C          -9.7078  -16.7799   21.5866 C.ar    1  UNL1        0.1724
      7 C          -6.1705  -17.7325   23.1131 C.2     1  UNL1        0.2463
      8 O          -5.8522  -19.0599   22.4915 O.2     1  UNL1       -0.2701
      9 N          -5.1113  -16.9837   23.8663 N.am    1  UNL1       -0.2943
     10 H          -5.3202  -16.1125   24.2743 H       1  UNL1        0.1501
     11 C          -3.7337  -17.5625   23.9979 C.3     1  UNL1        0.1579
     12 C          -3.0274  -18.1001   22.7886 C.ar    1  UNL1        0.1738
     13 C          -2.2950  -17.2883   21.7617 C.ar    1  UNL1        0.0553
     14 C          -1.7445  -18.2303   20.7324 C.ar    1  UNL1        0.1000
     15 N          -2.1368  -19.6244   21.1232 N.ar    1  UNL1       -0.0817
     16 O          -2.9296  -19.5439   22.3939 O.2     1  UNL1       -0.3563
     17 C          -0.9426  -17.8458   19.5245 C.3     1  UNL1        0.0436
     18 C           0.5325  -17.6042   19.6493 C.3     1  UNL1        0.0064
     19 C          -1.6159  -17.7029   18.1917 C.3     1  UNL1        0.0064
     20 C         -12.8547  -16.3213   22.3516 C.3     1  UNL1        0.2526
     21 O         -11.6809  -15.4176   22.5870 O.3     1  UNL1       -0.4684
     22 O         -10.4899  -16.9849   20.3231 O.3     1  UNL1       -0.4709
     23 C         -10.7283  -18.3723   19.8053 C.3     1  UNL1        0.2228
     24 C         -11.3826  -19.3981   20.6827 C.3     1  UNL1        0.1200
     25 N         -10.9150  -19.5845   22.0957 N.3     1  UNL1       -0.2696
     26 C          -9.6101  -20.2717   22.3693 C.3     1  UNL1        0.0722
     27 C          -9.1424  -20.4581   23.7824 C.3     1  UNL1        0.0174
     28 C          -9.9798  -19.9574   24.9217 C.3     1  UNL1        0.0029
     29 C         -11.2848  -19.2701   24.6480 C.3     1  UNL1        0.0174
     30 C         -11.7523  -19.0837   23.2350 C.3     1  UNL1        0.0722
@<TRIPOS>BOND
     1    20    21    1
     2    21     1    1
     3     1     2   ar
     4     2     3   ar
     5     3     4   ar
     6     4     7    1
     7     7     8    2
     8     7     9   am
     9     9    11    1
    10    11    12    1
    11    12    13   ar
    12    13    14   ar
    13    14    17    1
    14    17    18    1
    15    17    19    1
    16    14    15   ar
    17    15    16   ar
    18     4     5   ar
    19     5     6   ar
    20     6    22    1
    21    22    23    1
    22    23    24    1
    23    24    25    1
    24    25    26    1
    25    26    27    1
    26    27    28    1
    27    28    29    1
    28    29    30    1
    29     6     1   ar
    30    30    25    1
    31    16    12   ar
    32     9    10    1
@<TRIPOS>MOLECULE
*****
 30 32 0 0 0
SMALL
GASTEIGER

@<TRIPOS>ATOM
      1 C         -11.0363  -17.3307   22.7063 C.ar    1  UNL1        0.1724
      2 C         -10.6214  -16.2980   23.7119 C.ar    1  UNL1        0.0402
      3 C          -9.1656  -16.0375   23.9625 C.ar    1  UNL1        0.0078
      4 C          -8.1247  -16.8098   23.2075 C.ar    1  UNL1        0.0566
      5 C          -8.5396  -17.8425   22.2019 C.ar    1  UNL1        0.0446
      6 C          -9.9954  -18.1030   21.9513 C.ar    1  UNL1        0.1724
      7 C          -6.6689  -16.5493   23.4581 C.2     1  UNL1        0.2463
      8 O          -6.1647  -15.1399   23.5535 O.2     1  UNL1       -0.2701
      9 N          -5.7173  -17.6983   23.6133 N.am    1  UNL1       -0.2943
     10 H          -6.0482  -18.6235   23.5507 H       1  UNL1        0.1501
     11 C          -4.2615  -17.4379   23.8639 C.3     1  UNL1        0.1579
     12 C          -3.3655  -17.0355   22.7301 C.ar    1  UNL1        0.1738
     13 C          -2.5954  -17.9670   21.8417 C.ar    1  UNL1        0.0553
     14 C          -1.8363  -17.1383   20.8482 C.ar    1  UNL1        0.1000
     15 N          -2.1373  -15.6946   21.1226 N.ar    1  UNL1       -0.0817
     16 O          -3.0824  -15.6312   22.2857 O.2     1  UNL1       -0.3563
     17 C          -0.9346  -17.6614   19.7696 C.3     1  UNL1        0.0436
     18 C           0.5440  -17.7506   20.0060 C.3     1  UNL1        0.0064
     19 C          -1.5115  -18.0953   18.4547 C.3     1  UNL1        0.0064
     20 C         -13.4003  -17.9346   23.5991 C.3     1  UNL1        0.2526
     21 O         -12.4921  -17.5912   22.4557 O.3     1  UNL1       -0.4684
     22 O         -10.4103  -19.1358   20.9456 O.3     1  UNL1       -0.4709
     23 C          -9.8786  -19.0742   19.5444 C.3     1  UNL1        0.2228
     24 C          -8.9843  -20.1646   19.0330 C.3     1  UNL1        0.1200
     25 N          -7.5544  -20.2338   19.4810 N.3     1  UNL1       -0.2696
     26 C          -6.8029  -18.9725   19.7882 C.3     1  UNL1        0.0722
     27 C          -5.3730  -19.0417   20.2362 C.3     1  UNL1        0.0174
     28 C          -4.6947  -20.3721   20.3771 C.3     1  UNL1        0.0029
     29 C          -5.4463  -21.6334   20.0699 C.3     1  UNL1        0.0174
     30 C          -6.8761  -21.5642   19.6219 C.3     1  UNL1        0.0722
@<TRIPOS>BOND
     1    20    21    1
     2    21     1    1
     3     1     2   ar
     4     2     3   ar
     5     3     4   ar
     6     4     7    1
     7     7     8    2
     8     7     9   am
     9     9    11    1
    10    11    12    1
    11    12    13   ar
    12    13    14   ar
    13    14    17    1
    14    17    18    1
    15    17    19    1
    16    14    15   ar
    17    15    16   ar
    18     4     5   ar
    19     5     6   ar
    20     6    22    1
    21    22    23    1
    22    23    24    1
    23    24    25    1
    24    25    26    1
    25    26    27    1
    26    27    28    1
    27    28    29    1
    28    29    30    1
    29     6     1   ar
    30    30    25    1
    31    16    12   ar
    32     9    10    1
@<TRIPOS>MOLECULE
*****
 30 32 0 0 0
SMALL
GASTEIGER

@<TRIPOS>ATOM
      1 C           7.0574   -4.7628   24.7957 C.ar    1  UNL1        0.1724
      2 C           7.6656   -5.9492   24.1083 C.ar    1  UNL1        0.0402
      3 C           8.0511   -7.1609   24.9040 C.ar    1  UNL1        0.0078
      4 C           7.8284   -7.1862   26.3871 C.ar    1  UNL1        0.0566
      5 C           7.2202   -5.9999   27.0745 C.ar    1  UNL1        0.0446
      6 C           6.8347   -4.7881   26.2788 C.ar    1  UNL1        0.1724
      7 C           8.2138   -8.3980   27.1828 C.2     1  UNL1        0.2463
      8 O           9.5336   -8.4392   27.8945 O.2     1  UNL1       -0.2701
      9 N           7.2795   -9.5684   27.2669 N.am    1  UNL1       -0.2943
     10 H           6.4133   -9.5413   26.7998 H       1  UNL1        0.1501
     11 C           7.6650  -10.7801   28.0626 C.3     1  UNL1        0.1579
     12 C           6.6446  -11.8392   28.3580 C.ar    1  UNL1        0.1738
     13 C           5.1702  -11.7392   28.1005 C.ar    1  UNL1        0.0553
     14 C           4.5337  -13.0223   28.5461 C.ar    1  UNL1        0.1000
     15 N           5.6148  -13.9153   29.0789 N.ar    1  UNL1       -0.0817
     16 O           6.9193  -13.1841   28.9627 O.2     1  UNL1       -0.3563
     17 C           3.0728  -13.3542   28.4718 C.3     1  UNL1        0.0436
     18 C           2.0878  -12.5959   29.3114 C.3     1  UNL1        0.0064
     19 C           2.5969  -14.4444   27.5581 C.3     1  UNL1        0.0064
     20 C           6.5654   -3.6374   22.5063 C.3     1  UNL1        0.2526
     21 O           6.6720   -3.5511   24.0000 O.3     1  UNL1       -0.4684
     22 O           6.2265   -3.6017   26.9663 O.3     1  UNL1       -0.4709
     23 C           7.0634   -2.3903   27.2526 C.3     1  UNL1        0.2228
     24 C           6.7820   -1.5538   28.4656 C.3     1  UNL1        0.1200
     25 N           6.5867   -2.2099   29.8003 N.3     1  UNL1       -0.2696
     26 C           5.5529   -1.6831   30.7508 C.3     1  UNL1        0.0722
     27 C           5.3576   -2.3391   32.0856 C.3     1  UNL1        0.0174
     28 C           6.1961   -3.5221   32.4697 C.3     1  UNL1        0.0029
     29 C           7.2300   -4.0489   31.5190 C.3     1  UNL1        0.0174
     30 C           7.4252   -3.3928   30.1844 C.3     1  UNL1        0.0722
@<TRIPOS>BOND
     1    20    21    1
     2    21     1    1
     3     1     2   ar
     4     2     3   ar
     5     3     4   ar
     6     4     7    1
     7     7     8    2
     8     7     9   am
     9     9    11    1
    10    11    12    1
    11    12    13   ar
    12    13    14   ar
    13    14    17    1
    14    17    18    1
    15    17    19    1
    16    14    15   ar
    17    15    16   ar
    18     4     5   ar
    19     5     6   ar
    20     6    22    1
    21    22    23    1
    22    23    24    1
    23    24    25    1
    24    25    26    1
    25    26    27    1
    26    27    28    1
    27    28    29    1
    28    29    30    1
    29     6     1   ar
    30    30    25    1
    31    16    12   ar
    32     9    10    1
