@<TRIPOS>MOLECULE
*****
 40 44 0 0 0
SMALL
GASTEIGER

@<TRIPOS>ATOM
      1 C           0.8016    3.2549   30.5160 C.ar    1  UNL1       -0.0025
      2 C           0.6573    4.0133   29.2300 C.ar    1  UNL1       -0.0014
      3 C           0.9892    3.3496   27.9264 C.ar    1  UNL1        0.0142
      4 C           1.4652    1.9272   27.9088 C.ar    1  UNL1        0.0479
      5 C           1.6094    1.1687   29.1948 C.ar    1  UNL1        0.0142
      6 C           1.2776    1.8325   30.4984 C.ar    1  UNL1       -0.0014
      7 N           1.7970    1.2634   26.6053 N.pl3   1  UNL1       -0.3041
      8 C           2.9962    0.3681   26.5034 C.3     1  UNL1        0.1122
      9 C           3.3280   -0.2957   25.1999 C.3     1  UNL1        0.1122
     10 N           2.4607   -0.0641   23.9982 N.pl3   1  UNL1       -0.3041
     11 C           1.2615    0.8312   24.1000 C.3     1  UNL1        0.1122
     12 C           0.9297    1.4950   25.4035 C.3     1  UNL1        0.1122
     13 C           2.7925   -0.7279   22.6946 C.ar    1  UNL1        0.0481
     14 C           3.8361   -1.8042   22.6452 C.ar    1  UNL1        0.0176
     15 C           4.1679   -2.4679   21.3417 C.ar    1  UNL1        0.0385
     16 C           3.4561   -2.0554   20.0874 C.ar    1  UNL1        0.1469
     17 C           2.4125   -0.9792   20.1368 C.ar    1  UNL1        0.0385
     18 C           2.0807   -0.3154   21.4403 C.ar    1  UNL1        0.0176
     19 O           3.7879   -2.7192   18.7838 O.3     1  UNL1       -0.4045
     20 C           4.2409   -4.1490   18.7642 C.3     1  UNL1        0.5753
     21 F           4.6939   -5.5788   18.7446 F       1  UNL1       -0.1328
     22 F           2.8394   -4.5971   19.0559 F       1  UNL1       -0.1328
     23 F           5.6424   -3.7010   18.4725 F       1  UNL1       -0.1328
     24 C           0.4697    3.9186   31.8195 C.3     1  UNL1        0.1166
     25 C           2.0048    3.8726   33.9151 C.2     1  UNL1        0.2635
     26 O           2.7113    5.1016   33.4245 O.2     1  UNL1       -0.2685
     27 N           0.8841    3.2812   33.1126 N.am    1  UNL1       -0.2957
     28 H           0.4204    2.4746   33.4346 H       1  UNL1        0.1501
     29 C           2.0578    3.7143   36.5829 C.ar    1  UNL1        0.0811
     30 N           2.6829    2.7819   37.5778 N.ar    1  UNL1       -0.2306
     31 C           3.4306    1.7266   36.8180 C.ar    1  UNL1        0.1475
     32 C           4.2389    0.5469   37.2706 C.ar    1  UNL1        0.0383
     33 C           4.8841   -0.3528   36.2585 C.ar    1  UNL1        0.0160
     34 C           4.7211   -0.0726   34.7940 C.ar    1  UNL1        0.0753
     35 CL          5.3663   -0.9724   33.7819 Cl      1  UNL1       -0.0807
     36 C           3.9128    1.1071   34.3414 C.ar    1  UNL1        0.0929
     37 N           3.2676    2.0068   35.3535 N.ar    1  UNL1       -0.2845
     38 C           2.4192    3.2352   35.2082 C.ar    1  UNL1        0.1326
     39 C           1.7075    6.2885   36.5536 C.3     1  UNL1        0.0067
     40 C           1.2186    4.9149   36.9059 C.3     1  UNL1        0.0475
@<TRIPOS>BOND
     1    39    40    1
     2    40    29    1
     3    29    30   ar
     4    30    31   ar
     5    31    32   ar
     6    32    33   ar
     7    33    34   ar
     8    34    35    1
     9    34    36   ar
    10    36    37   ar
    11    37    38   ar
    12    38    25    1
    13    25    26    2
    14    25    27   am
    15    27    24    1
    16    24     1    1
    17     1     2   ar
    18     2     3   ar
    19     3     4   ar
    20     4     7    1
    21     7     8    1
    22     8     9    1
    23     9    10    1
    24    10    13    1
    25    13    14   ar
    26    14    15   ar
    27    15    16   ar
    28    16    19    1
    29    19    20    1
    30    20    21    1
    31    20    22    1
    32    20    23    1
    33    16    17   ar
    34    17    18   ar
    35    10    11    1
    36    11    12    1
    37     4     5   ar
    38     5     6   ar
    39    38    29   ar
    40     6     1   ar
    41    37    31   ar
    42    12     7    1
    43    18    13   ar
    44    27    28    1
@<TRIPOS>MOLECULE
*****
 40 44 0 0 0
SMALL
GASTEIGER

@<TRIPOS>ATOM
      1 C           1.3428    2.2088   31.1309 C.ar    1  UNL1       -0.0025
      2 C           2.1211    0.9371   30.9664 C.ar    1  UNL1       -0.0014
      3 C           2.4238    0.4153   29.5931 C.ar    1  UNL1        0.0142
      4 C           1.9483    1.1652   28.3841 C.ar    1  UNL1        0.0479
      5 C           1.1700    2.4368   28.5486 C.ar    1  UNL1        0.0142
      6 C           0.8672    2.9587   29.9219 C.ar    1  UNL1       -0.0014
      7 N           2.2510    0.6434   27.0108 N.pl3   1  UNL1       -0.3041
      8 C           1.5634    1.2340   25.8157 C.3     1  UNL1        0.1122
      9 C           1.8662    0.7122   24.4424 C.3     1  UNL1        0.1122
     10 N           2.8565   -0.4002   24.2642 N.pl3   1  UNL1       -0.3041
     11 C           3.5441   -0.9908   25.4593 C.3     1  UNL1        0.1122
     12 C           3.2414   -0.4690   26.8326 C.3     1  UNL1        0.1122
     13 C           3.1593   -0.9220   22.8908 C.ar    1  UNL1        0.0481
     14 C           4.2854   -1.8920   22.6884 C.ar    1  UNL1        0.0176
     15 C           4.5881   -2.4138   21.3151 C.ar    1  UNL1        0.0385
     16 C           3.7648   -1.9656   20.1441 C.ar    1  UNL1        0.1469
     17 C           2.6387   -0.9956   20.3465 C.ar    1  UNL1        0.0385
     18 C           2.3360   -0.4738   21.7198 C.ar    1  UNL1        0.0176
     19 O           4.0675   -2.4874   18.7708 O.3     1  UNL1       -0.4045
     20 C           4.3642   -3.9441   18.5705 C.3     1  UNL1        0.5753
     21 F           4.6608   -5.4007   18.3702 F       1  UNL1       -0.1328
     22 F           5.7856   -3.6077   18.2293 F       1  UNL1       -0.1328
     23 F           2.9427   -4.2804   18.9117 F       1  UNL1       -0.1328
     24 C           1.0400    2.7306   32.5042 C.3     1  UNL1        0.1166
     25 C           3.0988    2.4449   34.0629 C.2     1  UNL1        0.2635
     26 O           3.8708    3.4176   33.2214 O.2     1  UNL1       -0.2685
     27 N           1.6835    2.1015   33.7043 N.am    1  UNL1       -0.2957
     28 H           1.1768    1.4631   34.2566 H       1  UNL1        0.1501
     29 C           4.2881    0.4208   35.3411 C.ar    1  UNL1        0.0811
     30 N           4.8361    0.2142   36.7220 N.ar    1  UNL1       -0.2306
     31 C           4.6288    1.4814   37.4975 C.ar    1  UNL1        0.1475
     32 C           4.9683    1.8618   38.9081 C.ar    1  UNL1        0.0383
     33 C           4.6318    3.2320   39.4170 C.ar    1  UNL1        0.0160
     34 C           3.9558    4.2219   38.5153 C.ar    1  UNL1        0.0753
     35 CL          3.6193    5.5923   39.0243 Cl      1  UNL1       -0.0807
     36 C           3.6163    3.8415   37.1046 C.ar    1  UNL1        0.0929
     37 N           3.9528    2.4712   36.5957 N.ar    1  UNL1       -0.2845
     38 C           3.7423    1.8158   35.2630 C.ar    1  UNL1        0.1326
     39 C           5.5768   -1.2012   33.7732 C.3     1  UNL1        0.0067
     40 C           4.2864   -0.5900   34.2328 C.3     1  UNL1        0.0475
@<TRIPOS>BOND
     1    39    40    1
     2    40    29    1
     3    29    30   ar
     4    30    31   ar
     5    31    32   ar
     6    32    33   ar
     7    33    34   ar
     8    34    35    1
     9    34    36   ar
    10    36    37   ar
    11    37    38   ar
    12    38    25    1
    13    25    26    2
    14    25    27   am
    15    27    24    1
    16    24     1    1
    17     1     2   ar
    18     2     3   ar
    19     3     4   ar
    20     4     7    1
    21     7     8    1
    22     8     9    1
    23     9    10    1
    24    10    13    1
    25    13    14   ar
    26    14    15   ar
    27    15    16   ar
    28    16    19    1
    29    19    20    1
    30    20    21    1
    31    20    22    1
    32    20    23    1
    33    16    17   ar
    34    17    18   ar
    35    10    11    1
    36    11    12    1
    37     4     5   ar
    38     5     6   ar
    39    38    29   ar
    40     6     1   ar
    41    37    31   ar
    42    12     7    1
    43    18    13   ar
    44    27    28    1
@<TRIPOS>MOLECULE
*****
 40 44 0 0 0
SMALL
GASTEIGER

@<TRIPOS>ATOM
      1 C          -3.8657    4.4048   24.3691 C.ar    1  UNL1       -0.0025
      2 C          -4.3088    4.2102   25.7888 C.ar    1  UNL1       -0.0014
      3 C          -3.3705    3.6063   26.7913 C.ar    1  UNL1        0.0142
      4 C          -1.9891    3.1970   26.3740 C.ar    1  UNL1        0.0479
      5 C          -1.5460    3.3916   24.9543 C.ar    1  UNL1        0.0142
      6 C          -2.4842    3.9955   23.9518 C.ar    1  UNL1       -0.0014
      7 N          -1.0508    2.5931   27.3765 N.pl3   1  UNL1       -0.3041
      8 C           0.1278    3.3792   27.8691 C.3     1  UNL1        0.1122
      9 C           1.0661    2.7753   28.8716 C.3     1  UNL1        0.1122
     10 N           0.8257    1.3852   29.3814 N.pl3   1  UNL1       -0.3041
     11 C          -0.3530    0.5991   28.8888 C.3     1  UNL1        0.1122
     12 C          -1.2912    1.2030   27.8863 C.3     1  UNL1        0.1122
     13 C           1.7639    0.7813   30.3839 C.ar    1  UNL1        0.0481
     14 C           2.4171   -0.5387   30.0997 C.ar    1  UNL1        0.0176
     15 C           3.3554   -1.1426   31.1022 C.ar    1  UNL1        0.0385
     16 C           3.6405   -0.4265   32.3889 C.ar    1  UNL1        0.1469
     17 C           2.9873    0.8936   32.6732 C.ar    1  UNL1        0.0385
     18 C           2.0491    1.4975   31.6707 C.ar    1  UNL1        0.0176
     19 O           4.5787   -1.0304   33.3914 O.3     1  UNL1       -0.4045
     20 C           5.2020   -2.3683   33.1242 C.3     1  UNL1        0.5753
     21 F           5.8253   -3.7062   32.8571 F       1  UNL1       -0.1328
     22 F           6.3703   -1.6932   32.4690 F       1  UNL1       -0.1328
     23 F           4.0337   -3.0434   33.7794 F       1  UNL1       -0.1328
     24 C          -4.8039    5.0087   23.3666 C.3     1  UNL1        0.1166
     25 C          -4.3994    3.7656   21.1214 C.2     1  UNL1        0.2635
     26 O          -4.7398    2.4624   21.7817 O.2     1  UNL1       -0.2685
     27 N          -4.4315    5.0387   21.9139 N.am    1  UNL1       -0.2957
     28 H          -4.2081    5.8940   21.4805 H       1  UNL1        0.1501
     29 C          -4.9739    3.6634   18.5128 C.ar    1  UNL1        0.0811
     30 N          -4.1744    3.7492   17.2466 N.ar    1  UNL1       -0.2306
     31 C          -2.7334    3.9343   17.6198 C.ar    1  UNL1        0.1475
     32 C          -1.4924    4.0805   16.7900 C.ar    1  UNL1        0.0383
     33 C          -0.1604    4.2554   17.4571 C.ar    1  UNL1        0.0160
     34 C          -0.0694    4.2841   18.9540 C.ar    1  UNL1        0.0753
     35 CL          1.2628    4.4590   19.6212 Cl      1  UNL1       -0.0807
     36 C          -1.3103    4.1379   19.7839 C.ar    1  UNL1        0.0929
     37 N          -2.6423    3.9630   19.1168 N.ar    1  UNL1       -0.2845
     38 C          -4.0270    3.7956   19.6687 C.ar    1  UNL1        0.1326
     39 C          -7.3387    4.6386   18.9671 C.3     1  UNL1        0.0067
     40 C          -6.4594    3.4780   18.6068 C.3     1  UNL1        0.0475
@<TRIPOS>BOND
     1    39    40    1
     2    40    29    1
     3    29    30   ar
     4    30    31   ar
     5    31    32   ar
     6    32    33   ar
     7    33    34   ar
     8    34    35    1
     9    34    36   ar
    10    36    37   ar
    11    37    38   ar
    12    38    25    1
    13    25    26    2
    14    25    27   am
    15    27    24    1
    16    24     1    1
    17     1     2   ar
    18     2     3   ar
    19     3     4   ar
    20     4     7    1
    21     7     8    1
    22     8     9    1
    23     9    10    1
    24    10    13    1
    25    13    14   ar
    26    14    15   ar
    27    15    16   ar
    28    16    19    1
    29    19    20    1
    30    20    21    1
    31    20    22    1
    32    20    23    1
    33    16    17   ar
    34    17    18   ar
    35    10    11    1
    36    11    12    1
    37     4     5   ar
    38     5     6   ar
    39    38    29   ar
    40     6     1   ar
    41    37    31   ar
    42    12     7    1
    43    18    13   ar
    44    27    28    1
@<TRIPOS>MOLECULE
*****
 40 44 0 0 0
SMALL
GASTEIGER

@<TRIPOS>ATOM
      1 C           0.9713    1.2061   24.5885 C.ar    1  UNL1       -0.0025
      2 C          -0.0522    1.3764   25.6717 C.ar    1  UNL1       -0.0014
      3 C           0.3588    1.2925   27.1118 C.ar    1  UNL1        0.0142
      4 C           1.7933    1.0383   27.4688 C.ar    1  UNL1        0.0479
      5 C           2.8168    0.8680   26.3857 C.ar    1  UNL1        0.0142
      6 C           2.4059    0.9519   24.9455 C.ar    1  UNL1       -0.0014
      7 N           2.2042    0.9544   28.9090 N.pl3   1  UNL1       -0.3041
      8 C           2.3998    2.2091   29.7074 C.3     1  UNL1        0.1122
      9 C           2.8107    2.1252   31.1476 C.3     1  UNL1        0.1122
     10 N           3.0261    0.7866   31.7893 N.pl3   1  UNL1       -0.3041
     11 C           2.8306   -0.4680   30.9909 C.3     1  UNL1        0.1122
     12 C           2.4197   -0.3842   29.5507 C.3     1  UNL1        0.1122
     13 C           3.4371    0.7028   33.2295 C.ar    1  UNL1        0.0481
     14 C           3.0488    1.7919   34.1849 C.ar    1  UNL1        0.0176
     15 C           3.4597    1.7080   35.6251 C.ar    1  UNL1        0.0385
     16 C           4.2590    0.5349   36.1099 C.ar    1  UNL1        0.1469
     17 C           4.6473   -0.5542   35.1544 C.ar    1  UNL1        0.0385
     18 C           4.2363   -0.4703   33.7143 C.ar    1  UNL1        0.0176
     19 O           4.6699    0.4510   37.5500 O.3     1  UNL1       -0.4045
     20 C           4.3572    1.5805   38.4862 C.3     1  UNL1        0.5753
     21 F           4.0444    2.7100   39.4224 F       1  UNL1       -0.1328
     22 F           5.6202    2.2747   38.0706 F       1  UNL1       -0.1328
     23 F           3.0941    0.8863   38.9018 F       1  UNL1       -0.1328
     24 C           0.5604    1.2900   23.1483 C.3     1  UNL1        0.1166
     25 C           1.2098    0.5875   20.7328 C.2     1  UNL1        0.2635
     26 O          -0.2012    0.1440   20.4825 O.2     1  UNL1       -0.2685
     27 N           1.5905    1.1605   22.0657 N.am    1  UNL1       -0.2957
     28 H           2.5165    1.4516   22.2299 H       1  UNL1        0.1501
     29 C           2.6600    1.5391   18.6990 C.ar    1  UNL1        0.0811
     30 N           3.7105    0.9739   17.7896 N.ar    1  UNL1       -0.2306
     31 C           3.9396   -0.4566   18.1787 C.ar    1  UNL1        0.1475
     32 C           4.8584   -1.5099   17.6345 C.ar    1  UNL1        0.0383
     33 C           4.8683   -2.8821   18.2403 C.ar    1  UNL1        0.0160
     34 C           3.9594   -3.2010   19.3902 C.ar    1  UNL1        0.0753
     35 CL          3.9694   -4.5732   19.9959 Cl      1  UNL1       -0.0807
     36 C           3.0406   -2.1476   19.9343 C.ar    1  UNL1        0.0929
     37 N           3.0307   -0.7754   19.3286 N.ar    1  UNL1       -0.2845
     38 C           2.2399    0.4580   19.6501 C.ar    1  UNL1        0.1326
     39 C           0.7047    3.1889   18.2464 C.3     1  UNL1        0.0067
     40 C           2.1238    2.9395   18.6634 C.3     1  UNL1        0.0475
@<TRIPOS>BOND
     1    39    40    1
     2    40    29    1
     3    29    30   ar
     4    30    31   ar
     5    31    32   ar
     6    32    33   ar
     7    33    34   ar
     8    34    35    1
     9    34    36   ar
    10    36    37   ar
    11    37    38   ar
    12    38    25    1
    13    25    26    2
    14    25    27   am
    15    27    24    1
    16    24     1    1
    17     1     2   ar
    18     2     3   ar
    19     3     4   ar
    20     4     7    1
    21     7     8    1
    22     8     9    1
    23     9    10    1
    24    10    13    1
    25    13    14   ar
    26    14    15   ar
    27    15    16   ar
    28    16    19    1
    29    19    20    1
    30    20    21    1
    31    20    22    1
    32    20    23    1
    33    16    17   ar
    34    17    18   ar
    35    10    11    1
    36    11    12    1
    37     4     5   ar
    38     5     6   ar
    39    38    29   ar
    40     6     1   ar
    41    37    31   ar
    42    12     7    1
    43    18    13   ar
    44    27    28    1
@<TRIPOS>MOLECULE
*****
 40 44 0 0 0
SMALL
GASTEIGER

@<TRIPOS>ATOM
      1 C           5.8476   -2.6178   25.4668 C.ar    1  UNL1       -0.0025
      2 C           4.8935   -1.4891   25.7228 C.ar    1  UNL1       -0.0014
      3 C           4.6400   -1.0249   27.1264 C.ar    1  UNL1        0.0142
      4 C           5.3406   -1.6894   28.2742 C.ar    1  UNL1        0.0479
      5 C           6.2947   -2.8182   28.0183 C.ar    1  UNL1        0.0142
      6 C           6.5482   -3.2824   26.6147 C.ar    1  UNL1       -0.0014
      7 N           5.0871   -1.2252   29.6779 N.pl3   1  UNL1       -0.3041
      8 C           3.8040   -0.5258   30.0163 C.3     1  UNL1        0.1122
      9 C           3.5505   -0.0616   31.4200 C.3     1  UNL1        0.1122
     10 N           4.5801   -0.2969   32.4852 N.pl3   1  UNL1       -0.3041
     11 C           5.8631   -0.9963   32.1468 C.3     1  UNL1        0.1122
     12 C           6.1166   -1.4605   30.7431 C.3     1  UNL1        0.1122
     13 C           4.3266    0.1673   33.8888 C.ar    1  UNL1        0.0481
     14 C           4.9157   -0.5844   35.0454 C.ar    1  UNL1        0.0176
     15 C           4.6622   -0.1203   36.4490 C.ar    1  UNL1        0.0385
     16 C           3.8195    1.0958   36.6962 C.ar    1  UNL1        0.1469
     17 C           3.2304    1.8476   35.5396 C.ar    1  UNL1        0.0385
     18 C           3.4839    1.3834   34.1360 C.ar    1  UNL1        0.0176
     19 O           3.5660    1.5600   38.0998 O.3     1  UNL1       -0.4045
     20 C           2.1810    1.9526   38.5213 C.3     1  UNL1        0.5753
     21 F           0.7961    2.3453   38.9427 F       1  UNL1       -0.1328
     22 F           1.7844    0.5067   38.5651 F       1  UNL1       -0.1328
     23 F           2.5776    3.3986   38.4775 F       1  UNL1       -0.1328
     24 C           6.1011   -3.0820   24.0632 C.3     1  UNL1        0.1166
     25 C           4.5761   -3.0150   21.9609 C.2     1  UNL1        0.2635
     26 O           4.2218   -4.4573   22.1720 O.2     1  UNL1       -0.2685
     27 N           5.5157   -2.3275   22.9065 N.am    1  UNL1       -0.2957
     28 H           5.7483   -1.3809   22.7679 H       1  UNL1        0.1501
     29 C           4.2508   -2.5321   19.3520 C.ar    1  UNL1        0.0811
     30 N           3.4633   -1.5413   18.5469 N.ar    1  UNL1       -0.2306
     31 C           2.7166   -0.6574   19.5014 C.ar    1  UNL1        0.1475
     32 C           1.7820    0.4948   19.2804 C.ar    1  UNL1        0.0383
     33 C           1.1733    1.2026   20.4546 C.ar    1  UNL1        0.0160
     34 C           1.4993    0.7581   21.8496 C.ar    1  UNL1        0.0753
     35 CL          0.8906    1.4659   23.0238 Cl      1  UNL1       -0.0807
     36 C           2.4339   -0.3941   22.0706 C.ar    1  UNL1        0.0929
     37 N           3.0426   -1.1018   20.8964 N.ar    1  UNL1       -0.2845
     38 C           3.9907   -2.2605   20.8041 C.ar    1  UNL1        0.1326
     39 C           4.6613   -5.0260   18.7503 C.3     1  UNL1        0.0067
     40 C           5.1418   -3.6060   18.8017 C.3     1  UNL1        0.0475
@<TRIPOS>BOND
     1    39    40    1
     2    40    29    1
     3    29    30   ar
     4    30    31   ar
     5    31    32   ar
     6    32    33   ar
     7    33    34   ar
     8    34    35    1
     9    34    36   ar
    10    36    37   ar
    11    37    38   ar
    12    38    25    1
    13    25    26    2
    14    25    27   am
    15    27    24    1
    16    24     1    1
    17     1     2   ar
    18     2     3   ar
    19     3     4   ar
    20     4     7    1
    21     7     8    1
    22     8     9    1
    23     9    10    1
    24    10    13    1
    25    13    14   ar
    26    14    15   ar
    27    15    16   ar
    28    16    19    1
    29    19    20    1
    30    20    21    1
    31    20    22    1
    32    20    23    1
    33    16    17   ar
    34    17    18   ar
    35    10    11    1
    36    11    12    1
    37     4     5   ar
    38     5     6   ar
    39    38    29   ar
    40     6     1   ar
    41    37    31   ar
    42    12     7    1
    43    18    13   ar
    44    27    28    1
@<TRIPOS>MOLECULE
*****
 40 44 0 0 0
SMALL
GASTEIGER

@<TRIPOS>ATOM
      1 C           5.0161   -0.1846   32.4835 C.ar    1  UNL1       -0.0025
      2 C           5.9725   -1.1353   31.8268 C.ar    1  UNL1       -0.0014
      3 C           5.8460   -1.4344   30.3624 C.ar    1  UNL1        0.0142
      4 C           4.7629   -0.7829   29.5547 C.ar    1  UNL1        0.0479
      5 C           3.8064    0.1678   30.2114 C.ar    1  UNL1        0.0142
      6 C           3.9330    0.4670   31.6758 C.ar    1  UNL1       -0.0014
      7 N           4.6363   -1.0821   28.0903 N.pl3   1  UNL1       -0.3041
      8 C           5.6167   -2.0022   27.4253 C.3     1  UNL1        0.1122
      9 C           5.4901   -2.3014   25.9609 C.3     1  UNL1        0.1122
     10 N           4.3832   -1.6804   25.1615 N.pl3   1  UNL1       -0.3041
     11 C           3.4028   -0.7602   25.8264 C.3     1  UNL1        0.1122
     12 C           3.5294   -0.4611   27.2908 C.3     1  UNL1        0.1122
     13 C           4.2566   -1.9796   23.6971 C.ar    1  UNL1        0.0481
     14 C           4.9698   -3.1606   23.1085 C.ar    1  UNL1        0.0176
     15 C           4.8433   -3.4597   21.6441 C.ar    1  UNL1        0.0385
     16 C           4.0035   -2.5779   20.7682 C.ar    1  UNL1        0.1469
     17 C           3.2903   -1.3969   21.3569 C.ar    1  UNL1        0.0385
     18 C           3.4168   -1.0977   22.8213 C.ar    1  UNL1        0.0176
     19 O           3.8769   -2.8770   19.3038 O.3     1  UNL1       -0.4045
     20 C           4.3002   -4.2142   18.7722 C.3     1  UNL1        0.5753
     21 F           4.7236   -5.5515   18.2406 F       1  UNL1       -0.1328
     22 F           5.6288   -3.6382   18.3812 F       1  UNL1       -0.1328
     23 F           2.9716   -4.7903   19.1633 F       1  UNL1       -0.1328
     24 C           5.1426    0.1146   33.9479 C.3     1  UNL1        0.1166
     25 C           4.4811    2.0115   35.5954 C.2     1  UNL1        0.2635
     26 O           5.9317    2.2928   35.8539 O.2     1  UNL1       -0.2685
     27 N           4.0867    0.9224   34.6424 N.am    1  UNL1       -0.2957
     28 H           3.1346    0.7378   34.4727 H       1  UNL1        0.1501
     29 C           3.0913    4.2558   36.0156 C.ar    1  UNL1        0.0811
     30 N           1.9775    4.6568   36.9368 N.ar    1  UNL1       -0.2306
     31 C           1.6229    3.4682   37.7803 C.ar    1  UNL1        0.1475
     32 C           0.6009    3.2732   38.8607 C.ar    1  UNL1        0.0383
     33 C           0.4736    1.9426   39.5414 C.ar    1  UNL1        0.0160
     34 C           1.3684    0.8070   39.1415 C.ar    1  UNL1        0.0753
     35 CL          1.2411   -0.5236   39.8222 Cl      1  UNL1       -0.0807
     36 C           2.3903    1.0020   38.0611 C.ar    1  UNL1        0.0929
     37 N           2.5176    2.3326   37.3804 N.ar    1  UNL1       -0.2845
     38 C           3.4251    2.8194   36.2898 C.ar    1  UNL1        0.1326
     39 C           3.0313    6.3337   34.4572 C.3     1  UNL1        0.0067
     40 C           3.7549    5.1366   34.9988 C.3     1  UNL1        0.0475
@<TRIPOS>BOND
     1    39    40    1
     2    40    29    1
     3    29    30   ar
     4    30    31   ar
     5    31    32   ar
     6    32    33   ar
     7    33    34   ar
     8    34    35    1
     9    34    36   ar
    10    36    37   ar
    11    37    38   ar
    12    38    25    1
    13    25    26    2
    14    25    27   am
    15    27    24    1
    16    24     1    1
    17     1     2   ar
    18     2     3   ar
    19     3     4   ar
    20     4     7    1
    21     7     8    1
    22     8     9    1
    23     9    10    1
    24    10    13    1
    25    13    14   ar
    26    14    15   ar
    27    15    16   ar
    28    16    19    1
    29    19    20    1
    30    20    21    1
    31    20    22    1
    32    20    23    1
    33    16    17   ar
    34    17    18   ar
    35    10    11    1
    36    11    12    1
    37     4     5   ar
    38     5     6   ar
    39    38    29   ar
    40     6     1   ar
    41    37    31   ar
    42    12     7    1
    43    18    13   ar
    44    27    28    1
@<TRIPOS>MOLECULE
*****
 40 44 0 0 0
SMALL
GASTEIGER

@<TRIPOS>ATOM
      1 C           0.8594    1.2768   24.2993 C.ar    1  UNL1       -0.0025
      2 C           2.1260    0.9127   25.0156 C.ar    1  UNL1       -0.0014
      3 C           2.2728    1.2110   26.4783 C.ar    1  UNL1        0.0142
      4 C           1.1530    1.8734   27.2247 C.ar    1  UNL1        0.0479
      5 C          -0.1136    2.2375   26.5084 C.ar    1  UNL1        0.0142
      6 C          -0.2604    1.9392   25.0457 C.ar    1  UNL1       -0.0014
      7 N           1.2998    2.1718   28.6874 N.pl3   1  UNL1       -0.3041
      8 C           1.9909    1.1906   29.5872 C.3     1  UNL1        0.1122
      9 C           2.1377    1.4890   31.0499 C.3     1  UNL1        0.1122
     10 N           1.5935    2.7684   31.6127 N.pl3   1  UNL1       -0.3041
     11 C           0.9024    3.7496   30.7129 C.3     1  UNL1        0.1122
     12 C           0.7555    3.4512   29.2502 C.3     1  UNL1        0.1122
     13 C           1.7403    3.0667   33.0754 C.ar    1  UNL1        0.0481
     14 C           1.1953    4.3458   33.6384 C.ar    1  UNL1        0.0176
     15 C           1.3421    4.6441   35.1011 C.ar    1  UNL1        0.0385
     16 C           2.0339    3.6634   36.0008 C.ar    1  UNL1        0.1469
     17 C           2.5789    2.3843   35.4378 C.ar    1  UNL1        0.0385
     18 C           2.4321    2.0860   33.9751 C.ar    1  UNL1        0.0176
     19 O           2.1808    3.9617   37.4635 O.3     1  UNL1       -0.4045
     20 C           1.9320    2.8845   38.4773 C.3     1  UNL1        0.5753
     21 F           1.6832    1.8073   39.4911 F       1  UNL1       -0.1328
     22 F           3.3964    2.5601   38.4919 F       1  UNL1       -0.1328
     23 F           0.4676    3.2089   38.4627 F       1  UNL1       -0.1328
     24 C           0.7126    0.9784   22.8366 C.3     1  UNL1        0.1166
     25 C           1.7811    0.4003   20.5401 C.2     1  UNL1        0.2635
     26 O           0.4165    0.3440   19.9195 O.2     1  UNL1       -0.2685
     27 N           1.9290    0.7176   21.9986 N.am    1  UNL1       -0.2957
     28 H           2.8245    0.7546   22.4059 H       1  UNL1        0.1501
     29 C           3.8461    1.1792   19.0321 C.ar    1  UNL1        0.0811
     30 N           4.9519    0.4753   18.3028 N.ar    1  UNL1       -0.2306
     31 C           4.7867   -0.9994   18.5221 C.ar    1  UNL1        0.1475
     32 C           5.5801   -2.1800   18.0460 C.ar    1  UNL1        0.0383
     33 C           5.1656   -3.5681   18.4347 C.ar    1  UNL1        0.0160
     34 C           3.9576   -3.7757   19.2995 C.ar    1  UNL1        0.0753
     35 CL          3.5431   -5.1639   19.6882 Cl      1  UNL1       -0.0807
     36 C           3.1642   -2.5951   19.7756 C.ar    1  UNL1        0.0929
     37 N           3.5788   -1.2069   19.3868 N.ar    1  UNL1       -0.2845
     38 C           2.9975    0.1395   19.7020 C.ar    1  UNL1        0.1326
     39 C           2.4364    3.2683   18.4012 C.3     1  UNL1        0.0067
     40 C           3.6273    2.6623   19.0825 C.3     1  UNL1        0.0475
@<TRIPOS>BOND
     1    39    40    1
     2    40    29    1
     3    29    30   ar
     4    30    31   ar
     5    31    32   ar
     6    32    33   ar
     7    33    34   ar
     8    34    35    1
     9    34    36   ar
    10    36    37   ar
    11    37    38   ar
    12    38    25    1
    13    25    26    2
    14    25    27   am
    15    27    24    1
    16    24     1    1
    17     1     2   ar
    18     2     3   ar
    19     3     4   ar
    20     4     7    1
    21     7     8    1
    22     8     9    1
    23     9    10    1
    24    10    13    1
    25    13    14   ar
    26    14    15   ar
    27    15    16   ar
    28    16    19    1
    29    19    20    1
    30    20    21    1
    31    20    22    1
    32    20    23    1
    33    16    17   ar
    34    17    18   ar
    35    10    11    1
    36    11    12    1
    37     4     5   ar
    38     5     6   ar
    39    38    29   ar
    40     6     1   ar
    41    37    31   ar
    42    12     7    1
    43    18    13   ar
    44    27    28    1
@<TRIPOS>MOLECULE
*****
 40 44 0 0 0
SMALL
GASTEIGER

@<TRIPOS>ATOM
      1 C           5.6590   -3.5110   23.7135 C.ar    1  UNL1       -0.0025
      2 C           5.1397   -2.3204   24.4637 C.ar    1  UNL1       -0.0014
      3 C           4.1905   -1.3694   23.7970 C.ar    1  UNL1        0.0142
      4 C           3.7605   -1.6089   22.3801 C.ar    1  UNL1        0.0479
      5 C           4.2798   -2.7994   21.6299 C.ar    1  UNL1        0.0142
      6 C           5.2290   -3.7505   22.2965 C.ar    1  UNL1       -0.0014
      7 N           2.8113   -0.6578   21.7134 N.pl3   1  UNL1       -0.3041
      8 C           2.4245    0.6193   22.3985 C.3     1  UNL1        0.1122
      9 C           1.4753    1.5704   21.7319 C.3     1  UNL1        0.1122
     10 N           0.9129    1.2443   20.3801 N.pl3   1  UNL1       -0.3041
     11 C           1.2996   -0.0328   19.6950 C.3     1  UNL1        0.1122
     12 C           2.2488   -0.9838   20.3616 C.3     1  UNL1        0.1122
     13 C          -0.0364    2.1954   19.7134 C.ar    1  UNL1        0.0481
     14 C           0.1930    2.6096   18.2902 C.ar    1  UNL1        0.0176
     15 C          -0.7562    3.5607   17.6235 C.ar    1  UNL1        0.0385
     16 C          -1.9349    4.0976   18.3801 C.ar    1  UNL1        0.1469
     17 C          -2.1643    3.6833   19.8034 C.ar    1  UNL1        0.0385
     18 C          -1.2150    2.7323   20.4700 C.ar    1  UNL1        0.0176
     19 O          -2.8841    5.0486   17.7135 O.3     1  UNL1       -0.4045
     20 C          -4.3439    4.7146   17.6281 C.3     1  UNL1        0.5753
     21 F          -5.8038    4.3807   17.5428 F       1  UNL1       -0.1328
     22 F          -4.0131    3.4618   16.8725 F       1  UNL1       -0.1328
     23 F          -4.6747    5.9675   18.3837 F       1  UNL1       -0.1328
     24 C           6.6082   -4.4621   24.3802 C.3     1  UNL1        0.1166
     25 C           7.7448   -4.9256   26.6700 C.2     1  UNL1        0.2635
     26 O           9.0914   -4.8812   26.0105 O.2     1  UNL1       -0.2685
     27 N           6.5033   -4.7160   25.8548 N.am    1  UNL1       -0.2957
     28 H           5.6195   -4.7451   26.2876 H       1  UNL1        0.1501
     29 C           8.0810   -6.4226   28.8587 C.ar    1  UNL1        0.0811
     30 N           7.7892   -6.2463   30.3195 N.ar    1  UNL1       -0.2306
     31 C           7.1677   -4.8942   30.5081 C.ar    1  UNL1        0.1475
     32 C           6.6739   -4.1782   31.7301 C.ar    1  UNL1        0.0383
     33 C           6.0878   -2.8028   31.6080 C.ar    1  UNL1        0.0160
     34 C           5.9955   -2.1435   30.2638 C.ar    1  UNL1        0.0753
     35 CL          5.4094   -0.7681   30.1418 Cl      1  UNL1       -0.0807
     36 C           6.4893   -2.8595   29.0418 C.ar    1  UNL1        0.0929
     37 N           7.0754   -4.2349   29.1639 N.ar    1  UNL1       -0.2845
     38 C           7.6399   -5.1795   28.1446 C.ar    1  UNL1        0.1326
     39 C           7.9249   -8.4436   27.2335 C.3     1  UNL1        0.0067
     40 C           8.7045   -7.6301   28.2237 C.3     1  UNL1        0.0475
@<TRIPOS>BOND
     1    39    40    1
     2    40    29    1
     3    29    30   ar
     4    30    31   ar
     5    31    32   ar
     6    32    33   ar
     7    33    34   ar
     8    34    35    1
     9    34    36   ar
    10    36    37   ar
    11    37    38   ar
    12    38    25    1
    13    25    26    2
    14    25    27   am
    15    27    24    1
    16    24     1    1
    17     1     2   ar
    18     2     3   ar
    19     3     4   ar
    20     4     7    1
    21     7     8    1
    22     8     9    1
    23     9    10    1
    24    10    13    1
    25    13    14   ar
    26    14    15   ar
    27    15    16   ar
    28    16    19    1
    29    19    20    1
    30    20    21    1
    31    20    22    1
    32    20    23    1
    33    16    17   ar
    34    17    18   ar
    35    10    11    1
    36    11    12    1
    37     4     5   ar
    38     5     6   ar
    39    38    29   ar
    40     6     1   ar
    41    37    31   ar
    42    12     7    1
    43    18    13   ar
    44    27    28    1
@<TRIPOS>MOLECULE
*****
 40 44 0 0 0
SMALL
GASTEIGER

@<TRIPOS>ATOM
      1 C           8.5485   -4.1936   28.6769 C.ar    1  UNL1       -0.0025
      2 C           8.2687   -2.7305   28.5010 C.ar    1  UNL1       -0.0014
      3 C           7.5927   -1.9592   29.5955 C.ar    1  UNL1        0.0142
      4 C           7.1964   -2.6511   30.8661 C.ar    1  UNL1        0.0479
      5 C           7.4761   -4.1142   31.0420 C.ar    1  UNL1        0.0142
      6 C           8.1521   -4.8855   29.9474 C.ar    1  UNL1       -0.0014
      7 N           6.5203   -1.8798   31.9607 N.pl3   1  UNL1       -0.3041
      8 C           5.0227   -1.8252   32.0250 C.3     1  UNL1        0.1122
      9 C           4.3467   -1.0540   33.1196 C.3     1  UNL1        0.1122
     10 N           5.1683   -0.3372   34.1498 N.pl3   1  UNL1       -0.3041
     11 C           6.6659   -0.3917   34.0854 C.3     1  UNL1        0.1122
     12 C           7.3419   -1.1630   32.9908 C.3     1  UNL1        0.1122
     13 C           4.4922    0.4341   35.2444 C.ar    1  UNL1        0.0481
     14 C           3.5474    1.5481   34.9037 C.ar    1  UNL1        0.0176
     15 C           2.8714    2.3194   35.9982 C.ar    1  UNL1        0.0385
     16 C           3.1402    1.9767   37.4336 C.ar    1  UNL1        0.1469
     17 C           4.0850    0.8626   37.7743 C.ar    1  UNL1        0.0385
     18 C           4.7610    0.0913   36.6797 C.ar    1  UNL1        0.0176
     19 O           2.4642    2.7479   38.5281 O.3     1  UNL1       -0.4045
     20 C           1.0293    2.4700   38.8656 C.3     1  UNL1        0.5753
     21 F          -0.4056    2.1920   39.2030 F       1  UNL1       -0.1328
     22 F           1.4475    1.2600   39.6472 F       1  UNL1       -0.1328
     23 F           0.6111    3.6800   38.0839 F       1  UNL1       -0.1328
     24 C           9.2245   -4.9649   27.5823 C.3     1  UNL1        0.1166
     25 C           7.6331   -4.9677   25.5287 C.2     1  UNL1        0.2635
     26 O           6.5798   -5.6554   26.3459 O.2     1  UNL1       -0.2685
     27 N           8.9553   -4.6225   26.1469 N.am    1  UNL1       -0.2957
     28 H           9.6466   -4.1711   25.6106 H       1  UNL1        0.1501
     29 C           8.0831   -5.1872   22.9030 C.ar    1  UNL1        0.0811
     30 N           7.4920   -4.5699   21.6703 N.ar    1  UNL1       -0.2306
     31 C           6.4074   -3.6264   22.0988 C.ar    1  UNL1        0.1475
     32 C           5.4817   -2.7406   21.3189 C.ar    1  UNL1        0.0383
     33 C           4.4769   -1.8889   22.0364 C.ar    1  UNL1        0.0160
     34 C           4.3978   -1.9231   23.5340 C.ar    1  UNL1        0.0753
     35 CL          3.3929   -1.0714   24.2515 Cl      1  UNL1       -0.0807
     36 C           5.3235   -2.8089   24.3139 C.ar    1  UNL1        0.0929
     37 N           6.3283   -3.6606   23.5963 N.ar    1  UNL1       -0.2845
     38 C           7.3639   -4.6252   24.0933 C.ar    1  UNL1        0.1326
     39 C           8.9681   -7.5453   23.5401 C.3     1  UNL1        0.0067
     40 C           9.1977   -6.1904   22.9390 C.3     1  UNL1        0.0475
@<TRIPOS>BOND
     1    39    40    1
     2    40    29    1
     3    29    30   ar
     4    30    31   ar
     5    31    32   ar
     6    32    33   ar
     7    33    34   ar
     8    34    35    1
     9    34    36   ar
    10    36    37   ar
    11    37    38   ar
    12    38    25    1
    13    25    26    2
    14    25    27   am
    15    27    24    1
    16    24     1    1
    17     1     2   ar
    18     2     3   ar
    19     3     4   ar
    20     4     7    1
    21     7     8    1
    22     8     9    1
    23     9    10    1
    24    10    13    1
    25    13    14   ar
    26    14    15   ar
    27    15    16   ar
    28    16    19    1
    29    19    20    1
    30    20    21    1
    31    20    22    1
    32    20    23    1
    33    16    17   ar
    34    17    18   ar
    35    10    11    1
    36    11    12    1
    37     4     5   ar
    38     5     6   ar
    39    38    29   ar
    40     6     1   ar
    41    37    31   ar
    42    12     7    1
    43    18    13   ar
    44    27    28    1
