@<TRIPOS>MOLECULE
*****
 21 23 0 0 0
SMALL
GASTEIGER

@<TRIPOS>ATOM
      1 C          -9.6855  -18.4145   21.2497 C.3     1  UNL1        0.0323
      2 C          -8.2112  -18.5872   21.0339 C.3     1  UNL1        0.0053
      3 C          -7.7132  -19.4277   19.8957 C.3     1  UNL1        0.0004
      4 C          -8.6896  -20.0954   18.9732 C.3     1  UNL1        0.0000
      5 C         -10.1639  -19.9227   19.1891 C.3     1  UNL1        0.0004
      6 C         -10.6619  -19.0822   20.3274 C.3     1  UNL1        0.0053
      7 C          -9.1575  -17.5870   22.3840 C.ar    1  UNL1       -0.0215
      8 C          -8.3666  -16.3442   22.1010 C.ar    1  UNL1       -0.0042
      9 C          -7.8386  -15.5167   23.2353 C.ar    1  UNL1       -0.0003
     10 C          -8.1016  -15.9319   24.6525 C.ar    1  UNL1       -0.0000
     11 C          -7.5736  -15.1044   25.7867 C.ar    1  UNL1       -0.0000
     12 C          -7.8366  -15.5196   27.2039 C.ar    1  UNL1       -0.0000
     13 C          -8.6275  -16.7623   27.4869 C.ar    1  UNL1       -0.0000
     14 C          -9.1554  -17.5899   26.3526 C.ar    1  UNL1       -0.0000
     15 C          -8.8925  -17.1747   24.9354 C.ar    1  UNL1       -0.0003
     16 C          -9.4204  -18.0022   23.8012 C.ar    1  UNL1       -0.0042
     17 C         -11.7139  -18.8448   22.8151 C.3     1  UNL1        0.0177
     18 C         -10.9765  -17.9544   21.8595 C.3     1  UNL1        0.0613
     19 N         -11.5299  -16.6039   21.5136 N.3     1  UNL1       -0.2713
     20 C         -11.3346  -16.0437   20.1359 C.3     1  UNL1        0.0896
     21 C         -12.2788  -15.8135   22.5453 C.3     1  UNL1        0.0896
@<TRIPOS>BOND
     1    17    18    1
     2    18    19    1
     3    19    20    1
     4    19    21    1
     5    18     1    1
     6     1     7    1
     7     7     8   ar
     8     8     9   ar
     9     9    10   ar
    10    10    11   ar
    11    11    12   ar
    12    12    13   ar
    13    13    14   ar
    14    14    15   ar
    15    15    16   ar
    16     1     2    1
    17     2     3    1
    18     3     4    1
    19     4     5    1
    20     5     6    1
    21     6     1    1
    22    16     7   ar
    23    15    10   ar
@<TRIPOS>MOLECULE
*****
 21 23 0 0 0
SMALL
GASTEIGER

@<TRIPOS>ATOM
      1 C         -10.3931  -17.8403   22.6145 C.3     1  UNL1        0.0323
      2 C         -10.9093  -16.4321   22.6374 C.3     1  UNL1        0.0053
      3 C         -12.2466  -16.1136   22.0373 C.3     1  UNL1        0.0004
      4 C         -13.0677  -17.2034   21.4142 C.3     1  UNL1        0.0000
      5 C         -12.5515  -18.6116   21.3913 C.3     1  UNL1        0.0004
      6 C         -11.2142  -18.9300   21.9915 C.3     1  UNL1        0.0053
      7 C          -9.2554  -17.1572   23.3140 C.ar    1  UNL1       -0.0215
      8 C          -8.0984  -16.6254   22.5212 C.ar    1  UNL1       -0.0042
      9 C          -6.9607  -15.9423   23.2207 C.ar    1  UNL1       -0.0003
     10 C          -6.9802  -15.7911   24.7129 C.ar    1  UNL1       -0.0000
     11 C          -5.8426  -15.1081   25.4124 C.ar    1  UNL1       -0.0000
     12 C          -5.8620  -14.9568   26.9046 C.ar    1  UNL1       -0.0000
     13 C          -7.0190  -15.4886   27.6974 C.ar    1  UNL1       -0.0000
     14 C          -8.1567  -16.1716   26.9979 C.ar    1  UNL1       -0.0000
     15 C          -8.1373  -16.3229   25.5057 C.ar    1  UNL1       -0.0003
     16 C          -9.2749  -17.0059   24.8062 C.ar    1  UNL1       -0.0042
     17 C          -9.5656  -19.7978   24.1090 C.3     1  UNL1        0.0177
     18 C          -9.4818  -19.0113   22.8345 C.3     1  UNL1        0.0613
     19 N          -8.4867  -19.3957   21.7800 N.3     1  UNL1       -0.2713
     20 C          -7.1427  -19.9309   22.1766 C.3     1  UNL1        0.0896
     21 C          -8.8356  -19.2450   20.3290 C.3     1  UNL1        0.0896
@<TRIPOS>BOND
     1    17    18    1
     2    18    19    1
     3    19    20    1
     4    19    21    1
     5    18     1    1
     6     1     7    1
     7     7     8   ar
     8     8     9   ar
     9     9    10   ar
    10    10    11   ar
    11    11    12   ar
    12    12    13   ar
    13    13    14   ar
    14    14    15   ar
    15    15    16   ar
    16     1     2    1
    17     2     3    1
    18     3     4    1
    19     4     5    1
    20     5     6    1
    21     6     1    1
    22    16     7   ar
    23    15    10   ar
@<TRIPOS>MOLECULE
*****
 21 23 0 0 0
SMALL
GASTEIGER

@<TRIPOS>ATOM
      1 C          -9.6781  -18.2042   21.9609 C.3     1  UNL1        0.0323
      2 C         -10.3951  -16.8869   21.9847 C.3     1  UNL1        0.0053
      3 C         -11.2787  -16.4932   20.8383 C.3     1  UNL1        0.0004
      4 C         -11.4452  -17.4168   19.6681 C.3     1  UNL1        0.0000
      5 C         -10.7280  -18.7340   19.6444 C.3     1  UNL1        0.0004
      6 C          -9.8445  -19.1277   20.7908 C.3     1  UNL1        0.0053
      7 C          -9.2055  -17.6742   23.2823 C.ar    1  UNL1       -0.0215
      8 C          -9.9814  -17.9726   24.5309 C.ar    1  UNL1       -0.0042
      9 C          -9.5088  -17.4426   25.8522 C.ar    1  UNL1       -0.0003
     10 C          -8.2605  -16.6142   25.9249 C.ar    1  UNL1       -0.0000
     11 C          -7.7879  -16.0843   27.2462 C.ar    1  UNL1       -0.0000
     12 C          -6.5395  -15.2559   27.3189 C.ar    1  UNL1       -0.0000
     13 C          -5.7637  -14.9574   26.0703 C.ar    1  UNL1       -0.0000
     14 C          -6.2362  -15.4874   24.7489 C.ar    1  UNL1       -0.0000
     15 C          -7.4846  -16.3158   24.6762 C.ar    1  UNL1       -0.0003
     16 C          -7.9571  -16.8458   23.3550 C.ar    1  UNL1       -0.0042
     17 C          -9.2616  -20.2808   23.4657 C.3     1  UNL1        0.0177
     18 C          -8.7969  -19.3374   22.3961 C.3     1  UNL1        0.0613
     19 N          -7.4510  -19.5272   21.7616 N.3     1  UNL1       -0.2713
     20 C          -6.5020  -20.5522   22.3083 C.3     1  UNL1        0.0896
     21 C          -7.0542  -18.6922   20.5805 C.3     1  UNL1        0.0896
@<TRIPOS>BOND
     1    17    18    1
     2    18    19    1
     3    19    20    1
     4    19    21    1
     5    18     1    1
     6     1     7    1
     7     7     8   ar
     8     8     9   ar
     9     9    10   ar
    10    10    11   ar
    11    11    12   ar
    12    12    13   ar
    13    13    14   ar
    14    14    15   ar
    15    15    16   ar
    16     1     2    1
    17     2     3    1
    18     3     4    1
    19     4     5    1
    20     5     6    1
    21     6     1    1
    22    16     7   ar
    23    15    10   ar
@<TRIPOS>MOLECULE
*****
 21 23 0 0 0
SMALL
GASTEIGER

@<TRIPOS>ATOM
      1 C          -8.6487  -18.3285   23.0688 C.3     1  UNL1        0.0323
      2 C          -8.6395  -19.8282   23.0928 C.3     1  UNL1        0.0053
      3 C          -9.6818  -20.5721   23.8740 C.3     1  UNL1        0.0004
      4 C         -10.7332  -19.8162   24.6311 C.3     1  UNL1        0.0000
      5 C         -10.7422  -18.3165   24.6070 C.3     1  UNL1        0.0004
      6 C          -9.7000  -17.5725   23.8258 C.3     1  UNL1        0.0053
      7 C          -7.4566  -18.5957   22.1982 C.ar    1  UNL1       -0.0215
      8 C          -7.6438  -18.8859   20.7386 C.ar    1  UNL1       -0.0042
      9 C          -6.4518  -19.1531   19.8680 C.ar    1  UNL1       -0.0003
     10 C          -5.0726  -19.1301   20.4573 C.ar    1  UNL1       -0.0000
     11 C          -3.8806  -19.3974   19.5869 C.ar    1  UNL1       -0.0000
     12 C          -2.5014  -19.3744   20.1761 C.ar    1  UNL1       -0.0000
     13 C          -2.3141  -19.0843   21.6358 C.ar    1  UNL1       -0.0000
     14 C          -3.5062  -18.8170   22.5063 C.ar    1  UNL1       -0.0000
     15 C          -4.8854  -18.8400   21.9171 C.ar    1  UNL1       -0.0003
     16 C          -6.0774  -18.5728   22.7875 C.ar    1  UNL1       -0.0042
     17 C          -7.0840  -16.2905   23.4542 C.3     1  UNL1        0.0177
     18 C          -8.2438  -16.9215   22.7424 C.3     1  UNL1        0.0613
     19 N          -8.9987  -16.1455   21.7042 N.3     1  UNL1       -0.2713
     20 C          -8.4603  -14.8364   21.2075 C.3     1  UNL1        0.0896
     21 C         -10.2919  -16.6785   21.1625 C.3     1  UNL1        0.0896
@<TRIPOS>BOND
     1    17    18    1
     2    18    19    1
     3    19    20    1
     4    19    21    1
     5    18     1    1
     6     1     7    1
     7     7     8   ar
     8     8     9   ar
     9     9    10   ar
    10    10    11   ar
    11    11    12   ar
    12    12    13   ar
    13    13    14   ar
    14    14    15   ar
    15    15    16   ar
    16     1     2    1
    17     2     3    1
    18     3     4    1
    19     4     5    1
    20     5     6    1
    21     6     1    1
    22    16     7   ar
    23    15    10   ar
@<TRIPOS>MOLECULE
*****
 21 23 0 0 0
SMALL
GASTEIGER

@<TRIPOS>ATOM
      1 C         -10.2352  -17.9397   21.9092 C.3     1  UNL1        0.0323
      2 C         -10.2235  -17.5209   20.4689 C.3     1  UNL1        0.0053
      3 C         -11.3746  -16.7419   19.9050 C.3     1  UNL1        0.0004
      4 C         -12.5375  -16.3817   20.7814 C.3     1  UNL1        0.0000
      5 C         -12.5492  -16.8006   22.2216 C.3     1  UNL1        0.0004
      6 C         -11.3980  -17.5796   22.7856 C.3     1  UNL1        0.0053
      7 C          -8.9175  -18.5148   21.4814 C.ar    1  UNL1       -0.0215
      8 C          -8.8459  -19.4178   20.2859 C.ar    1  UNL1       -0.0042
      9 C          -7.5281  -19.9929   19.8582 C.ar    1  UNL1       -0.0003
     10 C          -6.2820  -19.6648   20.6260 C.ar    1  UNL1       -0.0000
     11 C          -4.9643  -20.2398   20.1983 C.ar    1  UNL1       -0.0000
     12 C          -3.7181  -19.9118   20.9662 C.ar    1  UNL1       -0.0000
     13 C          -3.7898  -19.0087   22.1617 C.ar    1  UNL1       -0.0000
     14 C          -5.1075  -18.4337   22.5895 C.ar    1  UNL1       -0.0000
     15 C          -6.3536  -18.7617   21.8216 C.ar    1  UNL1       -0.0003
     16 C          -7.6714  -18.1867   22.2493 C.ar    1  UNL1       -0.0042
     17 C          -9.6179  -20.0451   23.3007 C.3     1  UNL1        0.0177
     18 C          -9.7893  -18.5583   23.2009 C.3     1  UNL1        0.0613
     19 N          -9.5149  -17.6900   24.3929 N.3     1  UNL1       -0.2713
     20 C          -9.5599  -18.2752   25.7733 C.3     1  UNL1        0.0896
     21 C          -9.1954  -16.2366   24.2044 C.3     1  UNL1        0.0896
@<TRIPOS>BOND
     1    17    18    1
     2    18    19    1
     3    19    20    1
     4    19    21    1
     5    18     1    1
     6     1     7    1
     7     7     8   ar
     8     8     9   ar
     9     9    10   ar
    10    10    11   ar
    11    11    12   ar
    12    12    13   ar
    13    13    14   ar
    14    14    15   ar
    15    15    16   ar
    16     1     2    1
    17     2     3    1
    18     3     4    1
    19     4     5    1
    20     5     6    1
    21     6     1    1
    22    16     7   ar
    23    15    10   ar
@<TRIPOS>MOLECULE
*****
 21 23 0 0 0
SMALL
GASTEIGER

@<TRIPOS>ATOM
      1 C         -10.5239  -18.0754   21.6823 C.3     1  UNL1        0.0323
      2 C         -10.0379  -16.7708   21.1241 C.3     1  UNL1        0.0053
      3 C         -11.0238  -15.7388   20.6625 C.3     1  UNL1        0.0004
      4 C         -12.4957  -16.0116   20.7591 C.3     1  UNL1        0.0000
      5 C         -12.9815  -17.3163   21.3173 C.3     1  UNL1        0.0004
      6 C         -11.9956  -18.3483   21.7789 C.3     1  UNL1        0.0053
      7 C          -9.0420  -18.2806   21.7929 C.ar    1  UNL1       -0.0215
      8 C          -8.2449  -17.4765   22.7768 C.ar    1  UNL1       -0.0042
      9 C          -6.7631  -17.6816   22.8874 C.ar    1  UNL1       -0.0003
     10 C          -6.0784  -18.6908   22.0141 C.ar    1  UNL1       -0.0000
     11 C          -4.5967  -18.8960   22.1247 C.ar    1  UNL1       -0.0000
     12 C          -3.9120  -19.9052   21.2514 C.ar    1  UNL1       -0.0000
     13 C          -4.7091  -20.7093   20.2675 C.ar    1  UNL1       -0.0000
     14 C          -6.1909  -20.5042   20.1569 C.ar    1  UNL1       -0.0000
     15 C          -6.8756  -19.4950   21.0302 C.ar    1  UNL1       -0.0003
     16 C          -8.3574  -19.2898   20.9196 C.ar    1  UNL1       -0.0042
     17 C         -10.7421  -20.6502   21.4118 C.3     1  UNL1        0.0177
     18 C         -10.4952  -19.4514   22.2790 C.3     1  UNL1        0.0613
     19 N         -10.2195  -19.6286   23.7427 N.3     1  UNL1       -0.2713
     20 C          -9.3299  -20.7427   24.2089 C.3     1  UNL1        0.0896
     21 C         -10.8334  -18.6916   24.7403 C.3     1  UNL1        0.0896
@<TRIPOS>BOND
     1    17    18    1
     2    18    19    1
     3    19    20    1
     4    19    21    1
     5    18     1    1
     6     1     7    1
     7     7     8   ar
     8     8     9   ar
     9     9    10   ar
    10    10    11   ar
    11    11    12   ar
    12    12    13   ar
    13    13    14   ar
    14    14    15   ar
    15    15    16   ar
    16     1     2    1
    17     2     3    1
    18     3     4    1
    19     4     5    1
    20     5     6    1
    21     6     1    1
    22    16     7   ar
    23    15    10   ar
@<TRIPOS>MOLECULE
*****
 21 23 0 0 0
SMALL
GASTEIGER

@<TRIPOS>ATOM
      1 C         -10.0322  -17.4364   21.7294 C.3     1  UNL1        0.0323
      2 C         -10.1136  -15.9734   21.4087 C.3     1  UNL1        0.0053
      3 C         -10.8819  -15.5107   20.2063 C.3     1  UNL1        0.0004
      4 C         -11.5689  -16.5112   19.3247 C.3     1  UNL1        0.0000
      5 C         -11.4874  -17.9742   19.6455 C.3     1  UNL1        0.0004
      6 C         -10.7191  -18.4368   20.8479 C.3     1  UNL1        0.0053
      7 C          -9.2189  -16.8765   22.8587 C.ar    1  UNL1       -0.0215
      8 C          -9.9036  -16.3033   24.0639 C.ar    1  UNL1       -0.0042
      9 C          -9.0902  -15.7435   25.1931 C.ar    1  UNL1       -0.0003
     10 C          -7.5922  -15.7569   25.1171 C.ar    1  UNL1       -0.0000
     11 C          -6.7789  -15.1971   26.2463 C.ar    1  UNL1       -0.0000
     12 C          -5.2809  -15.2105   26.1702 C.ar    1  UNL1       -0.0000
     13 C          -4.5962  -15.7837   24.9650 C.ar    1  UNL1       -0.0000
     14 C          -5.4095  -16.3435   23.8357 C.ar    1  UNL1       -0.0000
     15 C          -6.9075  -16.3301   23.9118 C.ar    1  UNL1       -0.0003
     16 C          -7.7209  -16.8899   22.7826 C.ar    1  UNL1       -0.0042
     17 C          -8.4626  -19.4872   22.0130 C.3     1  UNL1        0.0177
     18 C          -9.6684  -18.7050   22.4423 C.3     1  UNL1        0.0613
     19 N         -10.5102  -19.1914   23.5845 N.3     1  UNL1       -0.2713
     20 C          -9.8986  -20.0418   24.6582 C.3     1  UNL1        0.0896
     21 C         -11.9638  -18.8274   23.6530 C.3     1  UNL1        0.0896
@<TRIPOS>BOND
     1    17    18    1
     2    18    19    1
     3    19    20    1
     4    19    21    1
     5    18     1    1
     6     1     7    1
     7     7     8   ar
     8     8     9   ar
     9     9    10   ar
    10    10    11   ar
    11    11    12   ar
    12    12    13   ar
    13    13    14   ar
    14    14    15   ar
    15    15    16   ar
    16     1     2    1
    17     2     3    1
    18     3     4    1
    19     4     5    1
    20     5     6    1
    21     6     1    1
    22    16     7   ar
    23    15    10   ar
@<TRIPOS>MOLECULE
*****
 21 23 0 0 0
SMALL
GASTEIGER

@<TRIPOS>ATOM
      1 C          -6.8732  -17.8959   22.7102 C.3     1  UNL1        0.0323
      2 C          -6.9140  -16.5715   23.4132 C.3     1  UNL1        0.0053
      3 C          -5.6405  -15.9299   23.8784 C.3     1  UNL1        0.0004
      4 C          -4.3262  -16.6127   23.6407 C.3     1  UNL1        0.0000
      5 C          -4.2855  -17.9371   22.9377 C.3     1  UNL1        0.0004
      6 C          -5.5590  -18.5788   22.4724 C.3     1  UNL1        0.0053
      7 C          -8.3517  -17.6426   22.7029 C.ar    1  UNL1       -0.0215
      8 C          -8.9384  -16.6535   21.7400 C.ar    1  UNL1       -0.0042
      9 C         -10.4169  -16.4001   21.7327 C.ar    1  UNL1       -0.0003
     10 C         -11.3086  -17.1359   22.6884 C.ar    1  UNL1       -0.0000
     11 C         -12.7870  -16.8826   22.6812 C.ar    1  UNL1       -0.0000
     12 C         -13.6787  -17.6184   23.6369 C.ar    1  UNL1       -0.0000
     13 C         -13.0920  -18.6075   24.5999 C.ar    1  UNL1       -0.0000
     14 C         -11.6135  -18.8609   24.6072 C.ar    1  UNL1       -0.0000
     15 C         -10.7218  -18.1251   23.6514 C.ar    1  UNL1       -0.0003
     16 C          -9.2434  -18.3784   23.6587 C.ar    1  UNL1       -0.0042
     17 C          -7.8122  -20.3168   22.7983 C.3     1  UNL1        0.0177
     18 C          -7.3459  -19.1324   22.0047 C.3     1  UNL1        0.0613
     19 N          -7.3524  -19.1845   20.5057 N.3     1  UNL1       -0.2713
     20 C          -6.0849  -18.9409   19.7413 C.3     1  UNL1        0.0896
     21 C          -8.6263  -19.4801   19.7710 C.3     1  UNL1        0.0896
@<TRIPOS>BOND
     1    17    18    1
     2    18    19    1
     3    19    20    1
     4    19    21    1
     5    18     1    1
     6     1     7    1
     7     7     8   ar
     8     8     9   ar
     9     9    10   ar
    10    10    11   ar
    11    11    12   ar
    12    12    13   ar
    13    13    14   ar
    14    14    15   ar
    15    15    16   ar
    16     1     2    1
    17     2     3    1
    18     3     4    1
    19     4     5    1
    20     5     6    1
    21     6     1    1
    22    16     7   ar
    23    15    10   ar
@<TRIPOS>MOLECULE
*****
 21 23 0 0 0
SMALL
GASTEIGER

@<TRIPOS>ATOM
      1 C          -6.6839  -17.1786   23.1595 C.3     1  UNL1        0.0323
      2 C          -6.9096  -18.4746   22.4388 C.3     1  UNL1        0.0053
      3 C          -5.7444  -19.3541   22.0945 C.3     1  UNL1        0.0004
      4 C          -4.3533  -18.9376   22.4708 C.3     1  UNL1        0.0000
      5 C          -4.1276  -17.6416   23.1915 C.3     1  UNL1        0.0004
      6 C          -5.2929  -16.7621   23.5358 C.3     1  UNL1        0.0053
      7 C          -8.1766  -17.1404   23.0162 C.ar    1  UNL1       -0.0215
      8 C          -8.8068  -16.2831   21.9589 C.ar    1  UNL1       -0.0042
      9 C         -10.2995  -16.2448   21.8156 C.ar    1  UNL1       -0.0003
     10 C         -11.1619  -17.0639   22.7296 C.ar    1  UNL1       -0.0000
     11 C         -12.6545  -17.0257   22.5863 C.ar    1  UNL1       -0.0000
     12 C         -13.5169  -17.8448   23.5003 C.ar    1  UNL1       -0.0000
     13 C         -12.8867  -18.7021   24.5575 C.ar    1  UNL1       -0.0000
     14 C         -11.3940  -18.7404   24.7008 C.ar    1  UNL1       -0.0000
     15 C         -10.5316  -17.9213   23.7869 C.ar    1  UNL1       -0.0003
     16 C          -9.0390  -17.9595   23.9301 C.ar    1  UNL1       -0.0042
     17 C          -7.2573  -14.6494   23.0040 C.3     1  UNL1        0.0177
     18 C          -6.9765  -15.8693   23.8304 C.3     1  UNL1        0.0613
     19 N          -6.9883  -15.7799   25.3276 N.3     1  UNL1       -0.2713
     20 C          -8.2912  -15.8085   26.0705 C.3     1  UNL1        0.0896
     21 C          -5.6973  -15.6619   26.0821 C.3     1  UNL1        0.0896
@<TRIPOS>BOND
     1    17    18    1
     2    18    19    1
     3    19    20    1
     4    19    21    1
     5    18     1    1
     6     1     7    1
     7     7     8   ar
     8     8     9   ar
     9     9    10   ar
    10    10    11   ar
    11    11    12   ar
    12    12    13   ar
    13    13    14   ar
    14    14    15   ar
    15    15    16   ar
    16     1     2    1
    17     2     3    1
    18     3     4    1
    19     4     5    1
    20     5     6    1
    21     6     1    1
    22    16     7   ar
    23    15    10   ar
