@<TRIPOS>MOLECULE
*****
 25 27 0 0 0
SMALL
GASTEIGER

@<TRIPOS>ATOM
      1 C          -7.0579  -15.9616   23.8809 C.ar    1  UNL1        0.3038
      2 N          -6.4270  -14.8007   24.5910 N.ar    1  UNL1       -0.1024
      3 N          -4.9440  -15.0248   24.6188 N.ar    1  UNL1       -0.1094
      4 C          -4.6585  -16.3243   23.9259 C.ar    1  UNL1        0.2508
      5 O          -5.9650  -16.9032   23.4699 O.2     1  UNL1       -0.4143
      6 O          -9.5305  -15.5403   24.5584 O.2     1  UNL1       -0.2650
      7 C          -8.5244  -16.1482   23.6266 C.2     1  UNL1        0.3013
      8 N          -8.9848  -16.9426   22.4405 N.am    1  UNL1       -0.2986
      9 H          -8.3244  -17.3416   21.8289 H       1  UNL1        0.1498
     10 C         -10.4513  -17.1292   22.1861 C.3     1  UNL1        0.0720
     11 C         -11.0964  -16.4732   21.0014 C.3     1  UNL1        0.0196
     12 C         -12.5628  -16.6598   20.7471 C.3     1  UNL1        0.0017
     13 C         -13.3841  -17.5023   21.6775 C.3     1  UNL1        0.0001
     14 C         -12.7390  -18.1583   22.8622 C.3     1  UNL1        0.0017
     15 C         -11.2726  -17.9717   23.1165 C.3     1  UNL1        0.0196
     16 C          -3.3044  -16.9371   23.7245 C.3     1  UNL1        0.2420
     17 S          -2.8166  -17.2396   22.3386 S.O2    1  UNL1        0.0178
     18 O          -2.8521  -18.7073   22.6465 O.2     1  UNL1       -0.1681
     19 O          -2.7812  -15.7719   22.0308 O.2     1  UNL1       -0.1681
     20 C          -2.3288  -17.5421   20.9528 C.ar    1  UNL1        0.1062
     21 C          -0.9726  -17.0732   20.5161 C.ar    1  UNL1        0.0184
     22 C          -0.4848  -17.3756   19.1302 C.ar    1  UNL1        0.0013
     23 C          -1.3532  -18.1470   18.1811 C.ar    1  UNL1        0.0001
     24 C          -2.7095  -18.6159   18.6179 C.ar    1  UNL1        0.0013
     25 C          -3.1972  -18.3134   20.0038 C.ar    1  UNL1        0.0184
@<TRIPOS>BOND
     1     6     7    2
     2     7     8   am
     3     8    10    1
     4    10    11    1
     5    11    12    1
     6    12    13    1
     7    13    14    1
     8    14    15    1
     9     7     1    1
    10     1     2   ar
    11     2     3   ar
    12     3     4   ar
    13     4    16    1
    14    16    17    1
    15    17    18    2
    16    17    19    2
    17    17    20    1
    18    20    21   ar
    19    21    22   ar
    20    22    23   ar
    21    23    24   ar
    22    24    25   ar
    23     4     5   ar
    24    15    10    1
    25     5     1   ar
    26    25    20   ar
    27     8     9    1
@<TRIPOS>MOLECULE
*****
 25 27 0 0 0
SMALL
GASTEIGER

@<TRIPOS>ATOM
      1 C          -6.5894  -19.4323   19.9132 C.ar    1  UNL1        0.3038
      2 N          -7.0729  -20.7019   19.2774 N.ar    1  UNL1       -0.1024
      3 N          -8.5618  -20.6048   19.1222 N.ar    1  UNL1       -0.1094
      4 C          -8.9983  -19.2751   19.6622 C.ar    1  UNL1        0.2508
      5 O          -7.7793  -18.5505   20.1510 O.2     1  UNL1       -0.4143
      6 O          -4.5299  -19.6922   21.4756 O.2     1  UNL1       -0.2650
      7 C          -5.1658  -19.1024   20.2518 C.2     1  UNL1        0.3013
      8 N          -4.3781  -18.1827   19.3666 N.am    1  UNL1       -0.2986
      9 H          -4.7954  -17.7956   18.5633 H       1  UNL1        0.1498
     10 C          -2.9545  -17.8528   19.7052 C.3     1  UNL1        0.0720
     11 C          -2.6518  -16.8626   20.7904 C.3     1  UNL1        0.0196
     12 C          -1.2282  -16.5327   21.1290 C.3     1  UNL1        0.0017
     13 C          -0.1074  -17.1931   20.3823 C.3     1  UNL1        0.0001
     14 C          -0.4101  -18.1834   19.2970 C.3     1  UNL1        0.0017
     15 C          -1.8336  -18.5132   18.9585 C.3     1  UNL1        0.0196
     16 C         -10.4065  -18.7605   19.7056 C.3     1  UNL1        0.2420
     17 S         -11.1290  -18.6621   21.0165 S.O2    1  UNL1        0.0178
     18 O         -11.2062  -17.1720   20.8621 O.2     1  UNL1       -0.1681
     19 O         -11.0518  -20.1522   21.1708 O.2     1  UNL1       -0.1681
     20 C         -11.8515  -18.5637   22.3273 C.ar    1  UNL1        0.1062
     21 C         -11.2137  -19.0945   23.5768 C.ar    1  UNL1        0.0184
     22 C         -11.9363  -18.9962   24.8878 C.ar    1  UNL1        0.0013
     23 C         -13.2966  -18.3670   24.9490 C.ar    1  UNL1        0.0001
     24 C         -13.9343  -17.8363   23.6994 C.ar    1  UNL1        0.0013
     25 C         -13.2118  -17.9346   22.3885 C.ar    1  UNL1        0.0184
@<TRIPOS>BOND
     1     6     7    2
     2     7     8   am
     3     8    10    1
     4    10    11    1
     5    11    12    1
     6    12    13    1
     7    13    14    1
     8    14    15    1
     9     7     1    1
    10     1     2   ar
    11     2     3   ar
    12     3     4   ar
    13     4    16    1
    14    16    17    1
    15    17    18    2
    16    17    19    2
    17    17    20    1
    18    20    21   ar
    19    21    22   ar
    20    22    23   ar
    21    23    24   ar
    22    24    25   ar
    23     4     5   ar
    24    15    10    1
    25     5     1   ar
    26    25    20   ar
    27     8     9    1
@<TRIPOS>MOLECULE
*****
 25 27 0 0 0
SMALL
GASTEIGER

@<TRIPOS>ATOM
      1 C          -8.6869  -19.4398   21.0529 C.ar    1  UNL1        0.3038
      2 N          -8.3374  -18.8492   19.7191 N.ar    1  UNL1       -0.1024
      3 N          -6.8897  -19.1361   19.4501 N.ar    1  UNL1       -0.1094
      4 C          -6.3447  -19.9041   20.6177 C.ar    1  UNL1        0.2508
      5 O          -7.4554  -20.0917   21.6083 O.2     1  UNL1       -0.4143
      6 O         -11.0920  -20.3799   21.3388 O.2     1  UNL1       -0.2650
      7 C         -10.0319  -19.3876   21.7150 C.2     1  UNL1        0.3013
      8 N         -10.3167  -18.3431   22.7532 N.am    1  UNL1       -0.2986
      9 H          -9.6208  -17.6919   23.0001 H       1  UNL1        0.1498
     10 C         -11.6617  -18.2909   23.4154 C.3     1  UNL1        0.0720
     11 C         -11.8351  -18.8294   24.8045 C.3     1  UNL1        0.0196
     12 C         -13.1801  -18.7772   25.4666 C.3     1  UNL1        0.0017
     13 C         -14.3515  -18.1865   24.7395 C.3     1  UNL1        0.0001
     14 C         -14.1780  -17.6479   23.3503 C.3     1  UNL1        0.0017
     15 C         -12.8331  -17.7002   22.6883 C.3     1  UNL1        0.0196
     16 C          -4.9364  -20.3976   20.7684 C.3     1  UNL1        0.2420
     17 S          -3.7917  -19.4303   20.7047 S.O2    1  UNL1        0.0178
     18 O          -4.0686  -19.0095   22.1176 O.2     1  UNL1       -0.1681
     19 O          -3.5148  -19.8512   19.2917 O.2     1  UNL1       -0.1681
     20 C          -2.6470  -18.4630   20.6409 C.ar    1  UNL1        0.1062
     21 C          -1.4962  -18.7230   19.7147 C.ar    1  UNL1        0.0184
     22 C          -0.3514  -17.7557   19.6508 C.ar    1  UNL1        0.0013
     23 C          -0.3576  -16.5285   20.5133 C.ar    1  UNL1        0.0001
     24 C          -1.5085  -16.2686   21.4396 C.ar    1  UNL1        0.0013
     25 C          -2.6532  -17.2359   21.5033 C.ar    1  UNL1        0.0184
@<TRIPOS>BOND
     1     6     7    2
     2     7     8   am
     3     8    10    1
     4    10    11    1
     5    11    12    1
     6    12    13    1
     7    13    14    1
     8    14    15    1
     9     7     1    1
    10     1     2   ar
    11     2     3   ar
    12     3     4   ar
    13     4    16    1
    14    16    17    1
    15    17    18    2
    16    17    19    2
    17    17    20    1
    18    20    21   ar
    19    21    22   ar
    20    22    23   ar
    21    23    24   ar
    22    24    25   ar
    23     4     5   ar
    24    15    10    1
    25     5     1   ar
    26    25    20   ar
    27     8     9    1
@<TRIPOS>MOLECULE
*****
 25 27 0 0 0
SMALL
GASTEIGER

@<TRIPOS>ATOM
      1 C          -5.3053  -15.8291   24.0790 C.ar    1  UNL1        0.3038
      2 N          -5.2052  -15.0796   25.3744 N.ar    1  UNL1       -0.1024
      3 N          -6.5286  -15.1827   26.0731 N.ar    1  UNL1       -0.1094
      4 C          -7.4466  -15.9960   25.2093 C.ar    1  UNL1        0.2508
      5 O          -6.6905  -16.3954   23.9769 O.2     1  UNL1       -0.4143
      6 O          -3.6742  -14.7802   22.3499 O.2     1  UNL1       -0.2650
      7 C          -4.2121  -15.9849   23.0637 C.2     1  UNL1        0.3013
      8 N          -3.6567  -17.3453   22.7624 N.am    1  UNL1       -0.2986
      9 H          -4.0097  -18.1359   23.2309 H       1  UNL1        0.1498
     10 C          -2.5634  -17.5010   21.7472 C.3     1  UNL1        0.0720
     11 C          -2.4066  -18.7960   21.0066 C.3     1  UNL1        0.0196
     12 C          -1.3134  -18.9517   19.9914 C.3     1  UNL1        0.0017
     13 C          -0.3770  -17.8125   19.7169 C.3     1  UNL1        0.0001
     14 C          -0.5338  -16.5175   20.4575 C.3     1  UNL1        0.0017
     15 C          -1.6270  -16.3618   21.4726 C.3     1  UNL1        0.0196
     16 C          -8.8705  -16.3480   25.5229 C.3     1  UNL1        0.2420
     17 S          -9.7017  -17.0820   24.5128 S.O2    1  UNL1        0.0178
     18 O          -9.8085  -15.8313   23.6917 O.2     1  UNL1       -0.1681
     19 O          -9.5948  -18.3328   25.3339 O.2     1  UNL1       -0.1681
     20 C         -10.5328  -17.8161   23.5027 C.ar    1  UNL1        0.1062
     21 C         -11.7174  -17.1434   22.8748 C.ar    1  UNL1        0.0184
     22 C         -12.5486  -17.8775   21.8647 C.ar    1  UNL1        0.0013
     23 C         -12.1952  -19.2843   21.4825 C.ar    1  UNL1        0.0001
     24 C         -11.0106  -19.9569   22.1105 C.ar    1  UNL1        0.0013
     25 C         -10.1794  -19.2228   23.1205 C.ar    1  UNL1        0.0184
@<TRIPOS>BOND
     1     6     7    2
     2     7     8   am
     3     8    10    1
     4    10    11    1
     5    11    12    1
     6    12    13    1
     7    13    14    1
     8    14    15    1
     9     7     1    1
    10     1     2   ar
    11     2     3   ar
    12     3     4   ar
    13     4    16    1
    14    16    17    1
    15    17    18    2
    16    17    19    2
    17    17    20    1
    18    20    21   ar
    19    21    22   ar
    20    22    23   ar
    21    23    24   ar
    22    24    25   ar
    23     4     5   ar
    24    15    10    1
    25     5     1   ar
    26    25    20   ar
    27     8     9    1
@<TRIPOS>MOLECULE
*****
 25 27 0 0 0
SMALL
GASTEIGER

@<TRIPOS>ATOM
      1 C          -7.6918  -19.7872   20.8152 C.ar    1  UNL1        0.3038
      2 N          -7.8081  -20.7080   19.6369 N.ar    1  UNL1       -0.1024
      3 N          -6.4325  -21.1987   19.2946 N.ar    1  UNL1       -0.1094
      4 C          -5.4662  -20.5810   20.2615 C.ar    1  UNL1        0.2508
      5 O          -6.2445  -19.7087   21.2013 O.2     1  UNL1       -0.4143
      6 O          -8.6680  -17.6348   21.8945 O.2     1  UNL1       -0.2650
      7 C          -8.8243  -19.0706   21.4892 C.2     1  UNL1        0.3013
      8 N         -10.1129  -19.7897   21.7579 N.am    1  UNL1       -0.2986
      9 H         -10.2154  -20.7320   21.4919 H       1  UNL1        0.1498
     10 C         -11.2453  -19.0731   22.4319 C.3     1  UNL1        0.0720
     11 C         -12.1456  -18.1764   21.6350 C.3     1  UNL1        0.0196
     12 C         -13.2780  -17.4599   22.3090 C.3     1  UNL1        0.0017
     13 C         -13.5100  -17.6401   23.7799 C.3     1  UNL1        0.0001
     14 C         -12.6096  -18.5368   24.5769 C.3     1  UNL1        0.0017
     15 C         -11.4773  -19.2533   23.9029 C.3     1  UNL1        0.0196
     16 C          -3.9822  -20.7977   20.2845 C.3     1  UNL1        0.2420
     17 S          -3.0546  -19.6249   20.4041 S.O2    1  UNL1        0.0178
     18 O          -2.2820  -20.3444   21.4695 O.2     1  UNL1       -0.1681
     19 O          -3.8274  -18.9053   19.3385 O.2     1  UNL1       -0.1681
     20 C          -2.1272  -18.4521   20.5235 C.ar    1  UNL1        0.1062
     21 C          -2.5105  -17.2762   21.3722 C.ar    1  UNL1        0.0184
     22 C          -1.5831  -16.1033   21.4917 C.ar    1  UNL1        0.0013
     23 C          -0.2722  -16.1064   20.7625 C.ar    1  UNL1        0.0001
     24 C           0.1110  -17.2823   19.9138 C.ar    1  UNL1        0.0013
     25 C          -0.8164  -18.4552   19.7943 C.ar    1  UNL1        0.0184
@<TRIPOS>BOND
     1     6     7    2
     2     7     8   am
     3     8    10    1
     4    10    11    1
     5    11    12    1
     6    12    13    1
     7    13    14    1
     8    14    15    1
     9     7     1    1
    10     1     2   ar
    11     2     3   ar
    12     3     4   ar
    13     4    16    1
    14    16    17    1
    15    17    18    2
    16    17    19    2
    17    17    20    1
    18    20    21   ar
    19    21    22   ar
    20    22    23   ar
    21    23    24   ar
    22    24    25   ar
    23     4     5   ar
    24    15    10    1
    25     5     1   ar
    26    25    20   ar
    27     8     9    1
@<TRIPOS>MOLECULE
*****
 25 27 0 0 0
SMALL
GASTEIGER

@<TRIPOS>ATOM
      1 C         -13.4013   -7.4187   18.3364 C.ar    1  UNL1        0.3038
      2 N         -12.2574   -7.8487   17.4666 N.ar    1  UNL1       -0.1024
      3 N         -11.1606   -6.8353   17.6087 N.ar    1  UNL1       -0.1094
      4 C         -11.6267   -5.7790   18.5663 C.ar    1  UNL1        0.2508
      5 O         -13.0115   -6.1396   19.0161 O.2     1  UNL1       -0.4143
      6 O         -14.7220   -9.6315   18.6669 O.2     1  UNL1       -0.2650
      7 C         -14.7059   -8.1411   18.4981 C.2     1  UNL1        0.3013
      8 N         -15.9943   -7.3732   18.4911 N.am    1  UNL1       -0.2986
      9 H         -15.9838   -6.3950   18.3804 H       1  UNL1        0.1498
     10 C         -17.2990   -8.0956   18.6529 C.3     1  UNL1        0.0720
     11 C         -18.0174   -8.0607   19.9691 C.3     1  UNL1        0.0196
     12 C         -19.3220   -8.7831   20.1308 C.3     1  UNL1        0.0017
     13 C         -19.9081   -9.5404   18.9762 C.3     1  UNL1        0.0001
     14 C         -19.1897   -9.5752   17.6600 C.3     1  UNL1        0.0017
     15 C         -17.8851   -8.8528   17.4983 C.3     1  UNL1        0.0196
     16 C         -10.8453   -4.5738   18.9984 C.3     1  UNL1        0.2420
     17 S         -11.3241   -3.1995   18.6349 S.O2    1  UNL1        0.0178
     18 O         -12.3718   -3.2813   19.7052 O.2     1  UNL1       -0.1681
     19 O         -10.2763   -3.1177   17.5645 O.2     1  UNL1       -0.1681
     20 C         -11.8028   -1.8253   18.2713 C.ar    1  UNL1        0.1062
     21 C         -10.9141   -0.9039   17.4894 C.ar    1  UNL1        0.0184
     22 C         -11.3928    0.4704   17.1258 C.ar    1  UNL1        0.0013
     23 C         -12.7603    0.9234   17.5442 C.ar    1  UNL1        0.0001
     24 C         -13.6489    0.0019   18.3261 C.ar    1  UNL1        0.0013
     25 C         -13.1702   -1.3723   18.6896 C.ar    1  UNL1        0.0184
@<TRIPOS>BOND
     1     6     7    2
     2     7     8   am
     3     8    10    1
     4    10    11    1
     5    11    12    1
     6    12    13    1
     7    13    14    1
     8    14    15    1
     9     7     1    1
    10     1     2   ar
    11     2     3   ar
    12     3     4   ar
    13     4    16    1
    14    16    17    1
    15    17    18    2
    16    17    19    2
    17    17    20    1
    18    20    21   ar
    19    21    22   ar
    20    22    23   ar
    21    23    24   ar
    22    24    25   ar
    23     4     5   ar
    24    15    10    1
    25     5     1   ar
    26    25    20   ar
    27     8     9    1
@<TRIPOS>MOLECULE
*****
 25 27 0 0 0
SMALL
GASTEIGER

@<TRIPOS>ATOM
      1 C         -12.2381   -7.2053   17.6922 C.ar    1  UNL1        0.3038
      2 N         -10.9598   -7.9818   17.8072 N.ar    1  UNL1       -0.1024
      3 N          -9.8194   -7.0094   17.7419 N.ar    1  UNL1       -0.1094
      4 C         -10.3930   -5.6321   17.5865 C.ar    1  UNL1        0.2508
      5 O         -11.8878   -5.7532   17.5558 O.2     1  UNL1       -0.4143
      6 O         -14.4681   -7.7409   16.4715 O.2     1  UNL1       -0.2650
      7 C         -13.6235   -7.7802   17.7105 C.2     1  UNL1        0.3013
      8 N         -14.1642   -8.3943   18.9676 N.am    1  UNL1       -0.2986
      9 H         -13.6098   -8.4201   19.7808 H       1  UNL1        0.1498
     10 C         -15.5496   -8.9692   18.9859 C.3     1  UNL1        0.0720
     11 C         -15.8301  -10.2720   18.2974 C.3     1  UNL1        0.0196
     12 C         -17.2155  -10.8468   18.3157 C.3     1  UNL1        0.0017
     13 C         -18.3203  -10.1188   19.0224 C.3     1  UNL1        0.0001
     14 C         -18.0397   -8.8160   19.7108 C.3     1  UNL1        0.0017
     15 C         -16.6544   -8.2412   19.6926 C.3     1  UNL1        0.0196
     16 C          -9.6094   -4.3576   17.4804 C.3     1  UNL1        0.2420
     17 S         -10.3230   -3.0384   17.4520 S.O2    1  UNL1        0.0178
     18 O         -10.0444   -2.9193   15.9829 O.2     1  UNL1       -0.1681
     19 O         -10.6016   -3.1576   18.9211 O.2     1  UNL1       -0.1681
     20 C         -11.0366   -1.7194   17.4236 C.ar    1  UNL1        0.1062
     21 C         -11.9665   -1.3457   18.5396 C.ar    1  UNL1        0.0184
     22 C         -12.6802   -0.0265   18.5113 C.ar    1  UNL1        0.0013
     23 C         -12.4638    0.9188   17.3670 C.ar    1  UNL1        0.0001
     24 C         -11.5338    0.5450   16.2510 C.ar    1  UNL1        0.0013
     25 C         -10.8202   -0.7741   16.2794 C.ar    1  UNL1        0.0184
@<TRIPOS>BOND
     1     6     7    2
     2     7     8   am
     3     8    10    1
     4    10    11    1
     5    11    12    1
     6    12    13    1
     7    13    14    1
     8    14    15    1
     9     7     1    1
    10     1     2   ar
    11     2     3   ar
    12     3     4   ar
    13     4    16    1
    14    16    17    1
    15    17    18    2
    16    17    19    2
    17    17    20    1
    18    20    21   ar
    19    21    22   ar
    20    22    23   ar
    21    23    24   ar
    22    24    25   ar
    23     4     5   ar
    24    15    10    1
    25     5     1   ar
    26    25    20   ar
    27     8     9    1
@<TRIPOS>MOLECULE
*****
 25 27 0 0 0
SMALL
GASTEIGER

@<TRIPOS>ATOM
      1 C           3.7671   -1.3361   31.5175 C.ar    1  UNL1        0.3038
      2 N           3.7851   -1.7944   32.9457 N.ar    1  UNL1       -0.1024
      3 N           5.0179   -2.6241   33.1507 N.ar    1  UNL1       -0.1094
      4 C           5.7616   -2.6786   31.8492 C.ar    1  UNL1        0.2508
      5 O           4.9886   -1.8826   30.8398 O.2     1  UNL1       -0.4143
      6 O           2.1444    0.6902   31.6239 O.2     1  UNL1       -0.2650
      7 C           2.7125   -0.4814   30.8791 C.2     1  UNL1        0.3013
      8 N           2.2261   -0.7983   29.4960 N.am    1  UNL1       -0.2986
      9 H           2.5990   -1.5672   29.0072 H       1  UNL1        0.1498
     10 C           1.1716    0.0564   28.8576 C.3     1  UNL1        0.0720
     11 C          -0.2792   -0.2669   29.0591 C.3     1  UNL1        0.0196
     12 C          -1.3337    0.5878   28.4207 C.3     1  UNL1        0.0017
     13 C          -0.9374    1.7658   27.5809 C.3     1  UNL1        0.0001
     14 C           0.5134    2.0891   27.3795 C.3     1  UNL1        0.0017
     15 C           1.5679    1.2344   28.0178 C.3     1  UNL1        0.0196
     16 C           7.0518   -3.4020   31.6006 C.3     1  UNL1        0.2420
     17 S           7.1692   -4.3509   30.4448 S.O2    1  UNL1        0.0178
     18 O           6.7884   -5.4910   31.3421 O.2     1  UNL1       -0.1681
     19 O           7.5500   -3.2107   29.5476 O.2     1  UNL1       -0.1681
     20 C           7.2866   -5.2997   29.2890 C.ar    1  UNL1        0.1062
     21 C           8.2208   -6.4703   29.3716 C.ar    1  UNL1        0.0184
     22 C           8.3382   -7.4192   28.2157 C.ar    1  UNL1        0.0013
     23 C           7.5213   -7.1974   26.9773 C.ar    1  UNL1        0.0001
     24 C           6.5871   -6.0267   26.8949 C.ar    1  UNL1        0.0013
     25 C           6.4697   -5.0779   28.0507 C.ar    1  UNL1        0.0184
@<TRIPOS>BOND
     1     6     7    2
     2     7     8   am
     3     8    10    1
     4    10    11    1
     5    11    12    1
     6    12    13    1
     7    13    14    1
     8    14    15    1
     9     7     1    1
    10     1     2   ar
    11     2     3   ar
    12     3     4   ar
    13     4    16    1
    14    16    17    1
    15    17    18    2
    16    17    19    2
    17    17    20    1
    18    20    21   ar
    19    21    22   ar
    20    22    23   ar
    21    23    24   ar
    22    24    25   ar
    23     4     5   ar
    24    15    10    1
    25     5     1   ar
    26    25    20   ar
    27     8     9    1
@<TRIPOS>MOLECULE
*****
 25 27 0 0 0
SMALL
GASTEIGER

@<TRIPOS>ATOM
      1 C           7.0281   -2.6283   19.4844 C.ar    1  UNL1        0.3038
      2 N           8.3558   -2.1875   18.9434 N.ar    1  UNL1       -0.1024
      3 N           9.4186   -3.0379   19.5738 N.ar    1  UNL1       -0.1094
      4 C           8.7476   -4.0043   20.5044 C.ar    1  UNL1        0.2508
      5 O           7.2702   -3.7510   20.4492 O.2     1  UNL1       -0.4143
      6 O           5.0802   -2.3485   17.7880 O.2     1  UNL1       -0.2650
      7 C           5.6926   -2.0480   19.1239 C.2     1  UNL1        0.3013
      8 N           4.9695   -1.1674   20.0994 N.am    1  UNL1       -0.2986
      9 H           5.3714   -0.9702   20.9762 H       1  UNL1        0.1498
     10 C           3.6340   -0.5871   19.7389 C.3     1  UNL1        0.0720
     11 C           3.5439    0.5145   18.7249 C.3     1  UNL1        0.0196
     12 C           2.2085    1.0947   18.3645 C.3     1  UNL1        0.0017
     13 C           0.9631    0.5732   19.0180 C.3     1  UNL1        0.0001
     14 C           1.0532   -0.5284   20.0320 C.3     1  UNL1        0.0017
     15 C           2.3886   -1.1086   20.3924 C.3     1  UNL1        0.0196
     16 C           9.4335   -5.0416   21.3430 C.3     1  UNL1        0.2420
     17 S           8.8226   -5.4813   22.6405 S.O2    1  UNL1        0.0178
     18 O           9.1484   -4.1481   23.2458 O.2     1  UNL1       -0.1681
     19 O           8.4968   -6.8145   22.0351 O.2     1  UNL1       -0.1681
     20 C           8.2116   -5.9211   23.9379 C.ar    1  UNL1        0.1062
     21 C           8.3536   -7.3445   24.3893 C.ar    1  UNL1        0.0184
     22 C           7.7426   -7.7844   25.6867 C.ar    1  UNL1        0.0013
     23 C           6.9897   -6.8008   26.5328 C.ar    1  UNL1        0.0001
     24 C           6.8479   -5.3774   26.0813 C.ar    1  UNL1        0.0013
     25 C           7.4588   -4.9376   24.7839 C.ar    1  UNL1        0.0184
@<TRIPOS>BOND
     1     6     7    2
     2     7     8   am
     3     8    10    1
     4    10    11    1
     5    11    12    1
     6    12    13    1
     7    13    14    1
     8    14    15    1
     9     7     1    1
    10     1     2   ar
    11     2     3   ar
    12     3     4   ar
    13     4    16    1
    14    16    17    1
    15    17    18    2
    16    17    19    2
    17    17    20    1
    18    20    21   ar
    19    21    22   ar
    20    22    23   ar
    21    23    24   ar
    22    24    25   ar
    23     4     5   ar
    24    15    10    1
    25     5     1   ar
    26    25    20   ar
    27     8     9    1
