@<TRIPOS>MOLECULE
*****
 37 41 0 0 0
SMALL
GASTEIGER

@<TRIPOS>ATOM
      1 C           7.7950   -3.1027   20.9391 C.3     1  UNL1        0.0972
      2 C           7.6233   -4.5580   21.2594 C.3     1  UNL1        0.0431
      3 C           7.4310   -4.6868   22.7415 C.3     1  UNL1        0.0968
      4 N           7.4839   -3.3112   23.3371 N.am    1  UNL1       -0.2623
      5 C           7.3376   -2.9738   24.7913 C.2     1  UNL1        0.3073
      6 O           7.4131   -1.5447   25.2409 O.2     1  UNL1       -0.2523
      7 N           7.1157   -4.0654   25.7958 N.am    1  UNL1       -0.2626
      8 C           7.0183   -5.5321   25.4970 C.3     1  UNL1        0.0964
      9 C           6.7947   -6.2551   26.7921 C.3     1  UNL1        0.0390
     10 C           6.7538   -5.2353   27.8913 C.3     1  UNL1        0.0758
     11 C           6.9522   -3.8819   27.2756 C.3     1  UNL1        0.1106
     12 C           7.7089   -2.3321   22.2232 C.3     1  UNL1        0.1147
     13 C           6.8684   -1.9016   18.8298 C.2     1  UNL1        0.2551
     14 O           7.0877   -1.3192   17.4650 O.2     1  UNL1       -0.2694
     15 N           8.0143   -2.5203   19.5743 N.am    1  UNL1       -0.2738
     16 C           9.3795   -2.5564   18.9539 C.3     1  UNL1        0.1152
     17 C           3.5851   -1.1811   20.7705 C.ar    1  UNL1        0.0296
     18 C           3.2194   -2.4384   20.0389 C.ar    1  UNL1        0.0071
     19 C           4.4048   -2.8614   19.2228 C.ar    1  UNL1        0.0115
     20 C           5.5032   -1.8655   19.4501 C.ar    1  UNL1        0.0830
     21 S           4.9966   -0.8270   20.4067 S.2     1  UNL1       -0.0824
     22 C           0.9166    1.1239   23.5663 C.ar    1  UNL1       -0.0222
     23 C           0.6259    1.1078   22.0948 C.ar    1  UNL1       -0.0043
     24 C           1.5154    0.3395   21.1629 C.ar    1  UNL1        0.0002
     25 C           2.6956   -0.4127   21.7025 C.ar    1  UNL1        0.0060
     26 C           2.9864   -0.3967   23.1739 C.ar    1  UNL1        0.0002
     27 C           2.0968    0.3717   24.1058 C.ar    1  UNL1       -0.0043
     28 C          -0.2607    1.3590   25.8703 C.3     1  UNL1        0.0050
     29 C           0.0271    1.8922   24.4982 C.3     1  UNL1        0.0264
     30 N           6.5503   -5.5190   29.3501 N.3     1  UNL1       -0.2980
     31 H           6.8190   -6.4913   29.5012 H       1  UNL1        0.1232
     32 C           7.2743   -4.7044   30.3807 C.3     1  UNL1        0.0590
     33 C           6.5189   -3.7235   31.2276 C.3     1  UNL1        0.0478
     34 C           7.2430   -2.9089   32.2582 C.3     1  UNL1        0.1435
     35 O           8.7223   -3.0752   32.4419 O.3     1  UNL1       -0.3537
     36 C           9.4777   -4.0561   31.5951 C.3     1  UNL1        0.1435
     37 C           8.7537   -4.8708   30.5644 C.3     1  UNL1        0.0478
@<TRIPOS>BOND
     1    28    29    1
     2    29    22    1
     3    22    23   ar
     4    23    24   ar
     5    24    25   ar
     6    25    17    1
     7    17    18   ar
     8    18    19   ar
     9    19    20   ar
    10    20    13    1
    11    13    14    2
    12    13    15   am
    13    15    16    1
    14     1    15    1
    15     1     2    1
    16     2     3    1
    17     3     4    1
    18     4     5   am
    19     5     6    2
    20     5     7   am
    21     7     8    1
    22     8     9    1
    23     9    10    1
    24    10    30    1
    25    30    32    1
    26    32    33    1
    27    33    34    1
    28    34    35    1
    29    35    36    1
    30    36    37    1
    31    10    11    1
    32     4    12    1
    33    20    21   ar
    34    25    26   ar
    35    26    27   ar
    36    27    22   ar
    37    21    17   ar
    38    12     1    1
    39    11     7    1
    40    37    32    1
    41    30    31    1
@<TRIPOS>MOLECULE
*****
 37 41 0 0 0
SMALL
GASTEIGER

@<TRIPOS>ATOM
      1 C           7.6455   -2.7761   20.9839 C.3     1  UNL1        0.0972
      2 C           7.3457   -1.6915   21.9758 C.3     1  UNL1        0.0431
      3 C           7.2106   -2.3250   23.3287 C.3     1  UNL1        0.0968
      4 N           7.4270   -3.8011   23.1731 N.am    1  UNL1       -0.2623
      5 C           7.3825   -4.8196   24.2733 C.2     1  UNL1        0.3073
      6 O           7.6198   -6.2682   23.9645 O.2     1  UNL1       -0.2523
      7 N           7.1006   -4.3896   25.6824 N.am    1  UNL1       -0.2626
      8 C           6.8448   -2.9845   26.1410 C.3     1  UNL1        0.0964
      9 C           6.6111   -3.0157   27.6224 C.3     1  UNL1        0.0390
     10 C           6.7224   -4.4401   28.0793 C.3     1  UNL1        0.0758
     11 C           7.0249   -5.2892   26.8804 C.3     1  UNL1        0.1106
     12 C           7.6957   -4.0799   21.7239 C.3     1  UNL1        0.1147
     13 C           6.6964   -2.2557   18.6220 C.2     1  UNL1        0.2551
     14 O           6.9086   -2.0692   17.1489 O.2     1  UNL1       -0.2694
     15 N           7.8577   -2.5896   19.5108 N.am    1  UNL1       -0.2738
     16 C           9.2312   -2.7370   18.9264 C.3     1  UNL1        0.1152
     17 C           3.2568   -1.1367   20.0302 C.ar    1  UNL1        0.0296
     18 C           3.1612   -2.6261   20.1811 C.ar    1  UNL1        0.0071
     19 C           4.4380   -3.2265   19.6720 C.ar    1  UNL1        0.0115
     20 C           5.3228   -2.1083   19.2064 C.ar    1  UNL1        0.0830
     21 S           4.5928   -0.8168   19.4278 S.2     1  UNL1       -0.0824
     22 C           0.0917    1.8473   21.1824 C.ar    1  UNL1       -0.0222
     23 C           0.9429    1.2105   22.2406 C.ar    1  UNL1       -0.0043
     24 C           1.9979    0.2158   21.8566 C.ar    1  UNL1        0.0002
     25 C           2.2018   -0.1421   20.4143 C.ar    1  UNL1        0.0060
     26 C           1.3506    0.4948   19.3560 C.ar    1  UNL1        0.0002
     27 C           0.2956    1.4894   19.7401 C.ar    1  UNL1       -0.0043
     28 C          -2.0501    3.1954   20.5949 C.3     1  UNL1        0.0050
     29 C          -0.9633    2.8420   21.5665 C.3     1  UNL1        0.0264
     30 N           6.5598   -4.9293   29.4879 N.3     1  UNL1       -0.2980
     31 H           6.9675   -5.8636   29.5240 H       1  UNL1        0.1232
     32 C           7.1549   -4.1529   30.6249 C.3     1  UNL1        0.0590
     33 C           6.2783   -3.2917   31.4851 C.3     1  UNL1        0.0478
     34 C           6.8735   -2.5153   32.6222 C.3     1  UNL1        0.1435
     35 O           8.3453   -2.6000   32.8990 O.3     1  UNL1       -0.3537
     36 C           9.2219   -3.4612   32.0389 C.3     1  UNL1        0.1435
     37 C           8.6267   -4.2377   30.9018 C.3     1  UNL1        0.0478
@<TRIPOS>BOND
     1    28    29    1
     2    29    22    1
     3    22    23   ar
     4    23    24   ar
     5    24    25   ar
     6    25    17    1
     7    17    18   ar
     8    18    19   ar
     9    19    20   ar
    10    20    13    1
    11    13    14    2
    12    13    15   am
    13    15    16    1
    14     1    15    1
    15     1     2    1
    16     2     3    1
    17     3     4    1
    18     4     5   am
    19     5     6    2
    20     5     7   am
    21     7     8    1
    22     8     9    1
    23     9    10    1
    24    10    30    1
    25    30    32    1
    26    32    33    1
    27    33    34    1
    28    34    35    1
    29    35    36    1
    30    36    37    1
    31    10    11    1
    32     4    12    1
    33    20    21   ar
    34    25    26   ar
    35    26    27   ar
    36    27    22   ar
    37    21    17   ar
    38    12     1    1
    39    11     7    1
    40    37    32    1
    41    30    31    1
@<TRIPOS>MOLECULE
*****
 37 41 0 0 0
SMALL
GASTEIGER

@<TRIPOS>ATOM
      1 C           7.1976   -3.0171   30.9019 C.3     1  UNL1        0.0972
      2 C           8.1896   -2.0853   31.5325 C.3     1  UNL1        0.0431
      3 C           7.5454   -1.4698   32.7393 C.3     1  UNL1        0.0968
      4 N           6.1552   -2.0212   32.8545 N.am    1  UNL1       -0.2623
      5 C           5.1555   -1.6768   33.9184 C.2     1  UNL1        0.3073
      6 O           3.7965   -2.3116   33.9043 O.2     1  UNL1       -0.2523
      7 N           5.5148   -0.6977   34.9965 N.am    1  UNL1       -0.2626
      8 C           6.8278    0.0134   35.1397 C.3     1  UNL1        0.0964
      9 C           6.7486    0.8928   36.3524 C.3     1  UNL1        0.0390
     10 C           5.3869    0.7252   36.9585 C.3     1  UNL1        0.0758
     11 C           4.6243   -0.2578   36.1205 C.3     1  UNL1        0.1106
     12 C           5.9402   -2.9774   31.7190 C.3     1  UNL1        0.1147
     13 C           6.9404   -3.3514   28.3383 C.2     1  UNL1        0.2551
     14 O           7.1661   -4.1777   27.1070 O.2     1  UNL1       -0.2694
     15 N           7.4232   -3.8434   29.6706 N.am    1  UNL1       -0.2738
     16 C           8.1315   -5.1617   29.7714 C.3     1  UNL1        0.1152
     17 C           4.4871   -0.3620   28.0063 C.ar    1  UNL1        0.0296
     18 C           5.7967    0.3533   28.1580 C.ar    1  UNL1        0.0071
     19 C           6.8752   -0.6794   28.3008 C.ar    1  UNL1        0.0115
     20 C           6.2321   -2.0330   28.2374 C.ar    1  UNL1        0.0830
     21 S           4.7561   -1.8368   28.0554 S.2     1  UNL1       -0.0824
     22 C           0.4583    1.5762   27.4941 C.ar    1  UNL1       -0.0222
     23 C           0.6125    0.3969   28.4081 C.ar    1  UNL1       -0.0043
     24 C           1.9554   -0.2491   28.5789 C.ar    1  UNL1        0.0002
     25 C           3.1441    0.2841   27.8356 C.ar    1  UNL1        0.0060
     26 C           2.9900    1.4633   26.9215 C.ar    1  UNL1        0.0002
     27 C           1.6470    2.1094   26.7508 C.ar    1  UNL1       -0.0043
     28 C          -1.3458    2.6446   25.9599 C.3     1  UNL1        0.0050
     29 C          -0.8846    2.2223   27.3233 C.3     1  UNL1        0.0264
     30 N           4.8771    1.4189   38.1869 N.3     1  UNL1       -0.2980
     31 H           5.4194    2.2770   38.2869 H       1  UNL1        0.1232
     32 C           3.4313    1.8064   38.2840 C.3     1  UNL1        0.0590
     33 C           2.4517    0.8876   38.9518 C.3     1  UNL1        0.0478
     34 C           1.0059    1.2751   39.0489 C.3     1  UNL1        0.1435
     35 O           0.5397    2.5816   38.4780 O.3     1  UNL1       -0.3537
     36 C           1.5193    3.5004   37.8102 C.3     1  UNL1        0.1435
     37 C           2.9652    3.1129   37.7131 C.3     1  UNL1        0.0478
@<TRIPOS>BOND
     1    28    29    1
     2    29    22    1
     3    22    23   ar
     4    23    24   ar
     5    24    25   ar
     6    25    17    1
     7    17    18   ar
     8    18    19   ar
     9    19    20   ar
    10    20    13    1
    11    13    14    2
    12    13    15   am
    13    15    16    1
    14     1    15    1
    15     1     2    1
    16     2     3    1
    17     3     4    1
    18     4     5   am
    19     5     6    2
    20     5     7   am
    21     7     8    1
    22     8     9    1
    23     9    10    1
    24    10    30    1
    25    30    32    1
    26    32    33    1
    27    33    34    1
    28    34    35    1
    29    35    36    1
    30    36    37    1
    31    10    11    1
    32     4    12    1
    33    20    21   ar
    34    25    26   ar
    35    26    27   ar
    36    27    22   ar
    37    21    17   ar
    38    12     1    1
    39    11     7    1
    40    37    32    1
    41    30    31    1
@<TRIPOS>MOLECULE
*****
 37 41 0 0 0
SMALL
GASTEIGER

@<TRIPOS>ATOM
      1 C          -0.8285    2.7494   25.6751 C.3     1  UNL1        0.0972
      2 C          -0.3965    1.3144   25.7403 C.3     1  UNL1        0.0431
      3 C           0.3112    1.1022   27.0457 C.3     1  UNL1        0.0968
      4 N           0.3167    2.4060   27.7873 N.am    1  UNL1       -0.2623
      5 C           0.9204    2.6492   29.1388 C.2     1  UNL1        0.3073
      6 O           0.8482    4.0135   29.7580 O.2     1  UNL1       -0.2523
      7 N           1.5964    1.5280   29.8709 N.am    1  UNL1       -0.2626
      8 C           1.7455    0.1182   29.3807 C.3     1  UNL1        0.0964
      9 C           2.4832   -0.6613   30.4287 C.3     1  UNL1        0.0390
     10 C           2.7901    0.2667   31.5664 C.3     1  UNL1        0.0758
     11 C           2.2420    1.6198   31.2217 C.3     1  UNL1        0.1106
     12 C          -0.3877    3.4240   26.9403 C.3     1  UNL1        0.1147
     13 C          -0.9983    3.3675   23.1574 C.2     1  UNL1        0.2551
     14 O          -1.7407    4.0143   22.0258 O.2     1  UNL1       -0.2694
     15 N          -1.5709    3.3962   24.5435 N.am    1  UNL1       -0.2738
     16 C          -2.8857    4.0716   24.7980 C.3     1  UNL1        0.1152
     17 C           1.9795    1.0499   22.2480 C.ar    1  UNL1        0.0296
     18 C           2.7006    2.2554   22.7741 C.ar    1  UNL1        0.0071
     19 C           1.6729    3.2704   23.1788 C.ar    1  UNL1        0.0115
     20 C           0.3166    2.6921   22.9028 C.ar    1  UNL1        0.0830
     21 S           0.5061    1.3198   22.3276 S.2     1  UNL1       -0.0824
     22 C           3.8993   -2.7152   20.7025 C.ar    1  UNL1       -0.0222
     23 C           3.0192   -1.8985   19.8035 C.ar    1  UNL1       -0.0043
     24 C           2.3793   -0.6435   20.3186 C.ar    1  UNL1        0.0002
     25 C           2.6194   -0.2051   21.7329 C.ar    1  UNL1        0.0060
     26 C           3.4995   -1.0218   22.6319 C.ar    1  UNL1        0.0002
     27 C           4.1394   -2.2768   22.1168 C.ar    1  UNL1       -0.0043
     28 C           3.8670   -4.7664   19.1084 C.3     1  UNL1        0.0050
     29 C           4.5392   -3.9702   20.1874 C.3     1  UNL1        0.0264
     30 N           3.5174   -0.0948   32.8275 N.3     1  UNL1       -0.2980
     31 H           2.8686   -0.6395   33.3957 H       1  UNL1        0.1232
     32 C           4.7949   -0.8779   32.7583 C.3     1  UNL1        0.0590
     33 C           4.7530   -2.3731   32.6459 C.3     1  UNL1        0.0478
     34 C           6.0305   -3.1561   32.5767 C.3     1  UNL1        0.1435
     35 O           7.3500   -2.4439   32.6198 O.3     1  UNL1       -0.3537
     36 C           7.3919   -0.9488   32.7321 C.3     1  UNL1        0.1435
     37 C           6.1143   -0.1657   32.8014 C.3     1  UNL1        0.0478
@<TRIPOS>BOND
     1    28    29    1
     2    29    22    1
     3    22    23   ar
     4    23    24   ar
     5    24    25   ar
     6    25    17    1
     7    17    18   ar
     8    18    19   ar
     9    19    20   ar
    10    20    13    1
    11    13    14    2
    12    13    15   am
    13    15    16    1
    14     1    15    1
    15     1     2    1
    16     2     3    1
    17     3     4    1
    18     4     5   am
    19     5     6    2
    20     5     7   am
    21     7     8    1
    22     8     9    1
    23     9    10    1
    24    10    30    1
    25    30    32    1
    26    32    33    1
    27    33    34    1
    28    34    35    1
    29    35    36    1
    30    36    37    1
    31    10    11    1
    32     4    12    1
    33    20    21   ar
    34    25    26   ar
    35    26    27   ar
    36    27    22   ar
    37    21    17   ar
    38    12     1    1
    39    11     7    1
    40    37    32    1
    41    30    31    1
@<TRIPOS>MOLECULE
*****
 37 41 0 0 0
SMALL
GASTEIGER

@<TRIPOS>ATOM
      1 C          -0.4136    2.9288   25.3735 C.3     1  UNL1        0.0972
      2 C           0.9342    3.4809   25.7323 C.3     1  UNL1        0.0431
      3 C           1.4818    2.6665   26.8667 C.3     1  UNL1        0.0968
      4 N           0.4725    1.6110   27.2090 N.am    1  UNL1       -0.2623
      5 C           0.6103    0.5752   28.2852 C.2     1  UNL1        0.3073
      6 O          -0.4879   -0.4208   28.5126 O.2     1  UNL1       -0.2523
      7 N           1.8464    0.5355   29.1340 N.am    1  UNL1       -0.2626
      8 C           3.0216    1.4612   29.0240 C.3     1  UNL1        0.0964
      9 C           4.0259    1.0609   30.0638 C.3     1  UNL1        0.0390
     10 C           3.4714   -0.1121   30.8165 C.3     1  UNL1        0.0758
     11 C           2.1244   -0.4369   30.2418 C.3     1  UNL1        0.1106
     12 C          -0.6989    1.7730   26.2862 C.3     1  UNL1        0.1147
     13 C          -0.9190    3.3023   22.8526 C.2     1  UNL1        0.2551
     14 O          -1.8227    3.8156   21.7711 O.2     1  UNL1       -0.2694
     15 N          -1.3173    3.4421   24.2920 N.am    1  UNL1       -0.2738
     16 C          -2.6192    4.0954   24.6498 C.3     1  UNL1        0.1152
     17 C           2.0342    0.9867   21.8615 C.ar    1  UNL1        0.0296
     18 C           2.7388    2.3006   22.0265 C.ar    1  UNL1        0.0071
     19 C           1.7183    3.3280   22.4178 C.ar    1  UNL1        0.0115
     20 C           0.3830    2.6490   22.4947 C.ar    1  UNL1        0.0830
     21 S           0.5782    1.2021   22.1509 S.2     1  UNL1       -0.0824
     22 C           3.9517   -2.9157   20.7019 C.ar    1  UNL1       -0.0222
     23 C           3.1639   -2.1373   19.6903 C.ar    1  UNL1       -0.0043
     24 C           2.5247   -0.8365   20.0768 C.ar    1  UNL1        0.0002
     25 C           2.6734   -0.3141   21.4750 C.ar    1  UNL1        0.0060
     26 C           3.4611   -1.0924   22.4866 C.ar    1  UNL1        0.0002
     27 C           4.1003   -2.3932   22.1001 C.ar    1  UNL1       -0.0043
     28 C           4.3707   -4.7819   18.9437 C.3     1  UNL1        0.0050
     29 C           4.5908   -4.2165   20.3154 C.3     1  UNL1        0.0264
     30 N           4.1456   -0.8337   31.9455 N.3     1  UNL1       -0.2980
     31 H           5.1258   -0.9393   31.6840 H       1  UNL1        0.1232
     32 C           4.1265   -0.2492   33.3268 C.3     1  UNL1        0.0590
     33 C           4.7961   -0.9734   34.4570 C.3     1  UNL1        0.0478
     34 C           4.7771   -0.3889   35.8383 C.3     1  UNL1        0.1435
     35 O           4.0885    0.9199   36.0894 O.3     1  UNL1       -0.3537
     36 C           3.4191    1.6441   34.9593 C.3     1  UNL1        0.1435
     37 C           3.4380    1.0596   33.5779 C.3     1  UNL1        0.0478
@<TRIPOS>BOND
     1    28    29    1
     2    29    22    1
     3    22    23   ar
     4    23    24   ar
     5    24    25   ar
     6    25    17    1
     7    17    18   ar
     8    18    19   ar
     9    19    20   ar
    10    20    13    1
    11    13    14    2
    12    13    15   am
    13    15    16    1
    14     1    15    1
    15     1     2    1
    16     2     3    1
    17     3     4    1
    18     4     5   am
    19     5     6    2
    20     5     7   am
    21     7     8    1
    22     8     9    1
    23     9    10    1
    24    10    30    1
    25    30    32    1
    26    32    33    1
    27    33    34    1
    28    34    35    1
    29    35    36    1
    30    36    37    1
    31    10    11    1
    32     4    12    1
    33    20    21   ar
    34    25    26   ar
    35    26    27   ar
    36    27    22   ar
    37    21    17   ar
    38    12     1    1
    39    11     7    1
    40    37    32    1
    41    30    31    1
@<TRIPOS>MOLECULE
*****
 37 41 0 0 0
SMALL
GASTEIGER

@<TRIPOS>ATOM
      1 C          -2.0626    4.3945   19.4998 C.3     1  UNL1        0.0972
      2 C          -0.8609    4.9876   18.8258 C.3     1  UNL1        0.0431
      3 C           0.2334    3.9619   18.8428 C.3     1  UNL1        0.0968
      4 N          -0.2919    2.7349   19.5273 N.am    1  UNL1       -0.2623
      5 C           0.4684    1.4637   19.7642 C.2     1  UNL1        0.3073
      6 O          -0.1922    0.3145   20.4663 O.2     1  UNL1       -0.2523
      7 N           1.8891    1.3417   19.2989 N.am    1  UNL1       -0.2626
      8 C           2.6777    2.4006   18.5869 C.3     1  UNL1        0.0964
      9 C           4.0468    1.8527   18.3119 C.3     1  UNL1        0.0390
     10 C           4.1043    0.4553   18.8541 C.3     1  UNL1        0.0758
     11 C           2.7708    0.1395   19.4641 C.3     1  UNL1        0.1106
     12 C          -1.7109    3.0022   19.9333 C.3     1  UNL1        0.1147
     13 C          -3.7931    5.5211   21.0766 C.2     1  UNL1        0.2551
     14 O          -5.1145    6.2009   21.2811 O.2     1  UNL1       -0.2694
     15 N          -3.3840    5.0743   19.7043 N.am    1  UNL1       -0.2738
     16 C          -4.2962    5.3074   18.5367 C.3     1  UNL1        0.1152
     17 C          -1.7744    4.2475   24.1373 C.ar    1  UNL1        0.0296
     18 C          -1.1800    5.6112   23.9451 C.ar    1  UNL1        0.0071
     19 C          -1.8639    6.2543   22.7752 C.ar    1  UNL1        0.0115
     20 C          -2.8809    5.2880   22.2443 C.ar    1  UNL1        0.0830
     21 S          -2.8256    4.0478   23.0861 S.2     1  UNL1       -0.0824
     22 C          -0.6086    1.2771   27.3103 C.ar    1  UNL1       -0.0222
     23 C           0.0582    1.2403   25.9672 C.ar    1  UNL1       -0.0043
     24 C          -0.3304    2.2305   24.9095 C.ar    1  UNL1        0.0002
     25 C          -1.3858    3.2574   25.1950 C.ar    1  UNL1        0.0060
     26 C          -2.0526    3.2941   26.5381 C.ar    1  UNL1        0.0002
     27 C          -1.6640    2.3040   27.5957 C.ar    1  UNL1       -0.0043
     28 C          -1.2661   -0.5779   29.0063 C.3     1  UNL1        0.0050
     29 C          -0.2200    0.2870   28.3679 C.3     1  UNL1        0.0264
     30 N           5.2876   -0.4647   18.7963 N.3     1  UNL1       -0.2980
     31 H           6.0402   -0.0092   19.3124 H       1  UNL1        0.1232
     32 C           5.1785   -1.8614   19.3324 C.3     1  UNL1        0.0590
     33 C           5.4176   -2.1264   20.7893 C.3     1  UNL1        0.0478
     34 C           5.3085   -3.5231   21.3254 C.3     1  UNL1        0.1435
     35 O           4.9604   -4.6548   20.4045 O.3     1  UNL1       -0.3537
     36 C           4.7213   -4.3898   18.9476 C.3     1  UNL1        0.1435
     37 C           4.8304   -2.9931   18.4115 C.3     1  UNL1        0.0478
@<TRIPOS>BOND
     1    28    29    1
     2    29    22    1
     3    22    23   ar
     4    23    24   ar
     5    24    25   ar
     6    25    17    1
     7    17    18   ar
     8    18    19   ar
     9    19    20   ar
    10    20    13    1
    11    13    14    2
    12    13    15   am
    13    15    16    1
    14     1    15    1
    15     1     2    1
    16     2     3    1
    17     3     4    1
    18     4     5   am
    19     5     6    2
    20     5     7   am
    21     7     8    1
    22     8     9    1
    23     9    10    1
    24    10    30    1
    25    30    32    1
    26    32    33    1
    27    33    34    1
    28    34    35    1
    29    35    36    1
    30    36    37    1
    31    10    11    1
    32     4    12    1
    33    20    21   ar
    34    25    26   ar
    35    26    27   ar
    36    27    22   ar
    37    21    17   ar
    38    12     1    1
    39    11     7    1
    40    37    32    1
    41    30    31    1
@<TRIPOS>MOLECULE
*****
 37 41 0 0 0
SMALL
GASTEIGER

@<TRIPOS>ATOM
      1 C          -0.4480    3.0444   25.5901 C.3     1  UNL1        0.0972
      2 C           0.8595    3.6776   25.9634 C.3     1  UNL1        0.0431
      3 C           1.4851    2.8466   27.0442 C.3     1  UNL1        0.0968
      4 N           0.5643    1.6999   27.3389 N.am    1  UNL1       -0.2623
      5 C           0.7972    0.6204   28.3540 C.2     1  UNL1        0.3073
      6 O          -0.2186   -0.4677   28.5383 O.2     1  UNL1       -0.2523
      7 N           2.0461    0.6291   29.1849 N.am    1  UNL1       -0.2626
      8 C           3.1458    1.6466   29.1129 C.3     1  UNL1        0.0964
      9 C           4.1939    1.2681   30.1171 C.3     1  UNL1        0.0390
     10 C           3.7419    0.0167   30.8096 C.3     1  UNL1        0.0758
     11 C           2.4145   -0.3783   30.2335 C.3     1  UNL1        0.1106
     12 C          -0.6305    1.8220   26.4403 C.3     1  UNL1        0.1147
     13 C          -1.0650    3.4177   23.0941 C.2     1  UNL1        0.2551
     14 O          -2.0220    3.9188   22.0535 O.2     1  UNL1       -0.2694
     15 N          -1.4051    3.5454   24.5495 N.am    1  UNL1       -0.2738
     16 C          -2.7022    4.1742   24.9641 C.3     1  UNL1        0.1152
     17 C           1.8904    1.1532   21.9971 C.ar    1  UNL1        0.0296
     18 C           2.5663    2.4894   22.0853 C.ar    1  UNL1        0.0071
     19 C           1.5415    3.5003   22.5070 C.ar    1  UNL1        0.0115
     20 C           0.2322    2.7890   22.6794 C.ar    1  UNL1        0.0830
     21 S           0.4479    1.3384   22.3643 S.2     1  UNL1       -0.0824
     22 C           3.8468   -2.7291   20.8351 C.ar    1  UNL1       -0.0222
     23 C           4.0226   -2.1864   22.2223 C.ar    1  UNL1       -0.0043
     24 C           3.3705   -0.8923   22.6097 C.ar    1  UNL1        0.0002
     25 C           2.5425   -0.1409   21.6098 C.ar    1  UNL1        0.0060
     26 C           2.3667   -0.6836   20.2226 C.ar    1  UNL1        0.0002
     27 C           3.0188   -1.9777   19.8352 C.ar    1  UNL1       -0.0043
     28 C           4.4260   -4.5046   19.0290 C.3     1  UNL1        0.0050
     29 C           4.4989   -4.0232   20.4477 C.3     1  UNL1        0.0264
     30 N           4.4866   -0.7118   31.8888 N.3     1  UNL1       -0.2980
     31 H           3.7873   -1.0661   32.5414 H       1  UNL1        0.1232
     32 C           5.3758   -1.8676   31.5374 C.3     1  UNL1        0.0590
     33 C           5.9648   -1.9695   30.1616 C.3     1  UNL1        0.0478
     34 C           6.8540   -3.1253   29.8102 C.3     1  UNL1        0.1435
     35 O           7.1542   -4.1791   30.8346 O.3     1  UNL1       -0.3537
     36 C           6.5653   -4.0772   32.2102 C.3     1  UNL1        0.1435
     37 C           5.6760   -2.9214   32.5617 C.3     1  UNL1        0.0478
@<TRIPOS>BOND
     1    28    29    1
     2    29    22    1
     3    22    23   ar
     4    23    24   ar
     5    24    25   ar
     6    25    17    1
     7    17    18   ar
     8    18    19   ar
     9    19    20   ar
    10    20    13    1
    11    13    14    2
    12    13    15   am
    13    15    16    1
    14     1    15    1
    15     1     2    1
    16     2     3    1
    17     3     4    1
    18     4     5   am
    19     5     6    2
    20     5     7   am
    21     7     8    1
    22     8     9    1
    23     9    10    1
    24    10    30    1
    25    30    32    1
    26    32    33    1
    27    33    34    1
    28    34    35    1
    29    35    36    1
    30    36    37    1
    31    10    11    1
    32     4    12    1
    33    20    21   ar
    34    25    26   ar
    35    26    27   ar
    36    27    22   ar
    37    21    17   ar
    38    12     1    1
    39    11     7    1
    40    37    32    1
    41    30    31    1
@<TRIPOS>MOLECULE
*****
 37 41 0 0 0
SMALL
GASTEIGER

@<TRIPOS>ATOM
      1 C           1.2036    4.4262   23.1404 C.3     1  UNL1        0.0972
      2 C           2.5763    4.0155   23.5844 C.3     1  UNL1        0.0431
      3 C           2.4305    3.1511   24.8016 C.3     1  UNL1        0.0968
      4 N           0.9678    3.0275   25.1099 N.am    1  UNL1       -0.2623
      5 C           0.3684    2.2521   26.2454 C.2     1  UNL1        0.3073
      6 O          -1.1200    2.2200   26.4287 O.2     1  UNL1       -0.2523
      7 N           1.2576    1.5086   27.1977 N.am    1  UNL1       -0.2626
      8 C           2.7553    1.4489   27.1413 C.3     1  UNL1        0.0964
      9 C           3.2284    0.5977   28.2823 C.3     1  UNL1        0.0390
     10 C           2.0231    0.1315   29.0438 C.3     1  UNL1        0.0758
     11 C           0.8051    0.6945   28.3734 C.3     1  UNL1        0.1106
     12 C           0.2095    3.8156   24.0833 C.3     1  UNL1        0.1147
     13 C           0.6296    4.6742   20.6187 C.2     1  UNL1        0.2551
     14 O           0.3075    5.5430   19.4391 O.2     1  UNL1       -0.2694
     15 N           0.8816    5.2950   21.9608 N.am    1  UNL1       -0.2738
     16 C           0.8116    6.7845   22.1232 C.3     1  UNL1        0.1152
     17 C           1.5270    0.9486   20.0027 C.ar    1  UNL1        0.0296
     18 C           0.0876    0.8366   20.4097 C.ar    1  UNL1        0.0071
     19 C          -0.4238    2.2185   20.6900 C.ar    1  UNL1        0.0115
     20 C           0.6995    3.1847   20.4563 C.ar    1  UNL1        0.0830
     21 S           1.9052    2.3998   20.0315 S.2     1  UNL1       -0.0824
     22 C           4.2350   -2.4690   18.8907 C.ar    1  UNL1       -0.0222
     23 C           3.9469   -1.3855   17.8942 C.ar    1  UNL1       -0.0043
     24 C           3.0442   -0.2463   18.2649 C.ar    1  UNL1        0.0002
     25 C           2.4297   -0.1906   19.6320 C.ar    1  UNL1        0.0060
     26 C           2.7178   -1.2741   20.6285 C.ar    1  UNL1        0.0002
     27 C           3.6205   -2.4133   20.2578 C.ar    1  UNL1       -0.0043
     28 C           4.6876   -5.0227   18.7360 C.3     1  UNL1        0.0050
     29 C           5.1377   -3.6082   18.5200 C.3     1  UNL1        0.0264
     30 N           2.0340   -0.7440   30.2617 N.3     1  UNL1       -0.2980
     31 H           2.2682   -1.6851   29.9458 H       1  UNL1        0.1232
     32 C           2.9543   -0.4290   31.4035 C.3     1  UNL1        0.0590
     33 C           4.0778   -1.3638   31.7412 C.3     1  UNL1        0.0478
     34 C           4.9981   -1.0488   32.8831 C.3     1  UNL1        0.1435
     35 O           4.7949    0.2010   33.6872 O.3     1  UNL1       -0.3537
     36 C           3.6715    1.1358   33.3496 C.3     1  UNL1        0.1435
     37 C           2.7511    0.8208   32.2077 C.3     1  UNL1        0.0478
@<TRIPOS>BOND
     1    28    29    1
     2    29    22    1
     3    22    23   ar
     4    23    24   ar
     5    24    25   ar
     6    25    17    1
     7    17    18   ar
     8    18    19   ar
     9    19    20   ar
    10    20    13    1
    11    13    14    2
    12    13    15   am
    13    15    16    1
    14     1    15    1
    15     1     2    1
    16     2     3    1
    17     3     4    1
    18     4     5   am
    19     5     6    2
    20     5     7   am
    21     7     8    1
    22     8     9    1
    23     9    10    1
    24    10    30    1
    25    30    32    1
    26    32    33    1
    27    33    34    1
    28    34    35    1
    29    35    36    1
    30    36    37    1
    31    10    11    1
    32     4    12    1
    33    20    21   ar
    34    25    26   ar
    35    26    27   ar
    36    27    22   ar
    37    21    17   ar
    38    12     1    1
    39    11     7    1
    40    37    32    1
    41    30    31    1
@<TRIPOS>MOLECULE
*****
 37 41 0 0 0
SMALL
GASTEIGER

@<TRIPOS>ATOM
      1 C           4.4301    0.0198   19.5437 C.3     1  UNL1        0.0972
      2 C           2.9306    0.0565   19.5336 C.3     1  UNL1        0.0431
      3 C           2.4731    0.6698   20.8238 C.3     1  UNL1        0.0968
      4 N           3.6899    1.0121   21.6313 N.am    1  UNL1       -0.2623
      5 C           3.6962    1.6451   22.9912 C.2     1  UNL1        0.3073
      6 O           4.9980    1.9298   23.6800 O.2     1  UNL1       -0.2523
      7 N           2.4007    1.9933   23.6624 N.am    1  UNL1       -0.2626
      8 C           1.0283    1.7693   23.0999 C.3     1  UNL1        0.0964
      9 C           0.0296    2.2643   24.1038 C.3     1  UNL1        0.0390
     10 C           0.7848    2.7941   25.2865 C.3     1  UNL1        0.0758
     11 C           2.2502    2.6266   25.0138 C.3     1  UNL1        0.1106
     12 C           4.8994    0.6105   20.8403 C.3     1  UNL1        0.1147
     13 C           5.9444   -1.8640   18.5908 C.2     1  UNL1        0.2551
     14 O           6.8207   -2.3977   17.4966 O.2     1  UNL1       -0.2694
     15 N           5.3064   -0.5138   18.4495 N.am    1  UNL1       -0.2738
     16 C           5.5449    0.3027   17.2141 C.3     1  UNL1        0.1152
     17 C           6.0145   -3.7405   21.9878 C.ar    1  UNL1        0.0296
     18 C           4.6640   -4.1341   21.4670 C.ar    1  UNL1        0.0071
     19 C           4.4733   -3.4791   20.1311 C.ar    1  UNL1        0.0115
     20 C           5.7060   -2.6807   19.8262 C.ar    1  UNL1        0.0830
     21 S           6.6585   -2.8422   20.9737 S.2     1  UNL1       -0.0824
     22 C           7.8174   -5.0283   25.9045 C.ar    1  UNL1       -0.0222
     23 C           6.7630   -3.9618   25.8789 C.ar    1  UNL1       -0.0043
     24 C           6.1621   -3.5325   24.5733 C.ar    1  UNL1        0.0002
     25 C           6.6155   -4.1698   23.2933 C.ar    1  UNL1        0.0060
     26 C           7.6699   -5.2363   23.3190 C.ar    1  UNL1        0.0002
     27 C           8.2709   -5.6656   24.6246 C.ar    1  UNL1       -0.0043
     28 C           7.5406   -6.0069   28.2952 C.3     1  UNL1        0.0050
     29 C           8.4184   -5.4576   27.2101 C.3     1  UNL1        0.0264
     30 N           0.1805    3.3872   26.5247 N.3     1  UNL1       -0.2980
     31 H          -0.7389    3.7426   26.2625 H       1  UNL1        0.1232
     32 C          -0.0157    2.5370   27.7448 C.3     1  UNL1        0.0590
     33 C           0.6753    2.8946   29.0272 C.3     1  UNL1        0.0478
     34 C           0.4790    2.0444   30.2473 C.3     1  UNL1        0.1435
     35 O          -0.4083    0.8365   30.1849 O.3     1  UNL1       -0.3537
     36 C          -1.0993    0.4790   28.9026 C.3     1  UNL1        0.1435
     37 C          -0.9030    1.3292   27.6824 C.3     1  UNL1        0.0478
@<TRIPOS>BOND
     1    28    29    1
     2    29    22    1
     3    22    23   ar
     4    23    24   ar
     5    24    25   ar
     6    25    17    1
     7    17    18   ar
     8    18    19   ar
     9    19    20   ar
    10    20    13    1
    11    13    14    2
    12    13    15   am
    13    15    16    1
    14     1    15    1
    15     1     2    1
    16     2     3    1
    17     3     4    1
    18     4     5   am
    19     5     6    2
    20     5     7   am
    21     7     8    1
    22     8     9    1
    23     9    10    1
    24    10    30    1
    25    30    32    1
    26    32    33    1
    27    33    34    1
    28    34    35    1
    29    35    36    1
    30    36    37    1
    31    10    11    1
    32     4    12    1
    33    20    21   ar
    34    25    26   ar
    35    26    27   ar
    36    27    22   ar
    37    21    17   ar
    38    12     1    1
    39    11     7    1
    40    37    32    1
    41    30    31    1
