@<TRIPOS>MOLECULE
*****
 33 37 0 0 0
SMALL
GASTEIGER

@<TRIPOS>ATOM
      1 C           3.0137    2.5547   18.9788 C.ar    1  UNL1        0.1646
      2 N           1.6430    2.7568   18.4038 N.ar    1  UNL1       -0.2224
      3 C           0.7147    3.1043   19.5297 C.ar    1  UNL1        0.1074
      4 C           1.5116    3.1170   20.8004 C.ar    1  UNL1        0.0588
      5 S           2.9324    2.7773   20.4599 S.2     1  UNL1       -0.0508
      6 C          -0.7528    3.3892   19.4063 C.ar    1  UNL1        0.1026
      7 C          -1.2696    4.1682   18.2333 C.ar    1  UNL1        0.0224
      8 C          -2.7371    4.4531   18.1099 C.ar    1  UNL1        0.0239
      9 C          -3.6879    3.9589   19.1596 C.ar    1  UNL1        0.1189
     10 C          -3.1711    3.1799   20.3326 C.ar    1  UNL1        0.2416
     11 N          -1.7035    2.8950   20.4561 N.ar    1  UNL1       -0.2089
     12 N          -5.1554    4.2438   19.0363 N.ar    1  UNL1       -0.2826
     13 C          -6.2051    3.2778   18.5727 C.ar    1  UNL1        0.1826
     14 N          -7.5294    3.9817   18.6048 N.ar    1  UNL1       -0.2280
     15 C          -7.2980    5.3826   19.0882 C.ar    1  UNL1        0.0786
     16 C          -8.3493    6.4366   19.2726 C.3     1  UNL1        0.0538
     17 C          -5.8308    5.5446   19.3549 C.ar    1  UNL1        0.0963
     18 O          -4.1218    2.6858   21.3824 O.3     1  UNL1       -0.4551
     19 C          -4.5282    3.5871   22.5104 C.3     1  UNL1        0.2543
     20 N           4.2487    2.1934   18.2079 N.pl3   1  UNL1       -0.2786
     21 H           4.7935    2.9000   17.7918 H       1  UNL1        0.1555
     22 N           5.7636    0.2304   17.2097 N.ar    1  UNL1       -0.2383
     23 N           5.8155   -1.2593   17.3778 N.ar    1  UNL1       -0.1729
     24 C           4.7376   -1.6547   18.3431 C.ar    1  UNL1        0.0766
     25 C           4.0194   -0.4095   18.7715 C.ar    1  UNL1        0.0244
     26 C           4.6535    0.7556   18.0711 C.ar    1  UNL1        0.1275
     27 C           2.9415   -0.8048   19.7368 C.3     1  UNL1        0.0308
     28 C           2.9934   -2.2945   19.9048 C.3     1  UNL1        0.0104
     29 C           4.1035   -2.8198   19.0435 C.3     1  UNL1        0.0372
     30 C           3.6831   -4.1529   19.5876 C.3     1  UNL1        0.0060
     31 C           5.1257   -3.6237   18.2959 C.3     1  UNL1        0.0060
     32 C           7.9617    1.5740   16.8737 C.3     1  UNL1        0.0285
     33 C           6.6636    1.0507   16.3341 C.3     1  UNL1        0.1289
@<TRIPOS>BOND
     1    32    33    1
     2    33    22    1
     3    22    23   ar
     4    23    24   ar
     5    24    25   ar
     6    25    26   ar
     7    26    20    1
     8    20     1    1
     9     1     2   ar
    10     2     3   ar
    11     3     6    1
    12     6     7   ar
    13     7     8   ar
    14     8     9   ar
    15     9    12    1
    16    12    13   ar
    17    13    14   ar
    18    14    15   ar
    19    15    16    1
    20    15    17   ar
    21     9    10   ar
    22    10    18    1
    23    18    19    1
    24    10    11   ar
    25     3     4   ar
    26     4     5   ar
    27    25    27    1
    28    27    28    1
    29    28    29    1
    30    29    30    1
    31    29    31    1
    32    26    22   ar
    33     5     1   ar
    34    29    24    1
    35    11     6   ar
    36    17    12   ar
    37    20    21    1
@<TRIPOS>MOLECULE
*****
 33 37 0 0 0
SMALL
GASTEIGER

@<TRIPOS>ATOM
      1 C          -1.9088    3.3637   20.2306 C.ar    1  UNL1        0.1646
      2 N          -1.2116    2.0764   20.5577 N.ar    1  UNL1       -0.2224
      3 C           0.0852    2.0472   19.8044 C.ar    1  UNL1        0.1074
      4 C           0.1895    3.3163   19.0117 C.ar    1  UNL1        0.0588
      5 S          -1.0429    4.1299   19.2751 S.2     1  UNL1       -0.0508
      6 C           1.0996    0.9427   19.8380 C.ar    1  UNL1        0.1026
      7 C           1.3528    0.1955   21.1138 C.ar    1  UNL1        0.0224
      8 C           2.3671   -0.9090   21.1474 C.ar    1  UNL1        0.0239
      9 C           3.1283   -1.2664   19.9052 C.ar    1  UNL1        0.1189
     10 C           2.8750   -0.5192   18.6295 C.ar    1  UNL1        0.2416
     11 N           1.8606    0.5854   18.5958 N.ar    1  UNL1       -0.2089
     12 N           4.1427   -2.3709   19.9388 N.ar    1  UNL1       -0.2826
     13 C           3.9241   -3.7829   19.4824 C.ar    1  UNL1        0.1826
     14 N           5.2001   -4.5419   19.6962 N.ar    1  UNL1       -0.2280
     15 C           6.2072   -3.5990   20.2847 C.ar    1  UNL1        0.0786
     16 C           7.6200   -3.9383   20.6578 C.3     1  UNL1        0.0538
     17 C           5.5537   -2.2572   20.4347 C.ar    1  UNL1        0.0963
     18 O           3.6361   -0.8765   17.3873 O.3     1  UNL1       -0.4551
     19 C           4.9673   -0.2412   17.1144 C.3     1  UNL1        0.2543
     20 N          -3.2384    3.8068   20.7651 N.pl3   1  UNL1       -0.2786
     21 H          -3.9411    4.1112   20.1463 H       1  UNL1        0.1555
     22 N          -4.8387    3.9024   22.9040 N.ar    1  UNL1       -0.2383
     23 N          -4.6309    3.8339   24.3880 N.ar    1  UNL1       -0.1729
     24 C          -3.1614    3.6755   24.6435 C.ar    1  UNL1        0.0766
     25 C          -2.4608    3.6461   23.3174 C.ar    1  UNL1        0.0244
     26 C          -3.4975    3.7863   22.2424 C.ar    1  UNL1        0.1275
     27 C          -0.9913    3.4877   23.5729 C.3     1  UNL1        0.0308
     28 C          -0.7836    3.4192   25.0569 C.3     1  UNL1        0.0104
     29 C          -2.1247    3.5353   25.7185 C.3     1  UNL1        0.0372
     30 C          -1.3340    3.4140   26.9874 C.3     1  UNL1        0.0060
     31 C          -3.3006    3.6260   26.6454 C.3     1  UNL1        0.0060
     32 C          -7.3976    4.3415   22.9978 C.3     1  UNL1        0.0285
     33 C          -6.1562    4.0594   22.2045 C.3     1  UNL1        0.1289
@<TRIPOS>BOND
     1    32    33    1
     2    33    22    1
     3    22    23   ar
     4    23    24   ar
     5    24    25   ar
     6    25    26   ar
     7    26    20    1
     8    20     1    1
     9     1     2   ar
    10     2     3   ar
    11     3     6    1
    12     6     7   ar
    13     7     8   ar
    14     8     9   ar
    15     9    12    1
    16    12    13   ar
    17    13    14   ar
    18    14    15   ar
    19    15    16    1
    20    15    17   ar
    21     9    10   ar
    22    10    18    1
    23    18    19    1
    24    10    11   ar
    25     3     4   ar
    26     4     5   ar
    27    25    27    1
    28    27    28    1
    29    28    29    1
    30    29    30    1
    31    29    31    1
    32    26    22   ar
    33     5     1   ar
    34    29    24    1
    35    11     6   ar
    36    17    12   ar
    37    20    21    1
@<TRIPOS>MOLECULE
*****
 33 37 0 0 0
SMALL
GASTEIGER

@<TRIPOS>ATOM
      1 C          -0.2310    2.1956   28.0229 C.ar    1  UNL1        0.1646
      2 N           1.1564    1.9869   28.5535 N.ar    1  UNL1       -0.2224
      3 C           1.2711    0.5605   29.0031 C.ar    1  UNL1        0.1074
      4 C          -0.0455   -0.1124   28.7504 C.ar    1  UNL1        0.0588
      5 S          -0.9738    0.8982   28.1446 S.2     1  UNL1       -0.0508
      6 C           2.4885   -0.0805   29.6005 C.ar    1  UNL1        0.1026
      7 C           3.7587   -0.1628   28.8068 C.ar    1  UNL1        0.0224
      8 C           4.9761   -0.8038   29.4042 C.ar    1  UNL1        0.0239
      9 C           4.9236   -1.3625   30.7953 C.ar    1  UNL1        0.1189
     10 C           3.6534   -1.2801   31.5890 C.ar    1  UNL1        0.2416
     11 N           2.4358   -0.6391   30.9916 N.ar    1  UNL1       -0.2089
     12 N           6.1410   -2.0034   31.3927 N.ar    1  UNL1       -0.2826
     13 C           6.4604   -3.4690   31.3832 C.ar    1  UNL1        0.1826
     14 N           7.7697   -3.6627   32.0892 N.ar    1  UNL1       -0.2280
     15 C           8.2594   -2.3168   32.5349 C.ar    1  UNL1        0.0786
     16 C           9.5323   -2.0443   33.2803 C.3     1  UNL1        0.0538
     17 C           7.2529   -1.2913   32.1045 C.ar    1  UNL1        0.0963
     18 O           3.6008   -1.8388   32.9801 O.3     1  UNL1       -0.4551
     19 C           4.2972   -1.1262   34.1013 C.3     1  UNL1        0.2543
     20 N          -0.7793    3.4768   27.4681 N.pl3   1  UNL1       -0.2786
     21 H          -0.6090    4.3275   27.9334 H       1  UNL1        0.1555
     22 N          -1.0910    3.0643   24.8455 N.ar    1  UNL1       -0.2383
     23 N          -2.2301    3.1986   23.8787 N.ar    1  UNL1       -0.1729
     24 C          -3.4300    3.6790   24.6399 C.ar    1  UNL1        0.0766
     25 C          -3.0326    3.8417   26.0772 C.ar    1  UNL1        0.0244
     26 C          -1.5871    3.4619   26.2042 C.ar    1  UNL1        0.1275
     27 C          -4.2325    4.3222   26.8384 C.3     1  UNL1        0.0308
     28 C          -5.3715    4.4563   25.8715 C.3     1  UNL1        0.0104
     29 C          -4.8755    4.0589   24.5128 C.3     1  UNL1        0.0372
     30 C          -6.2787    4.3692   24.0829 C.3     1  UNL1        0.0060
     31 C          -4.6729    3.7262   23.0643 C.3     1  UNL1        0.0060
     32 C           0.6531    1.1562   24.5869 C.3     1  UNL1        0.0285
     33 C           0.2997    2.6121   24.5122 C.3     1  UNL1        0.1289
@<TRIPOS>BOND
     1    32    33    1
     2    33    22    1
     3    22    23   ar
     4    23    24   ar
     5    24    25   ar
     6    25    26   ar
     7    26    20    1
     8    20     1    1
     9     1     2   ar
    10     2     3   ar
    11     3     6    1
    12     6     7   ar
    13     7     8   ar
    14     8     9   ar
    15     9    12    1
    16    12    13   ar
    17    13    14   ar
    18    14    15   ar
    19    15    16    1
    20    15    17   ar
    21     9    10   ar
    22    10    18    1
    23    18    19    1
    24    10    11   ar
    25     3     4   ar
    26     4     5   ar
    27    25    27    1
    28    27    28    1
    29    28    29    1
    30    29    30    1
    31    29    31    1
    32    26    22   ar
    33     5     1   ar
    34    29    24    1
    35    11     6   ar
    36    17    12   ar
    37    20    21    1
@<TRIPOS>MOLECULE
*****
 33 37 0 0 0
SMALL
GASTEIGER

@<TRIPOS>ATOM
      1 C           1.1295    0.7463   19.7548 C.ar    1  UNL1        0.1646
      2 N          -0.1861    0.8926   20.4606 N.ar    1  UNL1       -0.2224
      3 C          -0.5088    2.3552   20.5410 C.ar    1  UNL1        0.1074
      4 C           0.6072    3.1129   19.8850 C.ar    1  UNL1        0.0588
      5 S           1.6197    2.1185   19.3991 S.2     1  UNL1       -0.0508
      6 C          -1.7327    2.9549   21.1674 C.ar    1  UNL1        0.1026
      7 C          -1.6280    3.6735   22.4799 C.ar    1  UNL1        0.0224
      8 C          -2.8518    4.2732   23.1064 C.ar    1  UNL1        0.0239
      9 C          -4.1805    4.1543   22.4205 C.ar    1  UNL1        0.1189
     10 C          -4.2852    3.4356   21.1080 C.ar    1  UNL1        0.2416
     11 N          -3.0613    2.8359   20.4814 N.ar    1  UNL1       -0.2089
     12 N          -5.4044    4.7539   23.0469 N.ar    1  UNL1       -0.2826
     13 C          -6.0870    4.2670   24.2907 C.ar    1  UNL1        0.1826
     14 N          -7.2651    5.1579   24.5520 N.ar    1  UNL1       -0.2280
     15 C          -7.3105    6.1955   23.4697 C.ar    1  UNL1        0.0786
     16 C          -8.3275    7.2906   23.3404 C.3     1  UNL1        0.0538
     17 C          -6.1606    5.9458   22.5396 C.ar    1  UNL1        0.0963
     18 O          -5.6139    3.3167   20.4220 O.3     1  UNL1       -0.4551
     19 C          -5.7096    3.4979   18.9361 C.3     1  UNL1        0.2543
     20 N           1.8314   -0.5455   19.4571 N.pl3   1  UNL1       -0.2786
     21 H           1.7275   -0.9703   18.5751 H       1  UNL1        0.1555
     22 N           3.6060   -2.3607   20.2943 N.ar    1  UNL1       -0.2383
     23 N           4.2681   -2.6712   21.6041 N.ar    1  UNL1       -0.1729
     24 C           3.7629   -1.6925   22.6224 C.ar    1  UNL1        0.0766
     25 C           2.7886   -0.7771   21.9421 C.ar    1  UNL1        0.0244
     26 C           2.6917   -1.1900   20.5033 C.ar    1  UNL1        0.1275
     27 C           2.2834    0.2016   22.9604 C.3     1  UNL1        0.0308
     28 C           2.9455   -0.1090   24.2701 C.3     1  UNL1        0.0104
     29 C           3.8599   -1.2796   24.0612 C.3     1  UNL1        0.0372
     30 C           4.1612   -1.1038   25.5200 C.3     1  UNL1        0.0060
     31 C           4.8372   -2.4135   24.1572 C.3     1  UNL1        0.0060
     32 C           3.8057   -4.5919   18.9786 C.3     1  UNL1        0.0285
     33 C           3.8206   -3.0922   19.0026 C.3     1  UNL1        0.1289
@<TRIPOS>BOND
     1    32    33    1
     2    33    22    1
     3    22    23   ar
     4    23    24   ar
     5    24    25   ar
     6    25    26   ar
     7    26    20    1
     8    20     1    1
     9     1     2   ar
    10     2     3   ar
    11     3     6    1
    12     6     7   ar
    13     7     8   ar
    14     8     9   ar
    15     9    12    1
    16    12    13   ar
    17    13    14   ar
    18    14    15   ar
    19    15    16    1
    20    15    17   ar
    21     9    10   ar
    22    10    18    1
    23    18    19    1
    24    10    11   ar
    25     3     4   ar
    26     4     5   ar
    27    25    27    1
    28    27    28    1
    29    28    29    1
    30    29    30    1
    31    29    31    1
    32    26    22   ar
    33     5     1   ar
    34    29    24    1
    35    11     6   ar
    36    17    12   ar
    37    20    21    1
@<TRIPOS>MOLECULE
*****
 33 37 0 0 0
SMALL
GASTEIGER

@<TRIPOS>ATOM
      1 C           5.3480   -2.8562   19.8725 C.ar    1  UNL1        0.1646
      2 N           5.1293   -3.3640   21.2669 N.ar    1  UNL1       -0.2224
      3 C           6.4715   -3.5281   21.9163 C.ar    1  UNL1        0.1074
      4 C           7.5197   -3.1219   20.9233 C.ar    1  UNL1        0.0588
      5 S           6.8254   -2.7066   19.6601 S.2     1  UNL1       -0.0508
      6 C           6.7214   -4.0134   23.3135 C.ar    1  UNL1        0.1026
      7 C           6.3631   -3.1464   24.4839 C.ar    1  UNL1        0.0224
      8 C           6.6130   -3.6315   25.8810 C.ar    1  UNL1        0.0239
      9 C           7.2213   -4.9838   26.1079 C.ar    1  UNL1        0.1189
     10 C           7.5797   -5.8508   24.9375 C.ar    1  UNL1        0.2416
     11 N           7.3297   -5.3656   23.5402 N.ar    1  UNL1       -0.2089
     12 N           7.4713   -5.4690   27.5050 N.ar    1  UNL1       -0.2826
     13 C           6.5197   -5.3610   28.6594 C.ar    1  UNL1        0.1826
     14 N           7.1771   -5.9727   29.8609 N.ar    1  UNL1       -0.2280
     15 C           8.5350   -6.4588   29.4490 C.ar    1  UNL1        0.0786
     16 C           9.5355   -7.1372   30.3373 C.3     1  UNL1        0.0538
     17 C           8.7169   -6.1476   27.9930 C.ar    1  UNL1        0.0963
     18 O           8.1880   -7.2031   25.1642 O.3     1  UNL1       -0.4551
     19 C           9.4463   -7.5895   24.4451 C.3     1  UNL1        0.2543
     20 N           4.2774   -2.5516   18.8670 N.pl3   1  UNL1       -0.2786
     21 H           3.9075   -3.2727   18.3081 H       1  UNL1        0.1555
     22 N           4.4163   -0.0610   17.9064 N.ar    1  UNL1       -0.2383
     23 N           3.5736    1.1734   18.0337 N.ar    1  UNL1       -0.1729
     24 C           2.4071    0.8491   18.9192 C.ar    1  UNL1        0.0766
     25 C           2.5287   -0.5858   19.3391 C.ar    1  UNL1        0.0244
     26 C           3.7705   -1.1483   18.7132 C.ar    1  UNL1        0.1275
     27 C           1.3622   -0.9102   20.2245 C.3     1  UNL1        0.0308
     28 C           0.5196    0.3242   20.3518 C.3     1  UNL1        0.0104
     29 C           1.1653    1.4115   19.5450 C.3     1  UNL1        0.0372
     30 C           0.0080    2.2374   20.0231 C.3     1  UNL1        0.0060
     31 C           1.5692    2.6714   18.8382 C.3     1  UNL1        0.0060
     32 C           6.5945    0.9953   16.9634 C.3     1  UNL1        0.0285
     33 C           5.6823   -0.1862   17.1119 C.3     1  UNL1        0.1289
@<TRIPOS>BOND
     1    32    33    1
     2    33    22    1
     3    22    23   ar
     4    23    24   ar
     5    24    25   ar
     6    25    26   ar
     7    26    20    1
     8    20     1    1
     9     1     2   ar
    10     2     3   ar
    11     3     6    1
    12     6     7   ar
    13     7     8   ar
    14     8     9   ar
    15     9    12    1
    16    12    13   ar
    17    13    14   ar
    18    14    15   ar
    19    15    16    1
    20    15    17   ar
    21     9    10   ar
    22    10    18    1
    23    18    19    1
    24    10    11   ar
    25     3     4   ar
    26     4     5   ar
    27    25    27    1
    28    27    28    1
    29    28    29    1
    30    29    30    1
    31    29    31    1
    32    26    22   ar
    33     5     1   ar
    34    29    24    1
    35    11     6   ar
    36    17    12   ar
    37    20    21    1
@<TRIPOS>MOLECULE
*****
 33 37 0 0 0
SMALL
GASTEIGER

@<TRIPOS>ATOM
      1 C          -0.3277    2.4361   21.5482 C.ar    1  UNL1        0.1646
      2 N           0.3652    1.7120   22.6644 N.ar    1  UNL1       -0.2224
      3 C          -0.0030    2.3857   23.9530 C.ar    1  UNL1        0.1074
      4 C          -0.9235    3.5261   23.6333 C.ar    1  UNL1        0.0588
      5 S          -1.1242    3.5572   22.1471 S.2     1  UNL1       -0.0508
      6 C           0.4667    1.9887   25.3210 C.ar    1  UNL1        0.1026
      7 C           1.9323    1.9908   25.6407 C.ar    1  UNL1        0.0224
      8 C           2.4022    1.5938   27.0087 C.ar    1  UNL1        0.0239
      9 C           1.4065    1.1946   28.0572 C.ar    1  UNL1        0.1189
     10 C          -0.0591    1.1925   27.7376 C.ar    1  UNL1        0.2416
     11 N          -0.5290    1.5895   26.3694 N.ar    1  UNL1       -0.2089
     12 N           1.8762    0.7976   29.4253 N.ar    1  UNL1       -0.2826
     13 C           2.2278   -0.5918   29.8680 C.ar    1  UNL1        0.1826
     14 N           2.6458   -0.5278   31.3072 N.ar    1  UNL1       -0.2280
     15 C           2.5525    0.9011   31.7539 C.ar    1  UNL1        0.0786
     16 C           2.8778    1.4198   33.1233 C.3     1  UNL1        0.0538
     17 C           2.0769    1.7202   30.5908 C.ar    1  UNL1        0.0963
     18 O          -1.0548    0.7933   28.7860 O.3     1  UNL1       -0.4551
     19 C          -1.5489   -0.6215   28.8511 C.3     1  UNL1        0.2543
     20 N          -0.2397    2.0982   20.0894 N.pl3   1  UNL1       -0.2786
     21 H          -1.0454    2.1392   19.5251 H       1  UNL1        0.1555
     22 N           1.9524    2.5605   18.6313 N.ar    1  UNL1       -0.2383
     23 N           3.1643    1.7606   18.2552 N.ar    1  UNL1       -0.1729
     24 C           3.0369    0.4037   18.8819 C.ar    1  UNL1        0.0766
     25 C           1.7462    0.3650   19.6453 C.ar    1  UNL1        0.0244
     26 C           1.0760    1.6980   19.4904 C.ar    1  UNL1        0.1275
     27 C           1.6188   -0.9918   20.2720 C.3     1  UNL1        0.0308
     28 C           2.8307   -1.7917   19.8959 C.3     1  UNL1        0.0104
     29 C           3.7071   -0.9292   19.0368 C.3     1  UNL1        0.0372
     30 C           4.5996   -2.1346   19.0109 C.3     1  UNL1        0.0060
     31 C           4.7701   -0.3187   18.1723 C.3     1  UNL1        0.0060
     32 C           1.7089    5.0746   19.2393 C.3     1  UNL1        0.0285
     33 C           1.6670    3.9746   18.2205 C.3     1  UNL1        0.1289
@<TRIPOS>BOND
     1    32    33    1
     2    33    22    1
     3    22    23   ar
     4    23    24   ar
     5    24    25   ar
     6    25    26   ar
     7    26    20    1
     8    20     1    1
     9     1     2   ar
    10     2     3   ar
    11     3     6    1
    12     6     7   ar
    13     7     8   ar
    14     8     9   ar
    15     9    12    1
    16    12    13   ar
    17    13    14   ar
    18    14    15   ar
    19    15    16    1
    20    15    17   ar
    21     9    10   ar
    22    10    18    1
    23    18    19    1
    24    10    11   ar
    25     3     4   ar
    26     4     5   ar
    27    25    27    1
    28    27    28    1
    29    28    29    1
    30    29    30    1
    31    29    31    1
    32    26    22   ar
    33     5     1   ar
    34    29    24    1
    35    11     6   ar
    36    17    12   ar
    37    20    21    1
@<TRIPOS>MOLECULE
*****
 33 37 0 0 0
SMALL
GASTEIGER

@<TRIPOS>ATOM
      1 C           2.2507    2.0548   19.6281 C.ar    1  UNL1        0.1646
      2 N           2.4687    1.8215   21.0937 N.ar    1  UNL1       -0.2224
      3 C           1.1469    1.9662   21.7879 C.ar    1  UNL1        0.1074
      4 C           0.1119    2.2889   20.7512 C.ar    1  UNL1        0.0588
      5 S           0.7941    2.3437   19.4164 S.2     1  UNL1       -0.0508
      6 C           0.9030    1.8148   23.2601 C.ar    1  UNL1        0.1026
      7 C           1.8740    1.0457   24.1060 C.ar    1  UNL1        0.0224
      8 C           1.6302    0.8942   25.5782 C.ar    1  UNL1        0.0239
      9 C           0.4152    1.5118   26.2047 C.ar    1  UNL1        0.1189
     10 C          -0.5559    2.2809   25.3588 C.ar    1  UNL1        0.2416
     11 N          -0.3121    2.4324   23.8865 N.ar    1  UNL1       -0.2089
     12 N           0.1712    1.3604   27.6769 N.ar    1  UNL1       -0.2826
     13 C          -0.7414    0.3592   28.3210 C.ar    1  UNL1        0.1826
     14 N          -0.6795    0.5636   29.8058 N.ar    1  UNL1       -0.2280
     15 C           0.2713    1.6911   30.0792 C.ar    1  UNL1        0.0786
     16 C           0.6328    2.2313   31.4311 C.3     1  UNL1        0.0538
     17 C           0.7971    2.1835   28.7635 C.ar    1  UNL1        0.0963
     18 O          -1.7709    2.8985   25.9851 O.3     1  UNL1       -0.4551
     19 C          -1.6946    4.2780   26.5691 C.3     1  UNL1        0.2543
     20 N           3.3042    2.0075   18.5614 N.pl3   1  UNL1       -0.2786
     21 H           3.4990    2.8104   18.0260 H       1  UNL1        0.1555
     22 N           5.3091    0.6016   17.4896 N.ar    1  UNL1       -0.2383
     23 N           5.7221   -0.8404   17.5083 N.ar    1  UNL1       -0.1729
     24 C           4.7293   -1.5961   18.3409 C.ar    1  UNL1        0.0766
     25 C           3.7027   -0.6212   18.8368 C.ar    1  UNL1        0.0244
     26 C           4.0610    0.7370   18.3106 C.ar    1  UNL1        0.1275
     27 C           2.7099   -1.3770   19.6694 C.3     1  UNL1        0.0308
     28 C           3.1229   -2.8188   19.6881 C.3     1  UNL1        0.0104
     29 C           4.3710   -2.9543   18.8671 C.3     1  UNL1        0.0372
     30 C           4.2691   -4.4042   19.2378 C.3     1  UNL1        0.0060
     31 C           5.5977   -3.3928   18.1236 C.3     1  UNL1        0.0060
     32 C           7.3300    1.4501   16.0947 C.3     1  UNL1        0.0285
     33 C           6.0194    1.7129   16.7753 C.3     1  UNL1        0.1289
@<TRIPOS>BOND
     1    32    33    1
     2    33    22    1
     3    22    23   ar
     4    23    24   ar
     5    24    25   ar
     6    25    26   ar
     7    26    20    1
     8    20     1    1
     9     1     2   ar
    10     2     3   ar
    11     3     6    1
    12     6     7   ar
    13     7     8   ar
    14     8     9   ar
    15     9    12    1
    16    12    13   ar
    17    13    14   ar
    18    14    15   ar
    19    15    16    1
    20    15    17   ar
    21     9    10   ar
    22    10    18    1
    23    18    19    1
    24    10    11   ar
    25     3     4   ar
    26     4     5   ar
    27    25    27    1
    28    27    28    1
    29    28    29    1
    30    29    30    1
    31    29    31    1
    32    26    22   ar
    33     5     1   ar
    34    29    24    1
    35    11     6   ar
    36    17    12   ar
    37    20    21    1
@<TRIPOS>MOLECULE
*****
 33 37 0 0 0
SMALL
GASTEIGER

@<TRIPOS>ATOM
      1 C         -11.1655   -3.2230   18.4457 C.ar    1  UNL1        0.1646
      2 N         -12.1284   -2.1105   18.7380 N.ar    1  UNL1       -0.2224
      3 C         -11.8984   -1.0220   17.7319 C.ar    1  UNL1        0.1074
      4 C         -10.7935   -1.4617   16.8177 C.ar    1  UNL1        0.0588
      5 S         -10.3405   -2.8220   17.2589 S.2     1  UNL1       -0.0508
      6 C         -12.6428    0.2779   17.6537 C.ar    1  UNL1        0.1026
      7 C         -12.1472    1.3731   16.7566 C.ar    1  UNL1        0.0224
      8 C         -12.8914    2.6731   16.6784 C.ar    1  UNL1        0.0239
      9 C         -14.1314    2.8778   17.4973 C.ar    1  UNL1        0.1189
     10 C         -14.6270    1.7826   18.3944 C.ar    1  UNL1        0.2416
     11 N         -13.8827    0.4826   18.4727 N.ar    1  UNL1       -0.2089
     12 N         -14.8758    4.1778   17.4191 N.ar    1  UNL1       -0.2826
     13 C         -15.7937    4.6029   16.3116 C.ar    1  UNL1        0.1826
     14 N         -16.3181    5.9687   16.6428 N.ar    1  UNL1       -0.2280
     15 C         -15.7242    6.3876   17.9550 C.ar    1  UNL1        0.0786
     16 C         -15.9774    7.6855   18.6630 C.3     1  UNL1        0.0538
     17 C         -14.8328    5.2807   18.4348 C.ar    1  UNL1        0.0963
     18 O         -15.8670    1.9873   19.2133 O.3     1  UNL1       -0.4551
     19 C         -16.4698    0.8358   19.9622 C.3     1  UNL1        0.2543
     20 N         -11.0483   -4.5103   19.2065 N.pl3   1  UNL1       -0.2786
     21 H         -10.3061   -4.6421   19.8398 H       1  UNL1        0.1555
     22 N         -11.7912   -6.9607   18.4392 N.ar    1  UNL1       -0.2383
     23 N         -13.0862   -7.7174   18.4145 N.ar    1  UNL1       -0.1729
     24 C         -14.1571   -6.8214   18.9626 C.ar    1  UNL1        0.0766
     25 C         -13.5241   -5.5110   19.3260 C.ar    1  UNL1        0.0244
     26 C         -12.0619   -5.5970   19.0025 C.ar    1  UNL1        0.1275
     27 C         -14.5950   -4.6150   19.8740 C.3     1  UNL1        0.0308
     28 C         -15.8899   -5.3716   19.8493 C.3     1  UNL1        0.0104
     29 C         -15.6193   -6.7353   19.2860 C.3     1  UNL1        0.0372
     30 C         -17.0891   -6.9434   19.5011 C.3     1  UNL1        0.0060
     31 C         -15.6560   -8.1424   18.7677 C.3     1  UNL1        0.0060
     32 C          -9.3544   -7.6862   18.9734 C.3     1  UNL1        0.0285
     33 C         -10.4596   -7.4770   17.9810 C.3     1  UNL1        0.1289
@<TRIPOS>BOND
     1    32    33    1
     2    33    22    1
     3    22    23   ar
     4    23    24   ar
     5    24    25   ar
     6    25    26   ar
     7    26    20    1
     8    20     1    1
     9     1     2   ar
    10     2     3   ar
    11     3     6    1
    12     6     7   ar
    13     7     8   ar
    14     8     9   ar
    15     9    12    1
    16    12    13   ar
    17    13    14   ar
    18    14    15   ar
    19    15    16    1
    20    15    17   ar
    21     9    10   ar
    22    10    18    1
    23    18    19    1
    24    10    11   ar
    25     3     4   ar
    26     4     5   ar
    27    25    27    1
    28    27    28    1
    29    28    29    1
    30    29    30    1
    31    29    31    1
    32    26    22   ar
    33     5     1   ar
    34    29    24    1
    35    11     6   ar
    36    17    12   ar
    37    20    21    1
@<TRIPOS>MOLECULE
*****
 33 37 0 0 0
SMALL
GASTEIGER

@<TRIPOS>ATOM
      1 C         -16.3401   -4.0017   18.9014 C.ar    1  UNL1        0.1646
      2 N         -16.2853   -2.8536   19.8653 N.ar    1  UNL1       -0.2224
      3 C         -16.5297   -1.5898   19.0952 C.ar    1  UNL1        0.1074
      4 C         -16.7355   -1.9567   17.6555 C.ar    1  UNL1        0.0588
      5 S         -16.6183   -3.4473   17.5356 S.2     1  UNL1       -0.0508
      6 C         -16.5624   -0.2026   19.6650 C.ar    1  UNL1        0.1026
      7 C         -15.7510    0.8880   19.0308 C.ar    1  UNL1        0.0224
      8 C         -15.7837    2.2752   19.6005 C.ar    1  UNL1        0.0239
      9 C         -16.6279    2.5718   20.8045 C.ar    1  UNL1        0.1189
     10 C         -17.4393    1.4812   21.4387 C.ar    1  UNL1        0.2416
     11 N         -17.4066    0.0939   20.8690 N.ar    1  UNL1       -0.2089
     12 N         -16.6606    3.9590   21.3743 N.ar    1  UNL1       -0.2826
     13 C         -17.4861    5.1026   20.8638 C.ar    1  UNL1        0.1826
     14 N         -17.2093    6.2965   21.7286 N.ar    1  UNL1       -0.2280
     15 C         -16.2127    5.8907   22.7736 C.ar    1  UNL1        0.0786
     16 C         -15.6534    6.7745   23.8489 C.3     1  UNL1        0.0538
     17 C         -15.8736    4.4461   22.5547 C.ar    1  UNL1        0.0963
     18 O         -18.2834    1.7778   22.6426 O.3     1  UNL1       -0.4551
     19 C         -19.7091    2.2112   22.4707 C.3     1  UNL1        0.2543
     20 N         -16.1501   -5.4498   19.2432 N.pl3   1  UNL1       -0.2786
     21 H         -16.9060   -5.9773   19.5890 H       1  UNL1        0.1555
     22 N         -14.5573   -7.5519   18.8087 N.ar    1  UNL1       -0.2383
     23 N         -13.0757   -7.7528   18.6864 N.ar    1  UNL1       -0.1729
     24 C         -12.4113   -6.4192   18.8603 C.ar    1  UNL1        0.0766
     25 C         -13.4821   -5.3942   19.0901 C.ar    1  UNL1        0.0244
     26 C         -14.8083   -6.0942   19.0582 C.ar    1  UNL1        0.1275
     27 C         -12.8176   -4.0607   19.2640 C.3     1  UNL1        0.0308
     28 C         -11.3362   -4.2616   19.1417 C.3     1  UNL1        0.0104
     29 C         -11.0850   -5.7192   18.8922 C.3     1  UNL1        0.0372
     30 C          -9.6433   -5.3059   18.8711 C.3     1  UNL1        0.0060
     31 C         -10.5325   -7.0905   18.6383 C.3     1  UNL1        0.0060
     32 C         -16.4283   -8.9874   19.8988 C.3     1  UNL1        0.0285
     33 C         -15.6038   -8.6210   18.7005 C.3     1  UNL1        0.1289
@<TRIPOS>BOND
     1    32    33    1
     2    33    22    1
     3    22    23   ar
     4    23    24   ar
     5    24    25   ar
     6    25    26   ar
     7    26    20    1
     8    20     1    1
     9     1     2   ar
    10     2     3   ar
    11     3     6    1
    12     6     7   ar
    13     7     8   ar
    14     8     9   ar
    15     9    12    1
    16    12    13   ar
    17    13    14   ar
    18    14    15   ar
    19    15    16    1
    20    15    17   ar
    21     9    10   ar
    22    10    18    1
    23    18    19    1
    24    10    11   ar
    25     3     4   ar
    26     4     5   ar
    27    25    27    1
    28    27    28    1
    29    28    29    1
    30    29    30    1
    31    29    31    1
    32    26    22   ar
    33     5     1   ar
    34    29    24    1
    35    11     6   ar
    36    17    12   ar
    37    20    21    1
