@<TRIPOS>MOLECULE
*****
 31 34 0 0 0
SMALL
GASTEIGER

@<TRIPOS>ATOM
      1 C           5.0709   -0.9059   18.6152 C.ar    1  UNL1        0.1233
      2 C           5.9711   -1.3945   19.7111 C.ar    1  UNL1        0.1181
      3 N           7.0840   -2.1790   19.0816 N.ar    1  UNL1       -0.2208
      4 N           6.8714   -2.1751   17.5966 N.ar    1  UNL1       -0.0633
      5 N           5.6273   -1.3883   17.3085 N.ar    1  UNL1       -0.1287
      6 C           1.3535    1.5723   19.1537 C.ar    1  UNL1        0.0929
      7 C           2.5664    2.1708   18.5050 C.ar    1  UNL1        0.0199
      8 C           3.8055    1.3447   18.3256 C.ar    1  UNL1        0.0032
      9 C           3.8317   -0.0798   18.7947 C.ar    1  UNL1        0.0233
     10 C           2.6188   -0.6782   19.4434 C.ar    1  UNL1        0.0327
     11 C           1.3798    0.1478   19.6228 C.ar    1  UNL1        0.1562
     12 F           0.1668   -0.4506   20.2715 F       1  UNL1       -0.2026
     13 C          -2.9430    3.7837   21.2823 C.3     1  UNL1        0.0538
     14 C          -1.8605    3.4148   20.3116 C.ar    1  UNL1        0.0786
     15 C          -0.7241    2.4719   20.5748 C.ar    1  UNL1        0.0963
     16 N           0.1144    2.3984   19.3332 N.ar    1  UNL1       -0.2846
     17 C          -0.5038    3.2960   18.3026 C.ar    1  UNL1        0.1826
     18 N          -1.7244    3.9242   18.9073 N.ar    1  UNL1       -0.2280
     19 C           8.2113   -2.8495   19.8091 C.3     1  UNL1        0.2139
     20 C           7.9195   -3.8992   20.8401 C.2     1  UNL1        0.2511
     21 O           6.6764   -4.7318   20.7318 O.2     1  UNL1       -0.2726
     22 N           8.8707   -4.1164   21.9794 N.am    1  UNL1       -0.2816
     23 H           9.6866   -3.5700   22.0505 H       1  UNL1        0.1549
     24 C           8.5789   -5.1661   23.0104 C.ar    1  UNL1        0.0619
     25 C           9.0908   -6.5637   22.8235 C.ar    1  UNL1        0.0156
     26 C           8.7989   -7.6134   23.8544 C.ar    1  UNL1        0.0022
     27 C           7.9952   -7.2655   25.0723 C.ar    1  UNL1        0.0123
     28 C           7.4834   -5.8681   25.2593 C.ar    1  UNL1        0.0694
     29 CL          6.6797   -5.5203   26.4771 Cl      1  UNL1       -0.0813
     30 C           7.7752   -4.8184   24.2283 C.ar    1  UNL1        0.0816
     31 CL          7.2634   -3.4208   24.4151 Cl      1  UNL1       -0.0801
@<TRIPOS>BOND
     1    13    14    1
     2    14    15   ar
     3    15    16   ar
     4    16     6    1
     5     6     7   ar
     6     7     8   ar
     7     8     9   ar
     8     9     1    1
     9     1     2   ar
    10     2     3   ar
    11     3    19    1
    12    19    20    1
    13    20    21    2
    14    20    22   am
    15    22    24    1
    16    24    25   ar
    17    25    26   ar
    18    26    27   ar
    19    27    28   ar
    20    28    29    1
    21    28    30   ar
    22    30    31    1
    23     3     4   ar
    24     4     5   ar
    25     9    10   ar
    26    10    11   ar
    27    11    12    1
    28    16    17   ar
    29    17    18   ar
    30    18    14   ar
    31    11     6   ar
    32     5     1   ar
    33    30    24   ar
    34    22    23    1
@<TRIPOS>MOLECULE
*****
 31 34 0 0 0
SMALL
GASTEIGER

@<TRIPOS>ATOM
      1 C           0.1727    2.0848   19.0475 C.ar    1  UNL1        0.1233
      2 C          -0.9167    2.4689   20.0045 C.ar    1  UNL1        0.1181
      3 N          -1.6363    3.6556   19.4356 N.ar    1  UNL1       -0.2208
      4 N          -0.9917    4.0051   18.1270 N.ar    1  UNL1       -0.0633
      5 N           0.1263    3.0343   17.8871 N.ar    1  UNL1       -0.1287
      6 C           3.0710   -1.3181   19.5666 C.ar    1  UNL1        0.0929
      7 C           1.9877   -1.0945   20.5797 C.ar    1  UNL1        0.0199
      8 C           1.0217    0.0398   20.4066 C.ar    1  UNL1        0.0032
      9 C           1.1389    0.9505   19.2205 C.ar    1  UNL1        0.0233
     10 C           2.2221    0.7268   18.2074 C.ar    1  UNL1        0.0327
     11 C           3.1882   -0.4075   18.3804 C.ar    1  UNL1        0.1562
     12 F           4.2715   -0.6312   17.3672 F       1  UNL1       -0.2026
     13 C           7.3882   -4.0920   20.8109 C.3     1  UNL1        0.0538
     14 C           6.0216   -3.7275   20.3115 C.ar    1  UNL1        0.0786
     15 C           5.4103   -2.3579   20.3359 C.ar    1  UNL1        0.0963
     16 N           4.0372   -2.4525   19.7396 N.ar    1  UNL1       -0.2846
     17 C           3.7998   -3.8805   19.3466 C.ar    1  UNL1        0.1826
     18 N           5.0262   -4.6685   19.7001 N.ar    1  UNL1       -0.2280
     19 C          -2.7968    4.3679   20.0649 C.3     1  UNL1        0.2139
     20 C          -3.1994    4.0468   21.4737 C.2     1  UNL1        0.2511
     21 O          -4.0780    2.8631   21.7514 O.2     1  UNL1       -0.2726
     22 N          -2.7235    4.9094   22.6049 N.am    1  UNL1       -0.2816
     23 H          -2.1469    5.6862   22.4226 H       1  UNL1        0.1549
     24 C          -3.1262    4.5883   24.0137 C.ar    1  UNL1        0.0619
     25 C          -4.4269    5.1008   24.5572 C.ar    1  UNL1        0.0156
     26 C          -4.8296    4.7797   25.9660 C.ar    1  UNL1        0.0022
     27 C          -3.9314    3.9461   26.8313 C.ar    1  UNL1        0.0123
     28 C          -2.6307    3.4336   26.2878 C.ar    1  UNL1        0.0694
     29 CL         -1.7326    2.6001   27.1530 Cl      1  UNL1       -0.0813
     30 C          -2.2281    3.7547   24.8789 C.ar    1  UNL1        0.0816
     31 CL         -0.9274    3.2423   24.3353 Cl      1  UNL1       -0.0801
@<TRIPOS>BOND
     1    13    14    1
     2    14    15   ar
     3    15    16   ar
     4    16     6    1
     5     6     7   ar
     6     7     8   ar
     7     8     9   ar
     8     9     1    1
     9     1     2   ar
    10     2     3   ar
    11     3    19    1
    12    19    20    1
    13    20    21    2
    14    20    22   am
    15    22    24    1
    16    24    25   ar
    17    25    26   ar
    18    26    27   ar
    19    27    28   ar
    20    28    29    1
    21    28    30   ar
    22    30    31    1
    23     3     4   ar
    24     4     5   ar
    25     9    10   ar
    26    10    11   ar
    27    11    12    1
    28    16    17   ar
    29    17    18   ar
    30    18    14   ar
    31    11     6   ar
    32     5     1   ar
    33    30    24   ar
    34    22    23    1
@<TRIPOS>MOLECULE
*****
 31 34 0 0 0
SMALL
GASTEIGER

@<TRIPOS>ATOM
      1 C           6.0108   -3.8005   22.9737 C.ar    1  UNL1        0.1233
      2 C           6.3643   -4.2345   24.3653 C.ar    1  UNL1        0.1181
      3 N           7.4821   -5.2302   24.2705 N.ar    1  UNL1       -0.2208
      4 N           7.8194   -5.4116   22.8202 N.ar    1  UNL1       -0.0633
      5 N           6.9101   -4.5280   22.0187 N.ar    1  UNL1       -0.1287
      6 C           2.8136   -0.8363   21.8594 C.ar    1  UNL1        0.0929
      7 C           3.2678   -0.9493   23.2845 C.ar    1  UNL1        0.0199
      8 C           4.3335   -1.9373   23.6559 C.ar    1  UNL1        0.0032
      9 C           4.9450   -2.8124   22.6022 C.ar    1  UNL1        0.0233
     10 C           4.4909   -2.6994   21.1771 C.ar    1  UNL1        0.0327
     11 C           3.4252   -1.7114   20.8057 C.ar    1  UNL1        0.1562
     12 F           2.9710   -1.5983   19.3805 F       1  UNL1       -0.2026
     13 C           0.0355    3.6348   21.4440 C.3     1  UNL1        0.0538
     14 C           0.4709    2.2070   21.2970 C.ar    1  UNL1        0.0786
     15 C           1.7088    1.5976   21.8855 C.ar    1  UNL1        0.0963
     16 N           1.7479    0.1518   21.4879 N.ar    1  UNL1       -0.2846
     17 C           0.5342   -0.1324   20.6536 C.ar    1  UNL1        0.1826
     18 N          -0.2551    1.1377   20.5356 N.ar    1  UNL1       -0.2280
     19 C           8.1460   -5.9229   25.4235 C.3     1  UNL1        0.2139
     20 C           8.0771   -5.3257   26.7977 C.2     1  UNL1        0.2511
     21 O           9.2277   -4.5199   27.3239 O.2     1  UNL1       -0.2726
     22 N           6.8575   -5.5341   27.6458 N.am    1  UNL1       -0.2816
     23 H           6.1023   -6.0630   27.3005 H       1  UNL1        0.1549
     24 C           6.7886   -4.9369   29.0201 C.ar    1  UNL1        0.0619
     25 C           7.1008   -5.7801   30.2207 C.ar    1  UNL1        0.0156
     26 C           7.0319   -5.1828   31.5950 C.ar    1  UNL1        0.0022
     27 C           6.6507   -3.7424   31.7685 C.ar    1  UNL1        0.0123
     28 C           6.3385   -2.8993   30.5679 C.ar    1  UNL1        0.0694
     29 CL          5.9574   -1.4590   30.7414 Cl      1  UNL1       -0.0813
     30 C           6.4074   -3.4966   29.1936 C.ar    1  UNL1        0.0816
     31 CL          6.0952   -2.6535   27.9929 Cl      1  UNL1       -0.0801
@<TRIPOS>BOND
     1    13    14    1
     2    14    15   ar
     3    15    16   ar
     4    16     6    1
     5     6     7   ar
     6     7     8   ar
     7     8     9   ar
     8     9     1    1
     9     1     2   ar
    10     2     3   ar
    11     3    19    1
    12    19    20    1
    13    20    21    2
    14    20    22   am
    15    22    24    1
    16    24    25   ar
    17    25    26   ar
    18    26    27   ar
    19    27    28   ar
    20    28    29    1
    21    28    30   ar
    22    30    31    1
    23     3     4   ar
    24     4     5   ar
    25     9    10   ar
    26    10    11   ar
    27    11    12    1
    28    16    17   ar
    29    17    18   ar
    30    18    14   ar
    31    11     6   ar
    32     5     1   ar
    33    30    24   ar
    34    22    23    1
@<TRIPOS>MOLECULE
*****
 31 34 0 0 0
SMALL
GASTEIGER

@<TRIPOS>ATOM
      1 C           7.1793   -4.3895   27.1890 C.ar    1  UNL1        0.1233
      2 C           8.0532   -3.7675   26.1404 C.ar    1  UNL1        0.1181
      3 N           8.1491   -4.7246   24.9894 N.ar    1  UNL1       -0.2208
      4 N           7.3345   -5.9382   25.3268 N.ar    1  UNL1       -0.0633
      5 N           6.7352   -5.7311   26.6861 N.ar    1  UNL1       -0.1287
      6 C           6.0829   -2.5530   31.1482 C.ar    1  UNL1        0.0929
      7 C           5.9838   -1.7403   29.8913 C.ar    1  UNL1        0.0199
      8 C           6.3492   -2.3525   28.5716 C.ar    1  UNL1        0.0032
      9 C           6.8139   -3.7773   28.5088 C.ar    1  UNL1        0.0233
     10 C           6.9130   -4.5900   29.7656 C.ar    1  UNL1        0.0327
     11 C           6.5476   -3.9778   31.0853 C.ar    1  UNL1        0.1562
     12 F           6.6467   -4.7905   32.3422 F       1  UNL1       -0.2026
     13 C           6.2884    0.2837   35.5970 C.3     1  UNL1        0.0538
     14 C           5.8119   -0.6369   34.5128 C.ar    1  UNL1        0.0786
     15 C           6.5654   -0.9955   33.2664 C.ar    1  UNL1        0.0963
     16 N           5.7175   -1.9408   32.4679 N.ar    1  UNL1       -0.2846
     17 C           4.4400   -2.1665   33.2210 C.ar    1  UNL1        0.1826
     18 N           4.4983   -1.3606   34.4848 N.ar    1  UNL1       -0.2280
     19 C           8.9235   -4.5065   23.7235 C.3     1  UNL1        0.2139
     20 C           8.2028   -4.3992   22.4124 C.2     1  UNL1        0.2511
     21 O           8.1963   -5.5604   21.4628 O.2     1  UNL1       -0.2726
     22 N           7.4885   -3.1307   22.0508 N.am    1  UNL1       -0.2816
     23 H           7.4928   -2.3686   22.6741 H       1  UNL1        0.1549
     24 C           6.7677   -3.0233   20.7397 C.ar    1  UNL1        0.0619
     25 C           7.4723   -2.4619   19.5404 C.ar    1  UNL1        0.0156
     26 C           6.7516   -2.3545   18.2293 C.ar    1  UNL1        0.0022
     27 C           5.3263   -2.8087   18.1176 C.ar    1  UNL1        0.0123
     28 C           4.6218   -3.3701   19.3168 C.ar    1  UNL1        0.0694
     29 CL          3.1966   -3.8242   19.2051 Cl      1  UNL1       -0.0813
     30 C           5.3425   -3.4775   20.6280 C.ar    1  UNL1        0.0816
     31 CL          4.6381   -4.0389   21.8273 Cl      1  UNL1       -0.0801
@<TRIPOS>BOND
     1    13    14    1
     2    14    15   ar
     3    15    16   ar
     4    16     6    1
     5     6     7   ar
     6     7     8   ar
     7     8     9   ar
     8     9     1    1
     9     1     2   ar
    10     2     3   ar
    11     3    19    1
    12    19    20    1
    13    20    21    2
    14    20    22   am
    15    22    24    1
    16    24    25   ar
    17    25    26   ar
    18    26    27   ar
    19    27    28   ar
    20    28    29    1
    21    28    30   ar
    22    30    31    1
    23     3     4   ar
    24     4     5   ar
    25     9    10   ar
    26    10    11   ar
    27    11    12    1
    28    16    17   ar
    29    17    18   ar
    30    18    14   ar
    31    11     6   ar
    32     5     1   ar
    33    30    24   ar
    34    22    23    1
@<TRIPOS>MOLECULE
*****
 31 34 0 0 0
SMALL
GASTEIGER

@<TRIPOS>ATOM
      1 C           5.5987   -1.9292   32.0393 C.ar    1  UNL1        0.1233
      2 C           6.0236   -3.3500   32.2649 C.ar    1  UNL1        0.1181
      3 N           6.4799   -3.9116   30.9510 N.ar    1  UNL1       -0.2208
      4 N           6.3369   -2.8378   29.9133 N.ar    1  UNL1       -0.0633
      5 N           5.7923   -1.6127   30.5860 N.ar    1  UNL1       -0.1287
      6 C           4.0203    0.8887   35.1726 C.ar    1  UNL1        0.0929
      7 C           3.5411    0.9984   33.7555 C.ar    1  UNL1        0.0199
      8 C           4.0672    0.0591   32.7111 C.ar    1  UNL1        0.0032
      9 C           5.0726   -0.9899   33.0838 C.ar    1  UNL1        0.0233
     10 C           5.5518   -1.0996   34.5009 C.ar    1  UNL1        0.0327
     11 C           5.0256   -0.1603   35.5454 C.ar    1  UNL1        0.1562
     12 F           5.5048   -0.2699   36.9626 F       1  UNL1       -0.2026
     13 C           1.6708    2.7662   39.5127 C.3     1  UNL1        0.0538
     14 C           2.4142    2.6910   38.2121 C.ar    1  UNL1        0.0786
     15 C           2.7475    1.4378   37.4582 C.ar    1  UNL1        0.0963
     16 N           3.4941    1.8280   36.2171 N.ar    1  UNL1       -0.2846
     17 C           3.6222    3.3225   36.2039 C.ar    1  UNL1        0.1826
     18 N           2.9547    3.8558   37.4368 N.ar    1  UNL1       -0.2280
     19 C           6.9895   -5.3026   30.7159 C.3     1  UNL1        0.2139
     20 C           7.5066   -5.6933   29.3631 C.2     1  UNL1        0.2511
     21 O           8.9588   -6.0225   29.1816 O.2     1  UNL1       -0.2726
     22 N           6.5715   -5.7550   28.1919 N.am    1  UNL1       -0.2816
     23 H           5.6184   -5.5390   28.3110 H       1  UNL1        0.1549
     24 C           7.0886   -6.1457   26.8391 C.ar    1  UNL1        0.0619
     25 C           7.5800   -7.5424   26.5988 C.ar    1  UNL1        0.0156
     26 C           8.0971   -7.9331   25.2460 C.ar    1  UNL1        0.0022
     27 C           8.1226   -6.9271   24.1336 C.ar    1  UNL1        0.0123
     28 C           7.6312   -5.5305   24.3739 C.ar    1  UNL1        0.0694
     29 CL          7.6568   -4.5246   23.2615 Cl      1  UNL1       -0.0813
     30 C           7.1141   -5.1398   25.7267 C.ar    1  UNL1        0.0816
     31 CL          6.6227   -3.7431   25.9671 Cl      1  UNL1       -0.0801
@<TRIPOS>BOND
     1    13    14    1
     2    14    15   ar
     3    15    16   ar
     4    16     6    1
     5     6     7   ar
     6     7     8   ar
     7     8     9   ar
     8     9     1    1
     9     1     2   ar
    10     2     3   ar
    11     3    19    1
    12    19    20    1
    13    20    21    2
    14    20    22   am
    15    22    24    1
    16    24    25   ar
    17    25    26   ar
    18    26    27   ar
    19    27    28   ar
    20    28    29    1
    21    28    30   ar
    22    30    31    1
    23     3     4   ar
    24     4     5   ar
    25     9    10   ar
    26    10    11   ar
    27    11    12    1
    28    16    17   ar
    29    17    18   ar
    30    18    14   ar
    31    11     6   ar
    32     5     1   ar
    33    30    24   ar
    34    22    23    1
@<TRIPOS>MOLECULE
*****
 31 34 0 0 0
SMALL
GASTEIGER

@<TRIPOS>ATOM
      1 C           6.9260   -4.3775   23.1557 C.ar    1  UNL1        0.1233
      2 C           5.9941   -3.6036   22.2710 C.ar    1  UNL1        0.1181
      3 N           6.3800   -3.8695   20.8461 N.ar    1  UNL1       -0.2208
      4 N           7.5504   -4.8077   20.8502 N.ar    1  UNL1       -0.0633
      5 N           7.8878   -5.1216   22.2776 N.ar    1  UNL1       -0.1287
      6 C           6.8495   -4.4529   27.6544 C.ar    1  UNL1        0.0929
      7 C           6.3715   -3.2377   26.9165 C.ar    1  UNL1        0.0199
      8 C           6.3970   -3.2125   25.4170 C.ar    1  UNL1        0.0032
      9 C           6.9005   -4.4026   24.6553 C.ar    1  UNL1        0.0233
     10 C           7.3786   -5.6179   25.3933 C.ar    1  UNL1        0.0327
     11 C           7.3531   -5.6430   26.8928 C.ar    1  UNL1        0.1562
     12 F           7.8312   -6.8583   27.6308 F       1  UNL1       -0.2026
     13 C           6.5312   -2.9224   32.6980 C.3     1  UNL1        0.0538
     14 C           6.6777   -3.7746   31.4723 C.ar    1  UNL1        0.0786
     15 C           6.6358   -3.2919   30.0527 C.ar    1  UNL1        0.0963
     16 N           6.8241   -4.4781   29.1541 N.ar    1  UNL1       -0.2846
     17 C           6.9824   -5.6939   30.0183 C.ar    1  UNL1        0.1826
     18 N           6.8920   -5.2591   31.4510 N.ar    1  UNL1       -0.2280
     19 C           5.7126   -3.2977   19.6305 C.3     1  UNL1        0.2139
     20 C           4.4165   -2.5549   19.7660 C.2     1  UNL1        0.2511
     21 O           3.1211   -3.2436   19.4529 O.2     1  UNL1       -0.2726
     22 N           4.4157   -1.1236   20.2145 N.am    1  UNL1       -0.2816
     23 H           5.2658   -0.6716   20.4199 H       1  UNL1        0.1549
     24 C           3.1195   -0.3808   20.3500 C.ar    1  UNL1        0.0619
     25 C           2.4308   -0.3109   21.6807 C.ar    1  UNL1        0.0156
     26 C           1.1347    0.4318   21.8162 C.ar    1  UNL1        0.0022
     27 C           0.5273    1.1047   20.6209 C.ar    1  UNL1        0.0123
     28 C           1.2161    1.0348   19.2903 C.ar    1  UNL1        0.0694
     29 CL          0.6088    1.7077   18.0951 Cl      1  UNL1       -0.0813
     30 C           2.5122    0.2921   19.1548 C.ar    1  UNL1        0.0816
     31 CL          3.2010    0.2221   17.8242 Cl      1  UNL1       -0.0801
@<TRIPOS>BOND
     1    13    14    1
     2    14    15   ar
     3    15    16   ar
     4    16     6    1
     5     6     7   ar
     6     7     8   ar
     7     8     9   ar
     8     9     1    1
     9     1     2   ar
    10     2     3   ar
    11     3    19    1
    12    19    20    1
    13    20    21    2
    14    20    22   am
    15    22    24    1
    16    24    25   ar
    17    25    26   ar
    18    26    27   ar
    19    27    28   ar
    20    28    29    1
    21    28    30   ar
    22    30    31    1
    23     3     4   ar
    24     4     5   ar
    25     9    10   ar
    26    10    11   ar
    27    11    12    1
    28    16    17   ar
    29    17    18   ar
    30    18    14   ar
    31    11     6   ar
    32     5     1   ar
    33    30    24   ar
    34    22    23    1
@<TRIPOS>MOLECULE
*****
 31 34 0 0 0
SMALL
GASTEIGER

@<TRIPOS>ATOM
      1 C           7.7529   -4.5684   23.1707 C.ar    1  UNL1        0.1233
      2 C           7.6944   -3.3581   22.2866 C.ar    1  UNL1        0.1181
      3 N           7.9358   -3.8033   20.8747 N.ar    1  UNL1       -0.2208
      4 N           8.1435   -5.2888   20.8862 N.ar    1  UNL1       -0.0633
      5 N           8.0304   -5.7617   22.3052 N.ar    1  UNL1       -0.1287
      6 C           7.1938   -4.6120   27.6356 C.ar    1  UNL1        0.0929
      7 C           7.9866   -5.6965   26.9684 C.ar    1  UNL1        0.0199
      8 C           8.1730   -5.6820   25.4802 C.ar    1  UNL1        0.0032
      9 C           7.5665   -4.5829   24.6590 C.ar    1  UNL1        0.0233
     10 C           6.7736   -3.4984   25.3262 C.ar    1  UNL1        0.0327
     11 C           6.5873   -3.5129   26.8145 C.ar    1  UNL1        0.1562
     12 F           5.7944   -2.4283   27.4817 F       1  UNL1       -0.2026
     13 C           6.3000   -3.0513   32.6001 C.3     1  UNL1        0.0538
     14 C           6.5966   -3.9090   31.4059 C.ar    1  UNL1        0.0786
     15 C           6.6972   -3.4382   29.9853 C.ar    1  UNL1        0.0963
     16 N           7.0074   -4.6265   29.1240 N.ar    1  UNL1       -0.2846
     17 C           7.0986   -5.8317   30.0123 C.ar    1  UNL1        0.1826
     18 N           6.8446   -5.3883   31.4226 N.ar    1  UNL1       -0.2280
     19 C           7.9645   -2.9184   19.6638 C.3     1  UNL1        0.2139
     20 C           6.7018   -2.2705   19.1783 C.2     1  UNL1        0.2511
     21 O           6.0916   -2.6989   17.8766 O.2     1  UNL1       -0.2726
     22 N           6.0493   -1.1942   19.9942 N.am    1  UNL1       -0.2816
     23 H           6.4499   -0.9130   20.8485 H       1  UNL1        0.1549
     24 C           4.7866   -0.5463   19.5086 C.ar    1  UNL1        0.0619
     25 C           4.8444    0.4929   18.4284 C.ar    1  UNL1        0.0156
     26 C           3.5816    1.1408   17.9428 C.ar    1  UNL1        0.0022
     27 C           2.2612    0.7495   18.5375 C.ar    1  UNL1        0.0123
     28 C           2.2035   -0.2896   19.6177 C.ar    1  UNL1        0.0694
     29 CL          0.8832   -0.6809   20.2123 Cl      1  UNL1       -0.0813
     30 C           3.4663   -0.9375   20.1032 C.ar    1  UNL1        0.0816
     31 CL          3.4086   -1.9767   21.1834 Cl      1  UNL1       -0.0801
@<TRIPOS>BOND
     1    13    14    1
     2    14    15   ar
     3    15    16   ar
     4    16     6    1
     5     6     7   ar
     6     7     8   ar
     7     8     9   ar
     8     9     1    1
     9     1     2   ar
    10     2     3   ar
    11     3    19    1
    12    19    20    1
    13    20    21    2
    14    20    22   am
    15    22    24    1
    16    24    25   ar
    17    25    26   ar
    18    26    27   ar
    19    27    28   ar
    20    28    29    1
    21    28    30   ar
    22    30    31    1
    23     3     4   ar
    24     4     5   ar
    25     9    10   ar
    26    10    11   ar
    27    11    12    1
    28    16    17   ar
    29    17    18   ar
    30    18    14   ar
    31    11     6   ar
    32     5     1   ar
    33    30    24   ar
    34    22    23    1
@<TRIPOS>MOLECULE
*****
 31 34 0 0 0
SMALL
GASTEIGER

@<TRIPOS>ATOM
      1 C           6.7555   -4.5622   28.8849 C.ar    1  UNL1        0.1233
      2 C           6.4733   -3.4507   29.8517 C.ar    1  UNL1        0.1181
      3 N           6.5384   -4.0159   31.2397 N.ar    1  UNL1       -0.2208
      4 N           6.8609   -5.4768   31.1305 N.ar    1  UNL1       -0.0633
      5 N           6.9950   -5.8144   29.6752 N.ar    1  UNL1       -0.1287
      6 C           6.8643   -4.2031   24.4005 C.ar    1  UNL1        0.0929
      7 C           6.4628   -3.0250   25.2377 C.ar    1  UNL1        0.0199
      8 C           6.4265   -3.1448   26.7325 C.ar    1  UNL1        0.0032
      9 C           6.7918   -4.4425   27.3900 C.ar    1  UNL1        0.0233
     10 C           7.1933   -5.6206   26.5528 C.ar    1  UNL1        0.0327
     11 C           7.2296   -5.5009   25.0581 C.ar    1  UNL1        0.1562
     12 F           7.6311   -6.6790   24.2208 F       1  UNL1       -0.2026
     13 C           5.3894   -3.4648   19.3845 C.3     1  UNL1        0.0538
     14 C           6.2226   -3.7440   20.6001 C.ar    1  UNL1        0.0786
     15 C           5.7347   -3.7620   22.0184 C.ar    1  UNL1        0.0963
     16 N           6.9006   -4.0834   22.9057 N.ar    1  UNL1       -0.2846
     17 C           8.1091   -4.2642   22.0358 C.ar    1  UNL1        0.1826
     18 N           7.6901   -4.0544   20.6109 N.ar    1  UNL1       -0.2280
     19 C           6.3195   -3.2540   32.5131 C.3     1  UNL1        0.2139
     20 C           5.1525   -2.3197   32.6370 C.2     1  UNL1        0.2511
     21 O           3.8998   -2.7718   33.3273 O.2     1  UNL1       -0.2726
     22 N           5.2381   -0.9335   32.0706 N.am    1  UNL1       -0.2816
     23 H           6.0603   -0.6368   31.6175 H       1  UNL1        0.1549
     24 C           4.0712    0.0008   32.1945 C.ar    1  UNL1        0.0619
     25 C           3.8788    0.7980   33.4505 C.ar    1  UNL1        0.0156
     26 C           2.7118    1.7322   33.5744 C.ar    1  UNL1        0.0022
     27 C           1.7373    1.8692   32.4423 C.ar    1  UNL1        0.0123
     28 C           1.9297    1.0721   31.1863 C.ar    1  UNL1        0.0694
     29 CL          0.9552    1.2091   30.0543 Cl      1  UNL1       -0.0813
     30 C           3.0966    0.1378   31.0624 C.ar    1  UNL1        0.0816
     31 CL          3.2891   -0.6594   29.8065 Cl      1  UNL1       -0.0801
@<TRIPOS>BOND
     1    13    14    1
     2    14    15   ar
     3    15    16   ar
     4    16     6    1
     5     6     7   ar
     6     7     8   ar
     7     8     9   ar
     8     9     1    1
     9     1     2   ar
    10     2     3   ar
    11     3    19    1
    12    19    20    1
    13    20    21    2
    14    20    22   am
    15    22    24    1
    16    24    25   ar
    17    25    26   ar
    18    26    27   ar
    19    27    28   ar
    20    28    29    1
    21    28    30   ar
    22    30    31    1
    23     3     4   ar
    24     4     5   ar
    25     9    10   ar
    26    10    11   ar
    27    11    12    1
    28    16    17   ar
    29    17    18   ar
    30    18    14   ar
    31    11     6   ar
    32     5     1   ar
    33    30    24   ar
    34    22    23    1
@<TRIPOS>MOLECULE
*****
 31 34 0 0 0
SMALL
GASTEIGER

@<TRIPOS>ATOM
      1 C           0.1212    2.2014   25.8100 C.ar    1  UNL1        0.1233
      2 C           0.6892    2.0018   24.4361 C.ar    1  UNL1        0.1181
      3 N          -0.2678    2.5993   23.4476 N.ar    1  UNL1       -0.2208
      4 N          -1.4273    3.1681   24.2106 N.ar    1  UNL1       -0.0633
      5 N          -1.1868    2.9222   25.6706 N.ar    1  UNL1       -0.1287
      6 C           2.0099    0.8710   29.6717 C.ar    1  UNL1        0.0929
      7 C           2.7315    0.6632   28.3733 C.ar    1  UNL1        0.0199
      8 C           2.1019    1.1067   27.0861 C.ar    1  UNL1        0.0032
      9 C           0.7507    1.7579   27.0973 C.ar    1  UNL1        0.0233
     10 C           0.0291    1.9657   28.3957 C.ar    1  UNL1        0.0327
     11 C           0.6587    1.5223   29.6830 C.ar    1  UNL1        0.1562
     12 F          -0.0630    1.7301   30.9815 F       1  UNL1       -0.2026
     13 C           3.9716    0.8999   34.5740 C.3     1  UNL1        0.0538
     14 C           3.5412    0.4409   33.2123 C.ar    1  UNL1        0.0786
     15 C           2.9010    1.2924   32.1564 C.ar    1  UNL1        0.0963
     16 N           2.6394    0.4276   30.9590 N.ar    1  UNL1       -0.2846
     17 C           3.1180   -0.9584   31.2749 C.ar    1  UNL1        0.1826
     18 N           3.6753   -0.9503   32.6675 N.ar    1  UNL1       -0.2280
     19 C          -0.0956    2.6236   21.9577 C.3     1  UNL1        0.2139
     20 C           0.5320    1.4558   21.2560 C.2     1  UNL1        0.2511
     21 O          -0.3339    0.3948   20.6439 O.2     1  UNL1       -0.2726
     22 N           2.0255    1.3490   21.1665 N.am    1  UNL1       -0.2816
     23 H           2.5938    2.0453   21.5682 H       1  UNL1        0.1549
     24 C           2.6532    0.1812   20.4648 C.ar    1  UNL1        0.0619
     25 C           2.9748   -1.0686   21.2294 C.ar    1  UNL1        0.0156
     26 C           3.6025   -2.2364   20.5277 C.ar    1  UNL1        0.0022
     27 C           3.9085   -2.1543   19.0615 C.ar    1  UNL1        0.0123
     28 C           3.5868   -0.9046   18.2970 C.ar    1  UNL1        0.0694
     29 CL          3.8928   -0.8226   16.8308 Cl      1  UNL1       -0.0813
     30 C           2.9592    0.2632   18.9986 C.ar    1  UNL1        0.0816
     31 CL          2.6375    1.5130   18.2342 Cl      1  UNL1       -0.0801
@<TRIPOS>BOND
     1    13    14    1
     2    14    15   ar
     3    15    16   ar
     4    16     6    1
     5     6     7   ar
     6     7     8   ar
     7     8     9   ar
     8     9     1    1
     9     1     2   ar
    10     2     3   ar
    11     3    19    1
    12    19    20    1
    13    20    21    2
    14    20    22   am
    15    22    24    1
    16    24    25   ar
    17    25    26   ar
    18    26    27   ar
    19    27    28   ar
    20    28    29    1
    21    28    30   ar
    22    30    31    1
    23     3     4   ar
    24     4     5   ar
    25     9    10   ar
    26    10    11   ar
    27    11    12    1
    28    16    17   ar
    29    17    18   ar
    30    18    14   ar
    31    11     6   ar
    32     5     1   ar
    33    30    24   ar
    34    22    23    1
