@<TRIPOS>MOLECULE
*****
 35 38 0 0 0
SMALL
GASTEIGER

@<TRIPOS>ATOM
      1 C         -10.8235  -19.0013   22.8673 C.2     1  UNL1        0.2685
      2 O         -10.6678  -20.2658   22.0757 O.2     1  UNL1       -0.2682
      3 N          -9.6652  -18.0592   23.0114 N.am    1  UNL1       -0.2723
      4 C          -8.3511  -18.3817   22.3639 C.3     1  UNL1        0.0761
      5 C          -8.0630  -18.3536   20.8921 C.3     1  UNL1        0.0213
      6 C          -6.6283  -18.7434   20.6932 C.3     1  UNL1        0.0190
      7 C          -5.5635  -18.9670   19.6606 C.3     1  UNL1        0.0722
      8 N          -4.3068  -19.3742   20.3713 N.3     1  UNL1       -0.2724
      9 C          -4.5949  -19.4022   21.8431 C.3     1  UNL1        0.0722
     10 C          -6.0297  -19.0124   22.0420 C.3     1  UNL1        0.0190
     11 C          -7.0945  -18.7889   23.0746 C.3     1  UNL1        0.0213
     12 C          -2.9927  -19.6966   19.7238 C.3     1  UNL1        0.0809
     13 C          -2.2304  -18.6264   19.0004 C.3     1  UNL1        0.1206
     14 C          -1.3466  -17.6869   19.7662 C.3     1  UNL1        0.3991
     15 F          -0.4627  -16.7476   20.5319 F       1  UNL1       -0.1700
     16 F          -2.5028  -16.7495   19.9508 F       1  UNL1       -0.1700
     17 F          -0.1903  -18.6244   19.5815 F       1  UNL1       -0.1700
     18 C         -14.6585  -18.4820   26.4596 C.3     1  UNL1        0.1321
     19 N         -13.9003  -18.4400   25.1659 N.ar    1  UNL1       -0.3057
     20 C         -14.4192  -17.9247   23.8563 C.ar    1  UNL1        0.1787
     21 N         -13.3297  -18.0722   22.8358 N.ar    1  UNL1       -0.2192
     22 C         -12.1376  -18.6788   23.5148 C.ar    1  UNL1        0.1535
     23 C         -12.4902  -18.9061   24.9548 C.ar    1  UNL1        0.1012
     24 C          -9.8209  -16.7947   23.8030 C.3     1  UNL1        0.1205
     25 C          -8.7565  -16.3835   24.7766 C.ar    1  UNL1        0.0007
     26 C          -8.9937  -16.5245   26.2510 C.ar    1  UNL1       -0.0024
     27 C          -7.9293  -16.1133   27.2246 C.ar    1  UNL1        0.0028
     28 C          -6.6277  -15.5610   26.7239 C.ar    1  UNL1        0.0372
     29 C          -6.3904  -15.4199   25.2495 C.ar    1  UNL1        0.1465
     30 C          -7.4548  -15.8311   24.2759 C.ar    1  UNL1        0.0346
     31 O          -5.0889  -14.8676   24.7486 O.3     1  UNL1       -0.4045
     32 C          -4.3045  -15.6180   23.7134 C.3     1  UNL1        0.5753
     33 F          -3.5201  -16.3684   22.6781 F       1  UNL1       -0.1328
     34 F          -4.2940  -14.3997   22.8383 F       1  UNL1       -0.1328
     35 F          -4.3150  -16.8362   24.5884 F       1  UNL1       -0.1328
@<TRIPOS>BOND
     1    18    19    1
     2    19    20   ar
     3    20    21   ar
     4    21    22   ar
     5    22     1    1
     6     1     2    2
     7     1     3   am
     8     3    24    1
     9    24    25    1
    10    25    26   ar
    11    26    27   ar
    12    27    28   ar
    13    28    29   ar
    14    29    31    1
    15    31    32    1
    16    32    33    1
    17    32    34    1
    18    32    35    1
    19    29    30   ar
    20     4     3    1
    21     4     5    1
    22     6     5    1
    23     6     7    1
    24     7     8    1
    25     8    12    1
    26    12    13    1
    27    13    14    1
    28    14    15    1
    29    14    16    1
    30    14    17    1
    31     8     9    1
    32    10     9    1
    33    10    11    1
    34    22    23   ar
    35    23    19   ar
    36    30    25   ar
    37    11     4    1
    38    10     6    1
@<TRIPOS>MOLECULE
*****
 35 38 0 0 0
SMALL
GASTEIGER

@<TRIPOS>ATOM
      1 C           6.2275   -1.3998   32.7422 C.2     1  UNL1        0.2685
      2 O           7.2966   -1.0246   33.7251 O.2     1  UNL1       -0.2682
      3 N           4.8076   -0.9798   32.9818 N.am    1  UNL1       -0.2723
      4 C           4.4567   -0.1846   34.2044 C.3     1  UNL1        0.0761
      5 C           3.7405    1.1332   34.2235 C.3     1  UNL1        0.0213
      6 C           3.6017    1.5646   35.6534 C.3     1  UNL1        0.0190
      7 C           3.0733    2.6457   36.5489 C.3     1  UNL1        0.0722
      8 N           3.3771    2.2627   37.9670 N.3     1  UNL1       -0.2724
      9 C           4.0934    0.9449   37.9479 C.3     1  UNL1        0.0722
     10 C           4.2322    0.5135   36.5180 C.3     1  UNL1        0.0190
     11 C           4.7606   -0.5676   35.6225 C.3     1  UNL1        0.0213
     12 C           3.0263    3.0579   39.1895 C.3     1  UNL1        0.0809
     13 C           1.7412    2.7900   39.9152 C.3     1  UNL1        0.1206
     14 C           0.7711    1.7812   39.3754 C.3     1  UNL1        0.3991
     15 F          -0.1988    0.7722   38.8358 F       1  UNL1       -0.1700
     16 F          -0.0100    2.8820   38.7215 F       1  UNL1       -0.1700
     17 F           1.5524    0.6803   40.0294 F       1  UNL1       -0.1700
     18 C           7.0732   -5.4431   29.4533 C.3     1  UNL1        0.1321
     19 N           6.9670   -4.0534   30.0079 N.ar    1  UNL1       -0.3057
     20 C           7.2689   -2.7837   29.2686 C.ar    1  UNL1        0.1787
     21 N           7.0286   -1.6350   30.2030 N.ar    1  UNL1       -0.2192
     22 C           6.5782   -2.1950   31.5196 C.ar    1  UNL1        0.1535
     23 C           6.5401   -3.6895   31.3991 C.ar    1  UNL1        0.1012
     24 C           3.7384   -1.3550   31.9989 C.3     1  UNL1        0.1205
     25 C           3.3728   -0.4113   30.8919 C.ar    1  UNL1        0.0007
     26 C           4.2915    0.7200   30.5366 C.ar    1  UNL1       -0.0024
     27 C           3.9258    1.6638   29.4295 C.ar    1  UNL1        0.0028
     28 C           2.6415    1.4764   28.6777 C.ar    1  UNL1        0.0372
     29 C           1.7226    0.3451   29.0330 C.ar    1  UNL1        0.1465
     30 C           2.0883   -0.5986   30.1400 C.ar    1  UNL1        0.0346
     31 O           0.4382    0.1577   28.2812 O.3     1  UNL1       -0.4045
     32 C          -0.8718    0.2095   29.0101 C.3     1  UNL1        0.5753
     33 F          -2.1818    0.2613   29.7389 F       1  UNL1       -0.1328
     34 F          -0.4263    1.4522   29.7223 F       1  UNL1       -0.1328
     35 F          -1.3172   -1.0332   28.2979 F       1  UNL1       -0.1328
@<TRIPOS>BOND
     1    18    19    1
     2    19    20   ar
     3    20    21   ar
     4    21    22   ar
     5    22     1    1
     6     1     2    2
     7     1     3   am
     8     3    24    1
     9    24    25    1
    10    25    26   ar
    11    26    27   ar
    12    27    28   ar
    13    28    29   ar
    14    29    31    1
    15    31    32    1
    16    32    33    1
    17    32    34    1
    18    32    35    1
    19    29    30   ar
    20     4     3    1
    21     4     5    1
    22     6     5    1
    23     6     7    1
    24     7     8    1
    25     8    12    1
    26    12    13    1
    27    13    14    1
    28    14    15    1
    29    14    16    1
    30    14    17    1
    31     8     9    1
    32    10     9    1
    33    10    11    1
    34    22    23   ar
    35    23    19   ar
    36    30    25   ar
    37    11     4    1
    38    10     6    1
@<TRIPOS>MOLECULE
*****
 35 38 0 0 0
SMALL
GASTEIGER

@<TRIPOS>ATOM
      1 C           0.0063    3.1422   21.0533 C.2     1  UNL1        0.2685
      2 O           0.2042    4.2378   22.0584 O.2     1  UNL1       -0.2682
      3 N           0.3767    1.7305   21.3999 N.am    1  UNL1       -0.2723
      4 C           0.9452    1.4146   22.7516 C.3     1  UNL1        0.0761
      5 C           0.2757    1.6656   24.0702 C.3     1  UNL1        0.0213
      6 C           1.1997    1.1982   25.1555 C.3     1  UNL1        0.0190
      7 C           1.3570    1.0645   26.6412 C.3     1  UNL1        0.0722
      8 N           2.6947    0.4421   26.9116 N.3     1  UNL1       -0.2724
      9 C           3.3642    0.1911   25.5929 C.3     1  UNL1        0.0722
     10 C           2.4402    0.6584   24.5076 C.3     1  UNL1        0.0190
     11 C           2.2829    0.7921   23.0219 C.3     1  UNL1        0.0213
     12 C           3.2631    0.1261   28.2632 C.3     1  UNL1        0.0809
     13 C           2.3969   -0.5058   29.3121 C.3     1  UNL1        0.1206
     14 C           2.4045    0.0293   30.7134 C.3     1  UNL1        0.3991
     15 F           2.4121    0.5644   32.1147 F       1  UNL1       -0.1700
     16 F           3.1922   -1.1646   31.1651 F       1  UNL1       -0.1700
     17 F           1.6168    1.2232   30.2617 F       1  UNL1       -0.1700
     18 C          -3.3952    4.2549   17.1709 C.3     1  UNL1        0.1321
     19 N          -2.1255    3.9695   17.9171 N.ar    1  UNL1       -0.3057
     20 C          -0.7479    3.9188   17.3259 C.ar    1  UNL1        0.1787
     21 N           0.2184    3.6027   18.4289 N.ar    1  UNL1       -0.2192
     22 C          -0.5621    3.4580   19.7016 C.ar    1  UNL1        0.1535
     23 C          -2.0107    3.6848   19.3853 C.ar    1  UNL1        0.1012
     24 C           0.1788    0.6349   20.3947 C.3     1  UNL1        0.1205
     25 C           1.3642    0.0234   19.7086 C.ar    1  UNL1        0.0007
     26 C           1.9353    0.6685   18.4807 C.ar    1  UNL1       -0.0024
     27 C           3.1208    0.0570   17.7946 C.ar    1  UNL1        0.0028
     28 C           3.7352   -1.1996   18.3363 C.ar    1  UNL1        0.0372
     29 C           3.1641   -1.8448   19.5642 C.ar    1  UNL1        0.1465
     30 C           1.9787   -1.2332   20.2504 C.ar    1  UNL1        0.0346
     31 O           3.7785   -3.1013   20.1060 O.3     1  UNL1       -0.4045
     32 C           4.2220   -4.1843   19.1677 C.3     1  UNL1        0.5753
     33 F           4.6655   -5.2673   18.2294 F       1  UNL1       -0.1328
     34 F           5.6534   -3.8041   19.4055 F       1  UNL1       -0.1328
     35 F           2.7906   -4.5645   18.9300 F       1  UNL1       -0.1328
@<TRIPOS>BOND
     1    18    19    1
     2    19    20   ar
     3    20    21   ar
     4    21    22   ar
     5    22     1    1
     6     1     2    2
     7     1     3   am
     8     3    24    1
     9    24    25    1
    10    25    26   ar
    11    26    27   ar
    12    27    28   ar
    13    28    29   ar
    14    29    31    1
    15    31    32    1
    16    32    33    1
    17    32    34    1
    18    32    35    1
    19    29    30   ar
    20     4     3    1
    21     4     5    1
    22     6     5    1
    23     6     7    1
    24     7     8    1
    25     8    12    1
    26    12    13    1
    27    13    14    1
    28    14    15    1
    29    14    16    1
    30    14    17    1
    31     8     9    1
    32    10     9    1
    33    10    11    1
    34    22    23   ar
    35    23    19   ar
    36    30    25   ar
    37    11     4    1
    38    10     6    1
@<TRIPOS>MOLECULE
*****
 35 38 0 0 0
SMALL
GASTEIGER

@<TRIPOS>ATOM
      1 C           8.3333   -2.9248   24.2739 C.2     1  UNL1        0.2685
      2 O           9.3848   -2.2912   25.1358 O.2     1  UNL1       -0.2682
      3 N           7.0507   -3.4045   24.8860 N.am    1  UNL1       -0.2723
      4 C           6.8194   -3.2506   26.3601 C.3     1  UNL1        0.0761
      5 C           6.2375   -2.0471   27.0403 C.3     1  UNL1        0.0213
      6 C           6.1880   -2.3259   28.5133 C.3     1  UNL1        0.0190
      7 C           5.7977   -1.7544   29.8441 C.3     1  UNL1        0.0722
      8 N           6.1078   -2.7771   30.8968 N.3     1  UNL1       -0.2724
      9 C           6.6897   -3.9807   30.2164 C.3     1  UNL1        0.0722
     10 C           6.7393   -3.7018   28.7434 C.3     1  UNL1        0.0190
     11 C           7.1295   -4.2734   27.4126 C.3     1  UNL1        0.0213
     12 C           5.8766   -2.6232   32.3708 C.3     1  UNL1        0.0809
     13 C           5.7875   -1.2541   32.9771 C.3     1  UNL1        0.1206
     14 C           5.1895   -1.0753   34.3411 C.3     1  UNL1        0.3991
     15 F           4.5914   -0.8965   35.7050 F       1  UNL1       -0.1700
     16 F           6.5049   -0.5660   34.8511 F       1  UNL1       -0.1700
     17 F           3.8741   -1.5847   33.8311 F       1  UNL1       -0.1700
     18 C           8.5735   -1.9177   19.0961 C.3     1  UNL1        0.1321
     19 N           8.6749   -2.6159   20.4199 N.ar    1  UNL1       -0.3057
     20 C           9.1656   -4.0157   20.6430 C.ar    1  UNL1        0.1787
     21 N           9.0973   -4.3018   22.1140 N.ar    1  UNL1       -0.2192
     22 C           8.5645   -3.0788   22.7998 C.ar    1  UNL1        0.1535
     23 C           8.3034   -2.0369   21.7529 C.ar    1  UNL1        0.1012
     24 C           5.9992   -4.0382   24.0240 C.3     1  UNL1        0.1205
     25 C           5.0942   -3.1792   23.1915 C.ar    1  UNL1        0.0007
     26 C           4.3745   -2.0214   23.8171 C.ar    1  UNL1       -0.0024
     27 C           3.4695   -1.1624   22.9845 C.ar    1  UNL1        0.0028
     28 C           3.2841   -1.4613   21.5264 C.ar    1  UNL1        0.0372
     29 C           4.0038   -2.6191   20.9006 C.ar    1  UNL1        0.1465
     30 C           4.9088   -3.4781   21.7332 C.ar    1  UNL1        0.0346
     31 O           3.8185   -2.9181   19.4425 O.3     1  UNL1       -0.4045
     32 C           4.2836   -4.2288   18.8806 C.3     1  UNL1        0.5753
     33 F           4.7487   -5.5395   18.3187 F       1  UNL1       -0.1328
     34 F           3.0134   -4.8782   19.3441 F       1  UNL1       -0.1328
     35 F           5.5538   -3.5794   18.4170 F       1  UNL1       -0.1328
@<TRIPOS>BOND
     1    18    19    1
     2    19    20   ar
     3    20    21   ar
     4    21    22   ar
     5    22     1    1
     6     1     2    2
     7     1     3   am
     8     3    24    1
     9    24    25    1
    10    25    26   ar
    11    26    27   ar
    12    27    28   ar
    13    28    29   ar
    14    29    31    1
    15    31    32    1
    16    32    33    1
    17    32    34    1
    18    32    35    1
    19    29    30   ar
    20     4     3    1
    21     4     5    1
    22     6     5    1
    23     6     7    1
    24     7     8    1
    25     8    12    1
    26    12    13    1
    27    13    14    1
    28    14    15    1
    29    14    16    1
    30    14    17    1
    31     8     9    1
    32    10     9    1
    33    10    11    1
    34    22    23   ar
    35    23    19   ar
    36    30    25   ar
    37    11     4    1
    38    10     6    1
@<TRIPOS>MOLECULE
*****
 35 38 0 0 0
SMALL
GASTEIGER

@<TRIPOS>ATOM
      1 C           2.5466    2.0402   18.9138 C.2     1  UNL1        0.2685
      2 O           2.5277    3.5336   18.7739 O.2     1  UNL1       -0.2682
      3 N           1.3911    1.3324   19.5571 N.am    1  UNL1       -0.2723
      4 C           0.2167    2.1180   20.0606 C.3     1  UNL1        0.0761
      5 C          -0.2092    2.2466   21.4931 C.3     1  UNL1        0.0213
      6 C          -1.4272    3.1209   21.5378 C.3     1  UNL1        0.0190
      7 C          -2.4432    3.7408   22.4508 C.3     1  UNL1        0.0722
      8 N          -3.3981    4.5356   21.6102 N.3     1  UNL1       -0.2724
      9 C          -2.9721    4.4069   20.1777 C.3     1  UNL1        0.0722
     10 C          -1.7541    3.5326   20.1330 C.3     1  UNL1        0.0190
     11 C          -0.7381    2.9128   19.2200 C.3     1  UNL1        0.0213
     12 C          -4.5725    5.3211   22.1137 C.3     1  UNL1        0.0809
     13 C          -5.2746    4.8983   23.3699 C.3     1  UNL1        0.1206
     14 C          -6.6982    4.4290   23.3119 C.3     1  UNL1        0.3991
     15 F          -8.1217    3.9598   23.2538 F       1  UNL1       -0.1700
     16 F          -6.8088    4.5803   24.8001 F       1  UNL1       -0.1700
     17 F          -6.5876    4.2777   21.8237 F       1  UNL1       -0.1700
     18 C           7.4546    0.2032   18.2673 C.3     1  UNL1        0.1321
     19 N           5.9769    0.4102   18.1131 N.ar    1  UNL1       -0.3057
     20 C           5.0796   -0.3190   17.1576 C.ar    1  UNL1        0.1787
     21 N           3.6853    0.2029   17.3413 N.ar    1  UNL1       -0.2192
     22 C           3.7211    1.2546   18.4102 C.ar    1  UNL1        0.1535
     23 C           5.1374    1.3827   18.8872 C.ar    1  UNL1        0.1012
     24 C           1.4102   -0.1609   19.6969 C.3     1  UNL1        0.1205
     25 C           2.3259   -0.8094   20.6923 C.ar    1  UNL1        0.0007
     26 C           2.3718   -0.3095   22.1058 C.ar    1  UNL1       -0.0024
     27 C           3.2875   -0.9580   23.1013 C.ar    1  UNL1        0.0028
     28 C           4.1573   -2.1063   22.6833 C.ar    1  UNL1        0.0372
     29 C           4.1114   -2.6063   21.2698 C.ar    1  UNL1        0.1465
     30 C           3.1957   -1.9578   20.2744 C.ar    1  UNL1        0.0346
     31 O           4.9812   -3.7546   20.8517 O.3     1  UNL1       -0.4045
     32 C           4.7769   -4.4020   19.5141 C.3     1  UNL1        0.5753
     33 F           4.5727   -5.0494   18.1765 F       1  UNL1       -0.1328
     34 F           5.8680   -3.5506   18.9355 F       1  UNL1       -0.1328
     35 F           3.6859   -5.2533   20.0927 F       1  UNL1       -0.1328
@<TRIPOS>BOND
     1    18    19    1
     2    19    20   ar
     3    20    21   ar
     4    21    22   ar
     5    22     1    1
     6     1     2    2
     7     1     3   am
     8     3    24    1
     9    24    25    1
    10    25    26   ar
    11    26    27   ar
    12    27    28   ar
    13    28    29   ar
    14    29    31    1
    15    31    32    1
    16    32    33    1
    17    32    34    1
    18    32    35    1
    19    29    30   ar
    20     4     3    1
    21     4     5    1
    22     6     5    1
    23     6     7    1
    24     7     8    1
    25     8    12    1
    26    12    13    1
    27    13    14    1
    28    14    15    1
    29    14    16    1
    30    14    17    1
    31     8     9    1
    32    10     9    1
    33    10    11    1
    34    22    23   ar
    35    23    19   ar
    36    30    25   ar
    37    11     4    1
    38    10     6    1
@<TRIPOS>MOLECULE
*****
 35 38 0 0 0
SMALL
GASTEIGER

@<TRIPOS>ATOM
      1 C          -0.4469    2.8685   21.8157 C.2     1  UNL1        0.2685
      2 O          -0.2255    3.7846   22.9826 O.2     1  UNL1       -0.2682
      3 N           0.3671    1.6159   21.6804 N.am    1  UNL1       -0.2723
      4 C           1.4027    1.2793   22.7120 C.3     1  UNL1        0.0761
      5 C           1.1466    0.6264   24.0380 C.3     1  UNL1        0.0213
      6 C           2.4618    0.4801   24.7442 C.3     1  UNL1        0.0190
      7 C           3.1164   -0.0138   26.0002 C.3     1  UNL1        0.0722
      8 N           4.5898    0.2434   25.8871 N.3     1  UNL1       -0.2724
      9 C           4.8459    0.8964   24.5611 C.3     1  UNL1        0.0722
     10 C           3.5307    1.0427   23.8548 C.3     1  UNL1        0.0190
     11 C           2.8761    1.5366   22.5988 C.3     1  UNL1        0.0213
     12 C           5.6254   -0.0931   26.9187 C.3     1  UNL1        0.0809
     13 C           5.3931   -1.2275   27.8723 C.3     1  UNL1        0.1206
     14 C           5.7172   -1.0623   29.3276 C.3     1  UNL1        0.3991
     15 F           6.0413   -0.8971   30.7828 F       1  UNL1       -0.1700
     16 F           6.1611   -2.4937   29.3912 F       1  UNL1       -0.1700
     17 F           5.2734    0.3691   29.2639 F       1  UNL1       -0.1700
     18 C          -2.7490    4.5905   17.3866 C.3     1  UNL1        0.1321
     19 N          -2.5406    3.9965   18.7482 N.ar    1  UNL1       -0.3057
     20 C          -3.6116    3.4492   19.6445 C.ar    1  UNL1        0.1787
     21 N          -2.9575    2.9600   20.9028 N.ar    1  UNL1       -0.2192
     22 C          -1.4825    3.2051   20.7839 C.ar    1  UNL1        0.1535
     23 C          -1.2248    3.8457   19.4524 C.ar    1  UNL1        0.1012
     24 C           0.1456    0.6999   20.5134 C.3     1  UNL1        0.1205
     25 C           1.3192    0.0972   19.7998 C.ar    1  UNL1        0.0007
     26 C           1.8650    0.7536   18.5664 C.ar    1  UNL1       -0.0024
     27 C           3.0386    0.1508   17.8528 C.ar    1  UNL1        0.0028
     28 C           3.6665   -1.1084   18.3725 C.ar    1  UNL1        0.0372
     29 C           3.1207   -1.7649   19.6058 C.ar    1  UNL1        0.1465
     30 C           1.9471   -1.1621   20.3194 C.ar    1  UNL1        0.0346
     31 O           3.7485   -3.0242   20.1256 O.3     1  UNL1       -0.4045
     32 C           4.1669   -4.1030   19.1710 C.3     1  UNL1        0.5753
     33 F           4.5853   -5.1818   18.2164 F       1  UNL1       -0.1328
     34 F           2.7287   -4.4716   18.9573 F       1  UNL1       -0.1328
     35 F           5.6051   -3.7343   19.3847 F       1  UNL1       -0.1328
@<TRIPOS>BOND
     1    18    19    1
     2    19    20   ar
     3    20    21   ar
     4    21    22   ar
     5    22     1    1
     6     1     2    2
     7     1     3   am
     8     3    24    1
     9    24    25    1
    10    25    26   ar
    11    26    27   ar
    12    27    28   ar
    13    28    29   ar
    14    29    31    1
    15    31    32    1
    16    32    33    1
    17    32    34    1
    18    32    35    1
    19    29    30   ar
    20     4     3    1
    21     4     5    1
    22     6     5    1
    23     6     7    1
    24     7     8    1
    25     8    12    1
    26    12    13    1
    27    13    14    1
    28    14    15    1
    29    14    16    1
    30    14    17    1
    31     8     9    1
    32    10     9    1
    33    10    11    1
    34    22    23   ar
    35    23    19   ar
    36    30    25   ar
    37    11     4    1
    38    10     6    1
@<TRIPOS>MOLECULE
*****
 35 38 0 0 0
SMALL
GASTEIGER

@<TRIPOS>ATOM
      1 C           4.6244    0.7760   35.8850 C.2     1  UNL1        0.2685
      2 O           4.9960   -0.4291   36.6971 O.2     1  UNL1       -0.2682
      3 N           4.9716    0.8340   34.4269 N.am    1  UNL1       -0.2723
      4 C           5.6905   -0.3131   33.7809 C.3     1  UNL1        0.0761
      5 C           5.0847   -1.6316   33.4008 C.3     1  UNL1        0.0213
      6 C           6.1612   -2.4765   32.7865 C.3     1  UNL1        0.0190
      7 C           6.4521   -3.8135   32.1720 C.3     1  UNL1        0.0722
      8 N           7.9031   -3.8435   31.7926 N.3     1  UNL1       -0.2724
      9 C           8.5089   -2.5249   32.1727 C.3     1  UNL1        0.0722
     10 C           7.4324   -1.6801   32.7869 C.3     1  UNL1        0.0190
     11 C           7.1414   -0.3430   33.4015 C.3     1  UNL1        0.0213
     12 C           8.6220   -4.9905   31.1466 C.3     1  UNL1        0.0809
     13 C           7.8423   -6.1317   30.5638 C.3     1  UNL1        0.1206
     14 C           7.6113   -6.2039   29.0834 C.3     1  UNL1        0.3991
     15 F           7.3803   -6.2759   27.6030 F       1  UNL1       -0.1700
     16 F           8.9080   -6.9391   28.9168 F       1  UNL1       -0.1700
     17 F           6.3146   -5.4685   29.2499 F       1  UNL1       -0.1700
     18 C           3.6445    5.2280   38.5496 C.3     1  UNL1        0.1321
     19 N           3.4550    3.9694   37.7557 N.ar    1  UNL1       -0.3057
     20 C           2.1432    3.4073   37.2942 C.ar    1  UNL1        0.1787
     21 N           2.4216    2.1425   36.5372 N.ar    1  UNL1       -0.2192
     22 C           3.9055    1.9231   36.5310 C.ar    1  UNL1        0.1535
     23 C           4.5442    3.0522   37.2840 C.ar    1  UNL1        0.1012
     24 C           4.6000    2.0391   33.6148 C.3     1  UNL1        0.1205
     25 C           3.3017    2.0663   32.8640 C.ar    1  UNL1        0.0007
     26 C           2.3332    3.1909   33.0810 C.ar    1  UNL1       -0.0024
     27 C           1.0349    3.2180   32.3301 C.ar    1  UNL1        0.0028
     28 C           0.7052    2.1206   31.3622 C.ar    1  UNL1        0.0372
     29 C           1.6737    0.9959   31.1452 C.ar    1  UNL1        0.1465
     30 C           2.9719    0.9688   31.8960 C.ar    1  UNL1        0.0346
     31 O           1.3440   -0.1016   30.1773 O.3     1  UNL1       -0.4045
     32 C           0.7264    0.2287   28.8509 C.3     1  UNL1        0.5753
     33 F           0.1086    0.5589   27.5244 F       1  UNL1       -0.1328
     34 F           1.9392    1.0325   28.4863 F       1  UNL1       -0.1328
     35 F          -0.4864   -0.5752   29.2155 F       1  UNL1       -0.1328
@<TRIPOS>BOND
     1    18    19    1
     2    19    20   ar
     3    20    21   ar
     4    21    22   ar
     5    22     1    1
     6     1     2    2
     7     1     3   am
     8     3    24    1
     9    24    25    1
    10    25    26   ar
    11    26    27   ar
    12    27    28   ar
    13    28    29   ar
    14    29    31    1
    15    31    32    1
    16    32    33    1
    17    32    34    1
    18    32    35    1
    19    29    30   ar
    20     4     3    1
    21     4     5    1
    22     6     5    1
    23     6     7    1
    24     7     8    1
    25     8    12    1
    26    12    13    1
    27    13    14    1
    28    14    15    1
    29    14    16    1
    30    14    17    1
    31     8     9    1
    32    10     9    1
    33    10    11    1
    34    22    23   ar
    35    23    19   ar
    36    30    25   ar
    37    11     4    1
    38    10     6    1
@<TRIPOS>MOLECULE
*****
 35 38 0 0 0
SMALL
GASTEIGER

@<TRIPOS>ATOM
      1 C          -3.4919    3.8879   21.5077 C.2     1  UNL1        0.2685
      2 O          -4.3719    3.0961   22.4288 O.2     1  UNL1       -0.2682
      3 N          -2.0898    4.2281   21.9181 N.am    1  UNL1       -0.2723
      4 C          -1.5676    3.7764   23.2497 C.3     1  UNL1        0.0761
      5 C          -0.5761    2.6748   23.4804 C.3     1  UNL1        0.0213
      6 C          -0.3410    2.5646   24.9578 C.3     1  UNL1        0.0190
      7 C           0.4171    1.8157   26.0134 C.3     1  UNL1        0.0722
      8 N           0.0394    2.3863   27.3483 N.3     1  UNL1       -0.2724
      9 C          -0.9523    3.4880   27.1175 C.3     1  UNL1        0.0722
     10 C          -1.1873    3.5981   25.6402 C.3     1  UNL1        0.0190
     11 C          -1.9454    4.3470   24.5845 C.3     1  UNL1        0.0213
     12 C           0.5615    1.9347   28.6799 C.3     1  UNL1        0.0809
     13 C          -0.2728    1.0406   29.5485 C.3     1  UNL1        0.1206
     14 C          -0.9483   -0.1614   28.9579 C.3     1  UNL1        0.3991
     15 F          -1.6238   -1.3634   28.3672 F       1  UNL1       -0.1700
     16 F          -2.2852    0.4046   29.3349 F       1  UNL1       -0.1700
     17 F           0.3886   -0.7274   28.5808 F       1  UNL1       -0.1700
     18 C          -4.3375    4.2603   16.3089 C.3     1  UNL1        0.1321
     19 N          -4.4027    4.5109   17.7864 N.ar    1  UNL1       -0.3057
     20 C          -5.2322    5.5589   18.4671 C.ar    1  UNL1        0.1787
     21 N          -4.9920    5.4531   19.9440 N.ar    1  UNL1       -0.2192
     22 C          -4.0140    4.3397   20.1759 C.ar    1  UNL1        0.1535
     23 C          -3.6498    3.7574   18.8425 C.ar    1  UNL1        0.1012
     24 C          -1.2099    5.0199   20.9968 C.3     1  UNL1        0.1205
     25 C          -0.1409    4.3291   20.2031 C.ar    1  UNL1        0.0007
     26 C           1.0704    5.0913   19.7538 C.ar    1  UNL1       -0.0024
     27 C           2.1395    4.4005   18.9600 C.ar    1  UNL1        0.0028
     28 C           1.9973    2.9476   18.6155 C.ar    1  UNL1        0.0372
     29 C           0.7860    2.1853   19.0647 C.ar    1  UNL1        0.1465
     30 C          -0.2831    2.8761   19.8585 C.ar    1  UNL1        0.0346
     31 O           0.6437    0.7324   18.7203 O.3     1  UNL1       -0.4045
     32 C           1.2711   -0.3110   19.5964 C.3     1  UNL1        0.5753
     33 F           1.8986   -1.3545   20.4725 F       1  UNL1       -0.1328
     34 F           0.0691   -0.2808   20.4932 F       1  UNL1       -0.1328
     35 F           2.4731   -0.3413   18.6996 F       1  UNL1       -0.1328
@<TRIPOS>BOND
     1    18    19    1
     2    19    20   ar
     3    20    21   ar
     4    21    22   ar
     5    22     1    1
     6     1     2    2
     7     1     3   am
     8     3    24    1
     9    24    25    1
    10    25    26   ar
    11    26    27   ar
    12    27    28   ar
    13    28    29   ar
    14    29    31    1
    15    31    32    1
    16    32    33    1
    17    32    34    1
    18    32    35    1
    19    29    30   ar
    20     4     3    1
    21     4     5    1
    22     6     5    1
    23     6     7    1
    24     7     8    1
    25     8    12    1
    26    12    13    1
    27    13    14    1
    28    14    15    1
    29    14    16    1
    30    14    17    1
    31     8     9    1
    32    10     9    1
    33    10    11    1
    34    22    23   ar
    35    23    19   ar
    36    30    25   ar
    37    11     4    1
    38    10     6    1
@<TRIPOS>MOLECULE
*****
 35 38 0 0 0
SMALL
GASTEIGER

@<TRIPOS>ATOM
      1 C         -16.5317   -0.5092   19.7411 C.2     1  UNL1        0.2685
      2 O         -15.1251   -0.0719   19.4581 O.2     1  UNL1       -0.2682
      3 N         -16.8876   -1.9657   19.6969 N.am    1  UNL1       -0.2723
      4 C         -15.8369   -2.9850   19.3696 C.3     1  UNL1        0.0761
      5 C         -15.0748   -3.8148   20.3599 C.3     1  UNL1        0.0213
      6 C         -14.1307   -4.6960   19.5969 C.3     1  UNL1        0.0190
      7 C         -13.0762   -5.7535   19.7373 C.3     1  UNL1        0.0722
      8 N         -12.6030   -6.1219   18.3623 N.3     1  UNL1       -0.2724
      9 C         -13.3652   -5.2920   17.3721 C.3     1  UNL1        0.0722
     10 C         -14.3093   -4.4108   18.1351 C.3     1  UNL1        0.0190
     11 C         -15.3638   -3.3533   17.9946 C.3     1  UNL1        0.0213
     12 C         -11.5523   -7.1411   18.0351 C.3     1  UNL1        0.0809
     13 C         -10.1003   -6.7735   18.1149 C.3     1  UNL1        0.1206
     14 C          -9.6826   -5.3374   18.0003 C.3     1  UNL1        0.3991
     15 F          -9.2650   -3.9013   17.8857 F       1  UNL1       -0.1700
     16 F          -9.4223   -5.2953   19.4769 F       1  UNL1       -0.1700
     17 F          -9.9430   -5.3795   16.5237 F       1  UNL1       -0.1700
     18 C         -20.3282    3.1269   19.2448 C.3     1  UNL1        0.1321
     19 N         -19.3275    2.1812   19.8403 N.ar    1  UNL1       -0.3057
     20 C         -19.0715    1.9753   21.3039 C.ar    1  UNL1        0.1787
     21 N         -17.9929    0.9423   21.4448 N.ar    1  UNL1       -0.2192
     22 C         -17.5825    0.5100   20.0684 C.ar    1  UNL1        0.1535
     23 C         -18.4073    1.2756   19.0768 C.ar    1  UNL1        0.1012
     24 C         -18.2943   -2.4030   19.9799 C.3     1  UNL1        0.1205
     25 C         -18.9291   -3.4746   19.1441 C.ar    1  UNL1        0.0007
     26 C         -19.5212   -3.1324   17.8091 C.ar    1  UNL1       -0.0024
     27 C         -20.1560   -4.2041   16.9733 C.ar    1  UNL1        0.0028
     28 C         -20.1987   -5.6179   17.4724 C.ar    1  UNL1        0.0372
     29 C         -19.6065   -5.9602   18.8074 C.ar    1  UNL1        0.1465
     30 C         -18.9717   -4.8885   19.6432 C.ar    1  UNL1        0.0346
     31 O         -19.6492   -7.3740   19.3067 O.3     1  UNL1       -0.4045
     32 C         -18.4511   -7.9649   19.9890 C.3     1  UNL1        0.5753
     33 F         -17.2530   -8.5558   20.6712 F       1  UNL1       -0.1328
     34 F         -19.2532   -8.1416   21.2442 F       1  UNL1       -0.1328
     35 F         -17.6491   -7.7882   18.7338 F       1  UNL1       -0.1328
@<TRIPOS>BOND
     1    18    19    1
     2    19    20   ar
     3    20    21   ar
     4    21    22   ar
     5    22     1    1
     6     1     2    2
     7     1     3   am
     8     3    24    1
     9    24    25    1
    10    25    26   ar
    11    26    27   ar
    12    27    28   ar
    13    28    29   ar
    14    29    31    1
    15    31    32    1
    16    32    33    1
    17    32    34    1
    18    32    35    1
    19    29    30   ar
    20     4     3    1
    21     4     5    1
    22     6     5    1
    23     6     7    1
    24     7     8    1
    25     8    12    1
    26    12    13    1
    27    13    14    1
    28    14    15    1
    29    14    16    1
    30    14    17    1
    31     8     9    1
    32    10     9    1
    33    10    11    1
    34    22    23   ar
    35    23    19   ar
    36    30    25   ar
    37    11     4    1
    38    10     6    1
