@<TRIPOS>MOLECULE
*****
 37 41 0 0 0
SMALL
GASTEIGER

@<TRIPOS>ATOM
      1 N          -9.2992  -18.0177   21.2000 N.3     1  UNL1       -0.2641
      2 C          -9.7784  -18.7569   22.4140 C.3     1  UNL1        0.0981
      3 C          -8.9106  -19.8053   23.0447 C.3     1  UNL1        0.0224
      4 C          -9.3897  -20.5446   24.2588 C.3     1  UNL1        0.0065
      5 C         -10.7366  -20.2354   24.8422 C.3     1  UNL1        0.0277
      6 C         -11.6043  -19.1870   24.2115 C.ar    1  UNL1       -0.0073
      7 C         -12.9512  -18.8778   24.7949 C.ar    1  UNL1       -0.0015
      8 C         -13.8189  -17.8294   24.1642 C.ar    1  UNL1        0.0203
      9 C         -13.3398  -17.0901   22.9501 C.ar    1  UNL1        0.0985
     10 N         -11.9930  -17.3993   22.3667 N.ar    1  UNL1       -0.2471
     11 C         -11.1252  -18.4478   22.9974 C.ar    1  UNL1        0.0695
     12 C          -9.4864  -18.6139   19.8364 C.3     1  UNL1        0.0989
     13 C          -7.2531  -19.9251   20.0444 C.2     1  UNL1       -0.0122
     14 C          -8.5698  -19.7022   19.3614 C.2     1  UNL1       -0.0120
     15 C          -6.3366  -21.0134   19.5694 C.3     1  UNL1        0.0950
     16 N          -4.9934  -21.1962   20.2116 N.3     1  UNL1       -0.2948
     17 H          -5.1493  -21.7092   21.0794 H       1  UNL1        0.1235
     18 C          -1.4956  -16.6759   20.6286 C.3     1  UNL1        0.0000
     19 C          -2.4916  -17.6048   21.2572 C.3     1  UNL1        0.0001
     20 C          -2.2100  -16.6997   22.4196 C.3     1  UNL1        0.0000
     21 C          -3.3898  -18.2194   22.2894 C.3     1  UNL1        0.0014
     22 C          -4.2238  -19.4165   21.9409 C.3     1  UNL1        0.0157
     23 C          -4.1595  -19.9991   20.5601 C.3     1  UNL1        0.0542
     24 C          -3.2612  -19.3845   19.5279 C.3     1  UNL1        0.0157
     25 C          -2.4273  -18.1874   19.8764 C.3     1  UNL1        0.0014
     26 C          -8.6330  -16.6821   21.3495 C.3     1  UNL1        0.0888
     27 C          -7.9397  -16.3292   22.6320 C.3     1  UNL1        0.0748
     28 C          -8.7442  -16.0387   23.8642 C.3     1  UNL1        0.0432
     29 C          -8.0509  -15.6857   25.1467 C.ar    1  UNL1       -0.0234
     30 C          -8.8555  -15.3952   26.3788 C.ar    1  UNL1       -0.0045
     31 C          -8.1622  -15.0423   27.6613 C.ar    1  UNL1       -0.0003
     32 C          -6.6643  -14.9799   27.7116 C.ar    1  UNL1       -0.0003
     33 C          -5.8598  -15.2705   26.4795 C.ar    1  UNL1       -0.0032
     34 C          -6.5531  -15.6234   25.1970 C.ar    1  UNL1       -0.0103
     35 C          -5.7485  -15.9140   23.9648 C.3     1  UNL1        0.0953
     36 N          -6.4418  -16.2669   22.6823 N.3     1  UNL1       -0.2934
     37 H          -6.0994  -17.1871   22.4061 H       1  UNL1        0.1236
@<TRIPOS>BOND
     1    18    19    1
     2    19    20    1
     3    19    21    1
     4    21    22    1
     5    22    23    1
     6    23    16    1
     7    16    15    1
     8    15    13    1
     9    13    14    2
    10    14    12    1
    11    12     1    1
    12     1    26    1
    13    27    26    1
    14    27    28    1
    15    28    29    1
    16    29    30   ar
    17    30    31   ar
    18    31    32   ar
    19    32    33   ar
    20    33    34   ar
    21    34    35    1
    22    35    36    1
    23     2     1    1
    24     2     3    1
    25     3     4    1
    26     4     5    1
    27     5     6    1
    28     6     7   ar
    29     7     8   ar
    30     8     9   ar
    31     9    10   ar
    32    10    11   ar
    33    23    24    1
    34    24    25    1
    35    25    19    1
    36    36    27    1
    37    11     2    1
    38    34    29   ar
    39    11     6   ar
    40    16    17    1
    41    36    37    1
@<TRIPOS>MOLECULE
*****
 37 41 0 0 0
SMALL
GASTEIGER

@<TRIPOS>ATOM
      1 N         -10.9315  -17.1034   21.0906 N.3     1  UNL1       -0.2641
      2 C         -11.5699  -17.6916   22.3139 C.3     1  UNL1        0.0981
      3 C         -12.9180  -17.2099   22.7616 C.3     1  UNL1        0.0224
      4 C         -13.5564  -17.7982   23.9849 C.3     1  UNL1        0.0065
      5 C         -12.8467  -18.8681   24.7605 C.3     1  UNL1        0.0277
      6 C         -11.4986  -19.3498   24.3127 C.ar    1  UNL1       -0.0073
      7 C         -10.7888  -20.4198   25.0883 C.ar    1  UNL1       -0.0015
      8 C          -9.4407  -20.9015   24.6406 C.ar    1  UNL1        0.0203
      9 C          -8.8023  -20.3132   23.4173 C.ar    1  UNL1        0.0985
     10 N          -9.5120  -19.2433   22.6418 N.ar    1  UNL1       -0.2471
     11 C         -10.8602  -18.7615   23.0895 C.ar    1  UNL1        0.0695
     12 C         -11.1010  -17.7744   19.7599 C.3     1  UNL1        0.0989
     13 C          -8.7339  -18.8429   19.6858 C.2     1  UNL1       -0.0122
     14 C         -10.1991  -18.9083   19.3714 C.2     1  UNL1       -0.0120
     15 C          -7.8322  -19.9768   19.2973 C.3     1  UNL1        0.0950
     16 N          -6.9890  -20.6545   20.3365 N.3     1  UNL1       -0.2948
     17 H          -7.5866  -20.8027   21.1497 H       1  UNL1        0.1235
     18 C          -1.7738  -18.5801   21.4936 C.3     1  UNL1        0.0000
     19 C          -3.2330  -18.6752   21.8278 C.3     1  UNL1        0.0001
     20 C          -2.7740  -17.7594   22.9235 C.3     1  UNL1        0.0000
     21 C          -4.5327  -18.4522   22.5425 C.3     1  UNL1        0.0014
     22 C          -5.7848  -19.1120   22.0454 C.3     1  UNL1        0.0157
     23 C          -5.7371  -19.9948   20.8336 C.3     1  UNL1        0.0542
     24 C          -4.4372  -20.2177   20.1189 C.3     1  UNL1        0.0157
     25 C          -3.1852  -19.5580   20.6160 C.3     1  UNL1        0.0014
     26 C         -10.1236  -15.8442   21.1981 C.3     1  UNL1        0.0888
     27 C          -9.0780  -15.7127   22.2657 C.3     1  UNL1        0.0748
     28 C          -9.4668  -15.8044   23.7115 C.3     1  UNL1        0.0432
     29 C          -8.4212  -15.6729   24.7791 C.ar    1  UNL1       -0.0234
     30 C          -8.8099  -15.7646   26.2249 C.ar    1  UNL1       -0.0045
     31 C          -7.7644  -15.6331   27.2924 C.ar    1  UNL1       -0.0003
     32 C          -6.3302  -15.4099   26.9140 C.ar    1  UNL1       -0.0003
     33 C          -5.9415  -15.3182   25.4682 C.ar    1  UNL1       -0.0032
     34 C          -6.9870  -15.4497   24.4007 C.ar    1  UNL1       -0.0103
     35 C          -6.5983  -15.3580   22.9548 C.3     1  UNL1        0.0953
     36 N          -7.6438  -15.4895   21.8874 N.3     1  UNL1       -0.2934
     37 H          -7.3681  -16.2769   21.3006 H       1  UNL1        0.1236
@<TRIPOS>BOND
     1    18    19    1
     2    19    20    1
     3    19    21    1
     4    21    22    1
     5    22    23    1
     6    23    16    1
     7    16    15    1
     8    15    13    1
     9    13    14    2
    10    14    12    1
    11    12     1    1
    12     1    26    1
    13    27    26    1
    14    27    28    1
    15    28    29    1
    16    29    30   ar
    17    30    31   ar
    18    31    32   ar
    19    32    33   ar
    20    33    34   ar
    21    34    35    1
    22    35    36    1
    23     2     1    1
    24     2     3    1
    25     3     4    1
    26     4     5    1
    27     5     6    1
    28     6     7   ar
    29     7     8   ar
    30     8     9   ar
    31     9    10   ar
    32    10    11   ar
    33    23    24    1
    34    24    25    1
    35    25    19    1
    36    36    27    1
    37    11     2    1
    38    34    29   ar
    39    11     6   ar
    40    16    17    1
    41    36    37    1
@<TRIPOS>MOLECULE
*****
 37 41 0 0 0
SMALL
GASTEIGER

@<TRIPOS>ATOM
      1 N          -8.8719  -18.0463   21.3878 N.3     1  UNL1       -0.2641
      2 C         -10.2907  -17.5609   21.3484 C.3     1  UNL1        0.0981
      3 C         -10.7713  -16.7425   20.1868 C.3     1  UNL1        0.0224
      4 C         -12.1901  -16.2571   20.1473 C.3     1  UNL1        0.0065
      5 C         -13.1282  -16.5901   21.2694 C.3     1  UNL1        0.0277
      6 C         -12.6475  -17.4084   22.4309 C.ar    1  UNL1       -0.0073
      7 C         -13.5856  -17.7414   23.5531 C.ar    1  UNL1       -0.0015
      8 C         -13.1050  -18.5598   24.7146 C.ar    1  UNL1        0.0203
      9 C         -11.6862  -19.0452   24.7541 C.ar    1  UNL1        0.0985
     10 N         -10.7482  -18.7122   23.6321 N.ar    1  UNL1       -0.2471
     11 C         -11.2288  -17.8938   22.4704 C.ar    1  UNL1        0.0695
     12 C          -8.5802  -19.5163   21.3266 C.3     1  UNL1        0.0989
     13 C          -6.6347  -20.8906   20.2890 C.2     1  UNL1       -0.0122
     14 C          -7.1619  -20.0022   21.3766 C.2     1  UNL1       -0.0120
     15 C          -5.2165  -21.3765   20.3391 C.3     1  UNL1        0.0950
     16 N          -4.1770  -20.7484   19.4588 N.3     1  UNL1       -0.2948
     17 H          -3.4875  -21.4719   19.2550 H       1  UNL1        0.1235
     18 C          -0.8152  -16.2103   20.4310 C.3     1  UNL1        0.0000
     19 C          -1.8938  -17.1452   20.8920 C.3     1  UNL1        0.0001
     20 C          -1.8065  -16.2400   22.0848 C.3     1  UNL1        0.0000
     21 C          -2.9421  -17.7656   21.7672 C.3     1  UNL1        0.0014
     22 C          -3.7032  -18.9668   21.2895 C.3     1  UNL1        0.0157
     23 C          -3.4160  -19.5473   19.9365 C.3     1  UNL1        0.0542
     24 C          -2.3676  -18.9268   19.0613 C.3     1  UNL1        0.0157
     25 C          -1.6066  -17.7257   19.5390 C.3     1  UNL1        0.0014
     26 C          -7.7449  -17.0616   21.4886 C.3     1  UNL1        0.0888
     27 C          -7.2864  -16.5815   22.8338 C.3     1  UNL1        0.0748
     28 C          -8.2918  -16.2823   23.9060 C.3     1  UNL1        0.0432
     29 C          -7.8333  -15.8022   25.2512 C.ar    1  UNL1       -0.0234
     30 C          -8.8386  -15.5031   26.3234 C.ar    1  UNL1       -0.0045
     31 C          -8.3801  -15.0230   27.6685 C.ar    1  UNL1       -0.0003
     32 C          -6.9163  -14.8420   27.9413 C.ar    1  UNL1       -0.0003
     33 C          -5.9109  -15.1411   26.8690 C.ar    1  UNL1       -0.0032
     34 C          -6.3694  -15.6212   25.5240 C.ar    1  UNL1       -0.0103
     35 C          -5.3641  -15.9204   24.4516 C.3     1  UNL1        0.0953
     36 N          -5.8226  -16.4005   23.1066 N.3     1  UNL1       -0.2934
     37 H          -5.3798  -17.3060   22.9505 H       1  UNL1        0.1236
@<TRIPOS>BOND
     1    18    19    1
     2    19    20    1
     3    19    21    1
     4    21    22    1
     5    22    23    1
     6    23    16    1
     7    16    15    1
     8    15    13    1
     9    13    14    2
    10    14    12    1
    11    12     1    1
    12     1    26    1
    13    27    26    1
    14    27    28    1
    15    28    29    1
    16    29    30   ar
    17    30    31   ar
    18    31    32   ar
    19    32    33   ar
    20    33    34   ar
    21    34    35    1
    22    35    36    1
    23     2     1    1
    24     2     3    1
    25     3     4    1
    26     4     5    1
    27     5     6    1
    28     6     7   ar
    29     7     8   ar
    30     8     9   ar
    31     9    10   ar
    32    10    11   ar
    33    23    24    1
    34    24    25    1
    35    25    19    1
    36    36    27    1
    37    11     2    1
    38    34    29   ar
    39    11     6   ar
    40    16    17    1
    41    36    37    1
@<TRIPOS>MOLECULE
*****
 37 41 0 0 0
SMALL
GASTEIGER

@<TRIPOS>ATOM
      1 N          -5.7193  -18.6987   21.4375 N.3     1  UNL1       -0.2641
      2 C          -4.3055  -18.4273   21.8590 C.3     1  UNL1        0.0981
      3 C          -3.9499  -18.3971   23.3159 C.3     1  UNL1        0.0224
      4 C          -2.5361  -18.1257   23.7374 C.3     1  UNL1        0.0065
      5 C          -1.4780  -17.8844   22.7020 C.3     1  UNL1        0.0277
      6 C          -1.8337  -17.9145   21.2451 C.ar    1  UNL1       -0.0073
      7 C          -0.7755  -17.6732   20.2096 C.ar    1  UNL1       -0.0015
      8 C          -1.1312  -17.7033   18.7527 C.ar    1  UNL1        0.0203
      9 C          -2.5449  -17.9748   18.3312 C.ar    1  UNL1        0.0985
     10 N          -3.6030  -18.2161   19.3666 N.ar    1  UNL1       -0.2471
     11 C          -3.2474  -18.1860   20.8236 C.ar    1  UNL1        0.0695
     12 C          -6.1096  -20.0652   20.9576 C.3     1  UNL1        0.0989
     13 C          -8.1172  -19.7760   19.3341 C.2     1  UNL1       -0.0122
     14 C          -7.5354  -20.3524   20.5908 C.2     1  UNL1       -0.0120
     15 C          -9.5430  -20.0633   18.9673 C.3     1  UNL1        0.0950
     16 N         -10.5934  -19.0095   19.1580 N.3     1  UNL1       -0.2948
     17 H         -10.1784  -18.1241   18.8676 H       1  UNL1        0.1235
     18 C         -13.3429  -17.4073   23.9240 C.3     1  UNL1        0.0000
     19 C         -12.3860  -18.3302   23.2293 C.3     1  UNL1        0.0001
     20 C         -12.3445  -18.9060   24.6137 C.3     1  UNL1        0.0000
     21 C         -11.4147  -19.4530   23.0154 C.3     1  UNL1        0.0014
     22 C         -10.8171  -19.6794   21.6582 C.3     1  UNL1        0.0157
     23 C         -11.1909  -18.7831   20.5151 C.3     1  UNL1        0.0542
     24 C         -12.1623  -17.6602   20.7291 C.3     1  UNL1        0.0157
     25 C         -12.7598  -17.4338   22.0861 C.3     1  UNL1        0.0014
     26 C          -6.7427  -17.6037   21.4960 C.3     1  UNL1        0.0888
     27 C          -7.2435  -17.1152   22.8229 C.3     1  UNL1        0.0748
     28 C          -6.3142  -16.4000   23.7582 C.3     1  UNL1        0.0432
     29 C          -6.8150  -15.9115   25.0851 C.ar    1  UNL1       -0.0234
     30 C          -5.8857  -15.1962   26.0204 C.ar    1  UNL1       -0.0045
     31 C          -6.3865  -14.7077   27.3472 C.ar    1  UNL1       -0.0003
     32 C          -7.8166  -14.9346   27.7388 C.ar    1  UNL1       -0.0003
     33 C          -8.7459  -15.6498   26.8035 C.ar    1  UNL1       -0.0032
     34 C          -8.2451  -16.1383   25.4767 C.ar    1  UNL1       -0.0103
     35 C          -9.1744  -16.8536   24.5414 C.3     1  UNL1        0.0953
     36 N          -8.6736  -17.3421   23.2145 N.3     1  UNL1       -0.2934
     37 H          -9.2488  -16.8957   22.5002 H       1  UNL1        0.1236
@<TRIPOS>BOND
     1    18    19    1
     2    19    20    1
     3    19    21    1
     4    21    22    1
     5    22    23    1
     6    23    16    1
     7    16    15    1
     8    15    13    1
     9    13    14    2
    10    14    12    1
    11    12     1    1
    12     1    26    1
    13    27    26    1
    14    27    28    1
    15    28    29    1
    16    29    30   ar
    17    30    31   ar
    18    31    32   ar
    19    32    33   ar
    20    33    34   ar
    21    34    35    1
    22    35    36    1
    23     2     1    1
    24     2     3    1
    25     3     4    1
    26     4     5    1
    27     5     6    1
    28     6     7   ar
    29     7     8   ar
    30     8     9   ar
    31     9    10   ar
    32    10    11   ar
    33    23    24    1
    34    24    25    1
    35    25    19    1
    36    36    27    1
    37    11     2    1
    38    34    29   ar
    39    11     6   ar
    40    16    17    1
    41    36    37    1
@<TRIPOS>MOLECULE
*****
 37 41 0 0 0
SMALL
GASTEIGER

@<TRIPOS>ATOM
      1 N          -6.6108  -19.9884   20.9962 N.3     1  UNL1       -0.2641
      2 C          -5.1302  -19.7946   20.8531 C.3     1  UNL1        0.0981
      3 C          -4.3527  -20.6412   19.8895 C.3     1  UNL1        0.0224
      4 C          -2.8721  -20.4474   19.7464 C.3     1  UNL1        0.0065
      5 C          -2.1691  -19.4071   20.5671 C.3     1  UNL1        0.0277
      6 C          -2.9467  -18.5605   21.5307 C.ar    1  UNL1       -0.0073
      7 C          -2.2437  -17.5201   22.3514 C.ar    1  UNL1       -0.0015
      8 C          -3.0213  -16.6735   23.3150 C.ar    1  UNL1        0.0203
      9 C          -4.5018  -16.8673   23.4581 C.ar    1  UNL1        0.0985
     10 N          -5.2048  -17.9076   22.6375 N.ar    1  UNL1       -0.2471
     11 C          -4.4272  -18.7543   21.6737 C.ar    1  UNL1        0.0695
     12 C          -7.1542  -20.8036   22.1319 C.3     1  UNL1        0.0989
     13 C          -9.2815  -20.5691   23.6048 C.2     1  UNL1       -0.0122
     14 C          -7.8908  -20.1314   23.2525 C.2     1  UNL1       -0.0120
     15 C         -10.0181  -19.8969   24.7254 C.3     1  UNL1        0.0950
     16 N         -10.2463  -18.4147   24.6902 N.3     1  UNL1       -0.2948
     17 H         -10.3447  -18.1551   23.7087 H       1  UNL1        0.1235
     18 C          -6.1163  -14.6790   26.0424 C.3     1  UNL1        0.0000
     19 C          -7.1975  -15.6256   26.4722 C.3     1  UNL1        0.0001
     20 C          -6.7218  -15.1479   27.8121 C.3     1  UNL1        0.0000
     21 C          -8.1135  -16.4063   27.3674 C.3     1  UNL1        0.0014
     22 C          -9.1298  -17.3361   26.7734 C.3     1  UNL1        0.0157
     23 C          -9.2301  -17.4850   25.2842 C.3     1  UNL1        0.0542
     24 C          -8.3140  -16.7043   24.3890 C.3     1  UNL1        0.0157
     25 C          -7.2978  -15.7746   24.9830 C.3     1  UNL1        0.0014
     26 C          -7.5479  -19.3670   20.0034 C.3     1  UNL1        0.0888
     27 C          -8.9381  -18.9877   20.4199 C.3     1  UNL1        0.0748
     28 C          -9.1830  -17.6805   21.1135 C.3     1  UNL1        0.0432
     29 C         -10.5733  -17.3013   21.5300 C.ar    1  UNL1       -0.0234
     30 C         -10.8181  -15.9940   22.2236 C.ar    1  UNL1       -0.0045
     31 C         -12.2083  -15.6148   22.6400 C.ar    1  UNL1       -0.0003
     32 C         -13.3537  -16.5429   22.3629 C.ar    1  UNL1       -0.0003
     33 C         -13.1088  -17.8502   21.6694 C.ar    1  UNL1       -0.0032
     34 C         -11.7186  -18.2293   21.2529 C.ar    1  UNL1       -0.0103
     35 C         -11.4737  -19.5367   20.5593 C.3     1  UNL1        0.0953
     36 N         -10.0835  -19.9158   20.1428 N.3     1  UNL1       -0.2934
     37 H         -10.1077  -20.0605   19.1334 H       1  UNL1        0.1236
@<TRIPOS>BOND
     1    18    19    1
     2    19    20    1
     3    19    21    1
     4    21    22    1
     5    22    23    1
     6    23    16    1
     7    16    15    1
     8    15    13    1
     9    13    14    2
    10    14    12    1
    11    12     1    1
    12     1    26    1
    13    27    26    1
    14    27    28    1
    15    28    29    1
    16    29    30   ar
    17    30    31   ar
    18    31    32   ar
    19    32    33   ar
    20    33    34   ar
    21    34    35    1
    22    35    36    1
    23     2     1    1
    24     2     3    1
    25     3     4    1
    26     4     5    1
    27     5     6    1
    28     6     7   ar
    29     7     8   ar
    30     8     9   ar
    31     9    10   ar
    32    10    11   ar
    33    23    24    1
    34    24    25    1
    35    25    19    1
    36    36    27    1
    37    11     2    1
    38    34    29   ar
    39    11     6   ar
    40    16    17    1
    41    36    37    1
@<TRIPOS>MOLECULE
*****
 37 41 0 0 0
SMALL
GASTEIGER

@<TRIPOS>ATOM
      1 N           7.0981   -4.0919   22.9461 N.3     1  UNL1       -0.2641
      2 C           7.7457   -5.2782   23.5969 C.3     1  UNL1        0.0981
      3 C           8.5469   -6.2415   22.7722 C.3     1  UNL1        0.0224
      4 C           9.1945   -7.4278   23.4230 C.3     1  UNL1        0.0065
      5 C           9.0409   -7.6506   24.8983 C.3     1  UNL1        0.0277
      6 C           8.2397   -6.6873   25.7229 C.ar    1  UNL1       -0.0073
      7 C           8.0861   -6.9101   27.1984 C.ar    1  UNL1       -0.0015
      8 C           7.2850   -5.9468   28.0230 C.ar    1  UNL1        0.0203
      9 C           6.6374   -4.7605   27.3723 C.ar    1  UNL1        0.0985
     10 N           6.7909   -4.5377   25.8969 N.ar    1  UNL1       -0.2471
     11 C           7.5921   -5.5010   25.0722 C.ar    1  UNL1        0.0695
     12 C           7.9301   -2.9112   22.5416 C.3     1  UNL1        0.0989
     13 C           7.3669   -2.3269   20.0735 C.2     1  UNL1       -0.0122
     14 C           8.3609   -2.7512   21.1137 C.2     1  UNL1       -0.0120
     15 C           7.7977   -2.1669   18.6457 C.3     1  UNL1        0.0950
     16 N           6.7750   -1.9166   17.5772 N.3     1  UNL1       -0.2948
     17 H           7.2831   -1.5973   16.7524 H       1  UNL1        0.1235
     18 C           3.2628    2.4970   18.5902 C.3     1  UNL1        0.0000
     19 C           3.4586    1.0413   18.2858 C.3     1  UNL1        0.0001
     20 C           1.9607    1.0961   18.3432 C.3     1  UNL1        0.0000
     21 C           3.1342   -0.3953   18.0013 C.3     1  UNL1        0.0014
     22 C           4.2397   -1.3813   17.7651 C.3     1  UNL1        0.0157
     23 C           5.6696   -0.9306   17.8134 C.3     1  UNL1        0.0542
     24 C           5.9939    0.5060   18.0979 C.3     1  UNL1        0.0157
     25 C           4.8884    1.4919   18.3340 C.3     1  UNL1        0.0014
     26 C           5.6185   -4.0864   22.6999 C.3     1  UNL1        0.0888
     27 C           4.7869   -2.9234   23.1539 C.3     1  UNL1        0.0748
     28 C           3.9508   -2.1675   22.1642 C.3     1  UNL1        0.0432
     29 C           3.1193   -1.0045   22.6182 C.ar    1  UNL1       -0.0234
     30 C           2.2831   -0.2487   21.6285 C.ar    1  UNL1       -0.0045
     31 C           1.4517    0.9143   22.0826 C.ar    1  UNL1       -0.0003
     32 C           1.4563    1.3213   23.5263 C.ar    1  UNL1       -0.0003
     33 C           2.2924    0.5655   24.5159 C.ar    1  UNL1       -0.0032
     34 C           3.1239   -0.5975   24.0619 C.ar    1  UNL1       -0.0103
     35 C           3.9601   -1.3534   25.0516 C.3     1  UNL1        0.0953
     36 N           4.7916   -2.5163   24.5976 N.3     1  UNL1       -0.2934
     37 H           4.4812   -3.3271   25.1331 H       1  UNL1        0.1236
@<TRIPOS>BOND
     1    18    19    1
     2    19    20    1
     3    19    21    1
     4    21    22    1
     5    22    23    1
     6    23    16    1
     7    16    15    1
     8    15    13    1
     9    13    14    2
    10    14    12    1
    11    12     1    1
    12     1    26    1
    13    27    26    1
    14    27    28    1
    15    28    29    1
    16    29    30   ar
    17    30    31   ar
    18    31    32   ar
    19    32    33   ar
    20    33    34   ar
    21    34    35    1
    22    35    36    1
    23     2     1    1
    24     2     3    1
    25     3     4    1
    26     4     5    1
    27     5     6    1
    28     6     7   ar
    29     7     8   ar
    30     8     9   ar
    31     9    10   ar
    32    10    11   ar
    33    23    24    1
    34    24    25    1
    35    25    19    1
    36    36    27    1
    37    11     2    1
    38    34    29   ar
    39    11     6   ar
    40    16    17    1
    41    36    37    1
@<TRIPOS>MOLECULE
*****
 37 41 0 0 0
SMALL
GASTEIGER

@<TRIPOS>ATOM
      1 N          -8.4257  -18.6663   21.7654 N.3     1  UNL1       -0.2641
      2 C          -9.7989  -18.5042   22.3466 C.3     1  UNL1        0.0981
      3 C         -10.1567  -19.1946   23.6293 C.3     1  UNL1        0.0224
      4 C         -11.5300  -19.0326   24.2106 C.3     1  UNL1        0.0065
      5 C         -12.5455  -18.1801   23.5091 C.3     1  UNL1        0.0277
      6 C         -12.1877  -17.4897   22.2265 C.ar    1  UNL1       -0.0073
      7 C         -13.2032  -16.6372   21.5250 C.ar    1  UNL1       -0.0015
      8 C         -12.8454  -15.9468   20.2423 C.ar    1  UNL1        0.0203
      9 C         -11.4722  -16.1088   19.6611 C.ar    1  UNL1        0.0985
     10 N         -10.4567  -16.9613   20.3625 N.ar    1  UNL1       -0.2471
     11 C         -10.8144  -17.6518   21.6452 C.ar    1  UNL1        0.0695
     12 C          -8.0045  -19.9873   21.1932 C.3     1  UNL1        0.0989
     13 C          -5.8521  -21.2535   20.4762 C.2     1  UNL1       -0.0122
     14 C          -6.7733  -20.0774   20.3411 C.2     1  UNL1       -0.0120
     15 C          -4.6210  -21.3435   19.6241 C.3     1  UNL1        0.0950
     16 N          -3.2668  -21.1520   20.2403 N.3     1  UNL1       -0.2948
     17 H          -3.2732  -21.6551   21.1276 H       1  UNL1        0.1235
     18 C          -2.0171  -15.8579   22.0435 C.3     1  UNL1        0.0000
     19 C          -1.7570  -17.0031   21.1103 C.3     1  UNL1        0.0001
     20 C          -0.7260  -16.0295   20.6214 C.3     1  UNL1        0.0000
     21 C          -1.1390  -17.8101   20.0073 C.3     1  UNL1        0.0014
     22 C          -1.6422  -19.1931   19.7173 C.3     1  UNL1        0.0157
     23 C          -2.7635  -19.7691   20.5303 C.3     1  UNL1        0.0542
     24 C          -3.3816  -18.9620   21.6333 C.3     1  UNL1        0.0157
     25 C          -2.8784  -17.5790   21.9233 C.3     1  UNL1        0.0014
     26 C          -7.4735  -17.5073   21.7562 C.3     1  UNL1        0.0888
     27 C          -7.0791  -16.8505   23.0459 C.3     1  UNL1        0.0748
     28 C          -8.1197  -16.5500   24.0835 C.3     1  UNL1        0.0432
     29 C          -7.7252  -15.8932   25.3732 C.ar    1  UNL1       -0.0234
     30 C          -8.7659  -15.5927   26.4108 C.ar    1  UNL1       -0.0045
     31 C          -8.3714  -14.9360   27.7003 C.ar    1  UNL1       -0.0003
     32 C          -6.9362  -14.5798   27.9523 C.ar    1  UNL1       -0.0003
     33 C          -5.8956  -14.8803   26.9147 C.ar    1  UNL1       -0.0032
     34 C          -6.2901  -15.5370   25.6251 C.ar    1  UNL1       -0.0103
     35 C          -5.2494  -15.8376   24.5874 C.3     1  UNL1        0.0953
     36 N          -5.6439  -16.4943   23.2978 N.3     1  UNL1       -0.2934
     37 H          -5.1097  -17.3609   23.2332 H       1  UNL1        0.1236
@<TRIPOS>BOND
     1    18    19    1
     2    19    20    1
     3    19    21    1
     4    21    22    1
     5    22    23    1
     6    23    16    1
     7    16    15    1
     8    15    13    1
     9    13    14    2
    10    14    12    1
    11    12     1    1
    12     1    26    1
    13    27    26    1
    14    27    28    1
    15    28    29    1
    16    29    30   ar
    17    30    31   ar
    18    31    32   ar
    19    32    33   ar
    20    33    34   ar
    21    34    35    1
    22    35    36    1
    23     2     1    1
    24     2     3    1
    25     3     4    1
    26     4     5    1
    27     5     6    1
    28     6     7   ar
    29     7     8   ar
    30     8     9   ar
    31     9    10   ar
    32    10    11   ar
    33    23    24    1
    34    24    25    1
    35    25    19    1
    36    36    27    1
    37    11     2    1
    38    34    29   ar
    39    11     6   ar
    40    16    17    1
    41    36    37    1
@<TRIPOS>MOLECULE
*****
 37 41 0 0 0
SMALL
GASTEIGER

@<TRIPOS>ATOM
      1 N           7.6742   -3.4906   20.5393 N.3     1  UNL1       -0.2641
      2 C           6.2114   -3.3808   20.2262 C.3     1  UNL1        0.0981
      3 C           5.5863   -4.3090   19.2274 C.3     1  UNL1        0.0224
      4 C           4.1235   -4.1992   18.9143 C.3     1  UNL1        0.0065
      5 C           3.2857   -3.1610   19.6000 C.3     1  UNL1        0.0277
      6 C           3.9107   -2.2327   20.5988 C.ar    1  UNL1       -0.0073
      7 C           3.0728   -1.1945   21.2846 C.ar    1  UNL1       -0.0015
      8 C           3.6978   -0.2662   22.2834 C.ar    1  UNL1        0.0203
      9 C           5.1607   -0.3761   22.5964 C.ar    1  UNL1        0.0985
     10 N           5.9985   -1.4142   21.9107 N.ar    1  UNL1       -0.2471
     11 C           5.3735   -2.3426   20.9119 C.ar    1  UNL1        0.0695
     12 C           8.5958   -2.3491   20.2270 C.3     1  UNL1        0.0989
     13 C           8.2941   -0.0582   19.0393 C.2     1  UNL1       -0.0122
     14 C           8.4041   -1.5525   18.9705 C.2     1  UNL1       -0.0120
     15 C           8.1024    0.7383   17.7828 C.3     1  UNL1        0.0950
     16 N           6.9390    0.4487   16.8813 N.3     1  UNL1       -0.2948
     17 H           7.0588    1.0283   16.0506 H       1  UNL1        0.1235
     18 C           1.4062    0.4344   18.3744 C.3     1  UNL1        0.0000
     19 C           2.7371    1.1257   18.3425 C.3     1  UNL1        0.0001
     20 C           1.9220    2.1626   19.0569 C.3     1  UNL1        0.0000
     21 C           3.7848    2.1771   18.5587 C.3     1  UNL1        0.0014
     22 C           5.1855    1.9514   18.0716 C.3     1  UNL1        0.0157
     23 C           5.5384    0.6744   17.3684 C.3     1  UNL1        0.0542
     24 C           4.4906   -0.3771   17.1522 C.3     1  UNL1        0.0157
     25 C           3.0900   -0.1514   17.6393 C.3     1  UNL1        0.0014
     26 C           8.2154   -4.7420   21.1646 C.3     1  UNL1        0.0888
     27 C           7.9662   -5.0231   22.6169 C.3     1  UNL1        0.0748
     28 C           8.4617   -6.2994   23.2296 C.3     1  UNL1        0.0432
     29 C           8.2125   -6.5805   24.6818 C.ar    1  UNL1       -0.0234
     30 C           8.7081   -7.8568   25.2945 C.ar    1  UNL1       -0.0045
     31 C           8.4588   -8.1378   26.7467 C.ar    1  UNL1       -0.0003
     32 C           7.7140   -7.1426   27.5861 C.ar    1  UNL1       -0.0003
     33 C           7.2184   -5.8663   26.9734 C.ar    1  UNL1       -0.0032
     34 C           7.4677   -5.5853   25.5213 C.ar    1  UNL1       -0.0103
     35 C           6.9721   -4.3089   24.9085 C.3     1  UNL1        0.0953
     36 N           7.2214   -4.0278   23.4564 N.3     1  UNL1       -0.2934
     37 H           7.7454   -3.1539   23.4113 H       1  UNL1        0.1236
@<TRIPOS>BOND
     1    18    19    1
     2    19    20    1
     3    19    21    1
     4    21    22    1
     5    22    23    1
     6    23    16    1
     7    16    15    1
     8    15    13    1
     9    13    14    2
    10    14    12    1
    11    12     1    1
    12     1    26    1
    13    27    26    1
    14    27    28    1
    15    28    29    1
    16    29    30   ar
    17    30    31   ar
    18    31    32   ar
    19    32    33   ar
    20    33    34   ar
    21    34    35    1
    22    35    36    1
    23     2     1    1
    24     2     3    1
    25     3     4    1
    26     4     5    1
    27     5     6    1
    28     6     7   ar
    29     7     8   ar
    30     8     9   ar
    31     9    10   ar
    32    10    11   ar
    33    23    24    1
    34    24    25    1
    35    25    19    1
    36    36    27    1
    37    11     2    1
    38    34    29   ar
    39    11     6   ar
    40    16    17    1
    41    36    37    1
@<TRIPOS>MOLECULE
*****
 37 41 0 0 0
SMALL
GASTEIGER

@<TRIPOS>ATOM
      1 N           0.0099    2.4087   20.4548 N.3     1  UNL1       -0.2641
      2 C          -0.7928    3.1510   19.4278 C.3     1  UNL1        0.0981
      3 C          -0.1304    3.6580   18.1812 C.3     1  UNL1        0.0224
      4 C          -0.9331    4.4003   17.1542 C.3     1  UNL1        0.0065
      5 C          -2.3981    4.6356   17.3739 C.3     1  UNL1        0.0277
      6 C          -3.0605    4.1285   18.6205 C.ar    1  UNL1       -0.0073
      7 C          -4.5256    4.3637   18.8402 C.ar    1  UNL1       -0.0015
      8 C          -5.1879    3.8567   20.0868 C.ar    1  UNL1        0.0203
      9 C          -4.3853    3.1144   21.1138 C.ar    1  UNL1        0.0985
     10 N          -2.9202    2.8791   20.8942 N.ar    1  UNL1       -0.2471
     11 C          -2.2578    3.3862   19.6475 C.ar    1  UNL1        0.0695
     12 C           0.6684    3.1564   21.5760 C.3     1  UNL1        0.0989
     13 C           1.2438    1.5707   23.5520 C.2     1  UNL1       -0.0122
     14 C           1.6875    2.4714   22.4377 C.2     1  UNL1       -0.0120
     15 C           2.2629    0.8858   24.4136 C.3     1  UNL1        0.0950
     16 N           2.6208   -0.5480   24.1563 N.3     1  UNL1       -0.2948
     17 H           2.7334   -0.9916   25.0679 H       1  UNL1        0.1235
     18 C           7.2330   -0.9221   20.7756 C.3     1  UNL1        0.0000
     19 C           6.2937   -1.5548   21.7592 C.3     1  UNL1        0.0001
     20 C           7.2300   -2.7016   21.5185 C.3     1  UNL1        0.0000
     21 C           5.6796   -2.5858   22.6591 C.3     1  UNL1        0.0014
     22 C           4.4552   -2.2502   23.4582 C.3     1  UNL1        0.0157
     23 C           3.8451   -0.8836   23.3573 C.3     1  UNL1        0.0542
     24 C           4.4593    0.1474   22.4573 C.3     1  UNL1        0.0157
     25 C           5.6835   -0.1883   21.6582 C.3     1  UNL1        0.0014
     26 C           0.1541    0.9186   20.3606 C.3     1  UNL1        0.0888
     27 C           1.3769    0.3218   19.7292 C.3     1  UNL1        0.0748
     28 C           1.7953   -1.0756   20.0786 C.3     1  UNL1        0.0432
     29 C           3.0182   -1.6724   19.4472 C.ar    1  UNL1       -0.0234
     30 C           3.4366   -3.0698   19.7966 C.ar    1  UNL1       -0.0045
     31 C           4.6594   -3.6665   19.1652 C.ar    1  UNL1       -0.0003
     32 C           5.4637   -2.8659   18.1844 C.ar    1  UNL1       -0.0003
     33 C           5.0453   -1.4684   17.8350 C.ar    1  UNL1       -0.0032
     34 C           3.8225   -0.8717   18.4664 C.ar    1  UNL1       -0.0103
     35 C           3.4040    0.5258   18.1170 C.3     1  UNL1        0.0953
     36 N           2.1813    1.1225   18.7484 N.3     1  UNL1       -0.2934
     37 H           1.5508    1.3756   17.9876 H       1  UNL1        0.1236
@<TRIPOS>BOND
     1    18    19    1
     2    19    20    1
     3    19    21    1
     4    21    22    1
     5    22    23    1
     6    23    16    1
     7    16    15    1
     8    15    13    1
     9    13    14    2
    10    14    12    1
    11    12     1    1
    12     1    26    1
    13    27    26    1
    14    27    28    1
    15    28    29    1
    16    29    30   ar
    17    30    31   ar
    18    31    32   ar
    19    32    33   ar
    20    33    34   ar
    21    34    35    1
    22    35    36    1
    23     2     1    1
    24     2     3    1
    25     3     4    1
    26     4     5    1
    27     5     6    1
    28     6     7   ar
    29     7     8   ar
    30     8     9   ar
    31     9    10   ar
    32    10    11   ar
    33    23    24    1
    34    24    25    1
    35    25    19    1
    36    36    27    1
    37    11     2    1
    38    34    29   ar
    39    11     6   ar
    40    16    17    1
    41    36    37    1
