@<TRIPOS>MOLECULE
*****
 34 36 0 0 0
SMALL
GASTEIGER

@<TRIPOS>ATOM
      1 N           4.0041   -2.4350   20.5435 N.am    1  UNL1       -0.2560
      2 C           4.9187   -3.1643   21.4826 C.3     1  UNL1        0.1394
      3 C           4.6985   -2.6177   22.8620 C.ar    1  UNL1        0.0662
      4 C           5.1276   -2.7307   24.2949 C.ar    1  UNL1        0.0247
      5 C           4.3422   -1.7334   25.0939 C.ar    1  UNL1        0.0614
      6 C           3.4277   -1.0041   24.1549 C.ar    1  UNL1        0.0922
      7 N           3.6479   -1.5506   22.7755 N.ar    1  UNL1       -0.2624
      8 C           3.2187   -1.4377   21.3427 C.2     1  UNL1        0.3234
      9 O           2.1855   -0.4933   20.8036 O.2     1  UNL1       -0.2490
     10 C           4.4521   -1.5054   26.5724 C.1     1  UNL1       -0.0497
     11 C           4.5619   -1.2774   28.0509 C.1     1  UNL1       -0.0095
     12 C           4.6717   -1.0493   29.5295 C.1     1  UNL1       -0.0138
     13 C           4.7816   -0.8213   31.0079 C.1     1  UNL1       -0.0761
     14 C           4.8915   -0.5933   32.4863 C.3     1  UNL1        0.0969
     15 C           4.3774   -1.2943   33.7089 C.3     1  UNL1        0.0867
     16 N           5.0469   -0.2708   34.5772 N.3     1  UNL1       -0.2685
     17 C           5.5609    0.4302   33.3548 C.3     1  UNL1        0.0867
     18 C           5.1568   -0.0427   36.0558 C.3     1  UNL1        0.1108
     19 C           4.1926    0.8754   36.7466 C.3     1  UNL1        0.2105
     20 F           3.8148    0.6277   38.1770 F       1  UNL1       -0.2328
     21 C           3.8943   -2.6630   19.0651 C.3     1  UNL1        0.0977
     22 C           5.0618   -2.3653   18.1715 C.3     1  UNL1        0.0524
     23 C           6.1416    0.4279   17.9947 C.3     1  UNL1        0.0331
     24 C           5.6017   -0.9688   18.0831 C.3     1  UNL1        0.1820
     25 C           4.2657   -0.4825   17.6050 C.2     1  UNL1        0.2640
     26 O           3.7154   -0.9673   16.2966 O.2     1  UNL1       -0.2713
     27 N           3.4800    0.4887   18.4354 N.am    1  UNL1       -0.1956
     28 O           2.1440    0.9750   17.9573 O.3     1  UNL1       -0.2951
     29 H           3.8412    0.8069   19.2942 H       1  UNL1        0.1823
     30 H           1.9388    0.5673   17.1014 H       1  UNL1        0.2414
     31 S           6.9377   -1.4549   18.5612 S.O2    1  UNL1       -0.0034
     32 C           8.2738   -1.9412   19.0391 C.3     1  UNL1        0.1765
     33 O           7.0524   -2.3314   17.3492 O.2     1  UNL1       -0.1726
     34 O           6.8231   -0.5786   19.7730 O.2     1  UNL1       -0.1726
@<TRIPOS>BOND
     1    24    23    1
     2    24    22    1
     3    22    21    1
     4    21     1    1
     5     1     2    1
     6     2     3    1
     7     3     4   ar
     8     4     5   ar
     9     5    10    1
    10    10    11    3
    11    11    12    1
    12    12    13    3
    13    13    14    1
    14    14    15    1
    15    15    16    1
    16    16    18    1
    17    18    19    1
    18    19    20    1
    19    16    17    1
    20     5     6   ar
    21     6     7   ar
    22     7     8   am
    23     8     9    2
    24    24    25    1
    25    25    26    2
    26    25    27   am
    27    27    28    1
    28    24    31    1
    29    31    32    1
    30    31    33    2
    31    31    34    2
    32     8     1   am
    33     7     3   ar
    34    17    14    1
    35    27    29    1
    36    28    30    1
@<TRIPOS>MOLECULE
*****
 34 36 0 0 0
SMALL
GASTEIGER

@<TRIPOS>ATOM
      1 N           3.9556    0.9370   34.6646 N.am    1  UNL1       -0.2560
      2 C           2.9624    1.3646   33.6250 C.3     1  UNL1        0.1394
      3 C           3.3614    0.7435   32.3193 C.ar    1  UNL1        0.0662
      4 C           2.9942    0.6240   30.8699 C.ar    1  UNL1        0.0247
      5 C           4.0071   -0.2615   30.2066 C.ar    1  UNL1        0.0614
      6 C           5.0004   -0.6892   31.2461 C.ar    1  UNL1        0.0922
      7 N           4.6013   -0.0681   32.5518 N.ar    1  UNL1       -0.2624
      8 C           4.9686    0.0514   34.0012 C.2     1  UNL1        0.3234
      9 O           6.1426   -0.6001   34.6699 O.2     1  UNL1       -0.2490
     10 C           4.0238   -0.6509   28.7581 C.1     1  UNL1       -0.0497
     11 C           4.0406   -1.0404   27.3096 C.1     1  UNL1       -0.0095
     12 C           4.0574   -1.4298   25.8611 C.1     1  UNL1       -0.0138
     13 C           4.0743   -1.8193   24.4127 C.1     1  UNL1       -0.0761
     14 C           4.0912   -2.2087   22.9643 C.3     1  UNL1        0.0969
     15 C           4.4652   -3.4459   22.2028 C.3     1  UNL1        0.0867
     16 N           4.1150   -2.7595   20.9159 N.3     1  UNL1       -0.2685
     17 C           3.7410   -1.5225   21.6773 C.3     1  UNL1        0.0867
     18 C           4.1319   -3.1490   19.4674 C.3     1  UNL1        0.1108
     19 C           3.3814   -4.3640   19.0087 C.3     1  UNL1        0.2105
     20 F           3.5240   -5.6588   19.7526 F       1  UNL1       -0.2328
     21 C           3.9389    1.3263   36.1130 C.3     1  UNL1        0.0977
     22 C           2.7111    1.9497   36.7080 C.3     1  UNL1        0.0524
     23 C           2.9072    3.5037   39.2665 C.3     1  UNL1        0.0331
     24 C           2.8091    2.7267   37.9872 C.3     1  UNL1        0.1820
     25 C           2.6781    1.4540   38.7703 C.2     1  UNL1        0.2640
     26 O           3.8067    0.9908   39.6430 O.2     1  UNL1       -0.2713
     27 N           1.4184    0.6446   38.6807 N.am    1  UNL1       -0.1956
     28 O           1.2873   -0.6280   39.4638 O.3     1  UNL1       -0.2951
     29 H           0.6776    0.9487   38.1079 H       1  UNL1        0.1823
     30 H           2.0997   -0.7805   39.9713 H       1  UNL1        0.2414
     31 S           2.9402    3.9993   37.2042 S.O2    1  UNL1       -0.0034
     32 C           3.0715    5.2720   36.4213 C.3     1  UNL1        0.1765
     33 O           4.2611    4.2681   37.8623 O.2     1  UNL1       -0.1726
     34 O           1.6195    3.7306   36.5461 O.2     1  UNL1       -0.1726
@<TRIPOS>BOND
     1    24    23    1
     2    24    22    1
     3    22    21    1
     4    21     1    1
     5     1     2    1
     6     2     3    1
     7     3     4   ar
     8     4     5   ar
     9     5    10    1
    10    10    11    3
    11    11    12    1
    12    12    13    3
    13    13    14    1
    14    14    15    1
    15    15    16    1
    16    16    18    1
    17    18    19    1
    18    19    20    1
    19    16    17    1
    20     5     6   ar
    21     6     7   ar
    22     7     8   am
    23     8     9    2
    24    24    25    1
    25    25    26    2
    26    25    27   am
    27    27    28    1
    28    24    31    1
    29    31    32    1
    30    31    33    2
    31    31    34    2
    32     8     1   am
    33     7     3   ar
    34    17    14    1
    35    27    29    1
    36    28    30    1
@<TRIPOS>MOLECULE
*****
 34 36 0 0 0
SMALL
GASTEIGER

@<TRIPOS>ATOM
      1 N           3.9962   -1.6141   22.7693 N.am    1  UNL1       -0.2560
      2 C           3.1494   -0.4390   23.1592 C.3     1  UNL1        0.1394
      3 C           3.2322   -0.2817   24.6486 C.ar    1  UNL1        0.0662
      4 C           2.7600    0.5417   25.8100 C.ar    1  UNL1        0.0247
      5 C           3.3663   -0.0272   27.0585 C.ar    1  UNL1        0.0614
      6 C           4.2132   -1.2023   26.6687 C.ar    1  UNL1        0.0922
      7 N           4.1303   -1.3596   25.1793 N.ar    1  UNL1       -0.2624
      8 C           4.6025   -2.1831   24.0178 C.2     1  UNL1        0.3234
      9 O           5.5199   -3.3675   24.0919 O.2     1  UNL1       -0.2490
     10 C           3.1617    0.4884   28.4522 C.1     1  UNL1       -0.0497
     11 C           2.9570    1.0039   29.8458 C.1     1  UNL1       -0.0095
     12 C           2.7524    1.5196   31.2395 C.1     1  UNL1       -0.0138
     13 C           2.5478    2.0353   32.6331 C.1     1  UNL1       -0.0761
     14 C           2.3432    2.5510   34.0267 C.3     1  UNL1        0.0969
     15 C           2.7418    2.0902   35.3974 C.3     1  UNL1        0.0867
     16 N           2.0538    3.2803   35.9975 N.3     1  UNL1       -0.2685
     17 C           1.6551    3.7411   34.6269 C.3     1  UNL1        0.0867
     18 C           1.8491    3.7961   37.3912 C.3     1  UNL1        0.1108
     19 C           1.4955    2.8471   38.4976 C.3     1  UNL1        0.2105
     20 F           0.0761    2.7432   38.9716 F       1  UNL1       -0.2328
     21 C           4.2009   -2.1297   21.3757 C.3     1  UNL1        0.0977
     22 C           3.0909   -2.0366   20.3709 C.3     1  UNL1        0.0524
     23 C           3.4117   -0.3129   17.9367 C.3     1  UNL1        0.0331
     24 C           3.2513   -1.1748   19.1539 C.3     1  UNL1        0.1820
     25 C           2.1437   -0.2862   19.6371 C.2     1  UNL1        0.2640
     26 O           2.3261    1.2027   19.6453 O.2     1  UNL1       -0.2713
     27 N           0.8537   -0.8863   20.1122 N.am    1  UNL1       -0.1956
     28 O          -0.2539    0.0023   20.5954 O.3     1  UNL1       -0.2951
     29 H           0.7340   -1.8635   20.1068 H       1  UNL1        0.1823
     30 H           0.0257    0.9292   20.5352 H       1  UNL1        0.2414
     31 S           4.3589   -2.0634   18.6705 S.O2    1  UNL1       -0.0034
     32 C           5.4664   -2.9520   18.1872 C.3     1  UNL1        0.1765
     33 O           3.4508   -3.2526   18.7762 O.2     1  UNL1       -0.1726
     34 O           5.2669   -0.8742   18.5649 O.2     1  UNL1       -0.1726
@<TRIPOS>BOND
     1    24    23    1
     2    24    22    1
     3    22    21    1
     4    21     1    1
     5     1     2    1
     6     2     3    1
     7     3     4   ar
     8     4     5   ar
     9     5    10    1
    10    10    11    3
    11    11    12    1
    12    12    13    3
    13    13    14    1
    14    14    15    1
    15    15    16    1
    16    16    18    1
    17    18    19    1
    18    19    20    1
    19    16    17    1
    20     5     6   ar
    21     6     7   ar
    22     7     8   am
    23     8     9    2
    24    24    25    1
    25    25    26    2
    26    25    27   am
    27    27    28    1
    28    24    31    1
    29    31    32    1
    30    31    33    2
    31    31    34    2
    32     8     1   am
    33     7     3   ar
    34    17    14    1
    35    27    29    1
    36    28    30    1
@<TRIPOS>MOLECULE
*****
 34 36 0 0 0
SMALL
GASTEIGER

@<TRIPOS>ATOM
      1 N           3.4298   -1.0759   22.8282 N.am    1  UNL1       -0.2560
      2 C           2.6349    0.0924   23.3317 C.3     1  UNL1        0.1394
      3 C           2.8013    0.1589   24.8210 C.ar    1  UNL1        0.0662
      4 C           2.4128    0.9220   26.0525 C.ar    1  UNL1        0.0247
      5 C           3.0704    0.2666   27.2306 C.ar    1  UNL1        0.0614
      6 C           3.8653   -0.9017   26.7272 C.ar    1  UNL1        0.0922
      7 N           3.6989   -0.9682   25.2379 N.ar    1  UNL1       -0.2624
      8 C           4.0874   -1.7314   24.0064 C.2     1  UNL1        0.3234
      9 O           4.9772   -2.9381   23.9609 O.2     1  UNL1       -0.2490
     10 C           2.9537    0.7027   28.6610 C.1     1  UNL1       -0.0497
     11 C           2.8369    1.1389   30.0915 C.1     1  UNL1       -0.0095
     12 C           2.7203    1.5751   31.5219 C.1     1  UNL1       -0.0138
     13 C           2.6037    2.0113   32.9524 C.1     1  UNL1       -0.0761
     14 C           2.4871    2.4475   34.3827 C.3     1  UNL1        0.0969
     15 C           3.0269    1.9497   35.6908 C.3     1  UNL1        0.0867
     16 N           2.3222    3.0643   36.4057 N.3     1  UNL1       -0.2685
     17 C           1.7824    3.5620   35.0977 C.3     1  UNL1        0.0867
     18 C           2.2056    3.5006   37.8361 C.3     1  UNL1        0.1108
     19 C           1.8725    2.4981   38.9011 C.3     1  UNL1        0.2105
     20 F           1.3179    1.1571   38.5217 F       1  UNL1       -0.2328
     21 C           3.5466   -1.5120   21.3978 C.3     1  UNL1        0.0977
     22 C           4.8821   -1.4950   20.7151 C.3     1  UNL1        0.0524
     23 C           5.3809   -3.2728   18.3507 C.3     1  UNL1        0.0331
     24 C           5.1315   -2.3838   19.5329 C.3     1  UNL1        0.1820
     25 C           5.3129   -3.5554   20.4520 C.2     1  UNL1        0.2640
     26 O           4.3651   -4.7160   20.3837 O.2     1  UNL1       -0.2713
     27 N           6.4421   -3.5663   21.4393 N.am    1  UNL1       -0.1956
     28 O           6.6235   -4.7378   22.3584 O.3     1  UNL1       -0.2951
     29 H           7.0641   -2.8045   21.4841 H       1  UNL1        0.1823
     30 H           5.9315   -5.3950   22.1849 H       1  UNL1        0.2414
     31 S           4.9502   -1.2124   18.6138 S.O2    1  UNL1       -0.0034
     32 C           4.7687   -0.0410   17.6946 C.3     1  UNL1        0.1765
     33 O           3.8098   -1.9171   17.9408 O.2     1  UNL1       -0.1726
     34 O           6.0905   -0.5077   19.2868 O.2     1  UNL1       -0.1726
@<TRIPOS>BOND
     1    24    23    1
     2    24    22    1
     3    22    21    1
     4    21     1    1
     5     1     2    1
     6     2     3    1
     7     3     4   ar
     8     4     5   ar
     9     5    10    1
    10    10    11    3
    11    11    12    1
    12    12    13    3
    13    13    14    1
    14    14    15    1
    15    15    16    1
    16    16    18    1
    17    18    19    1
    18    19    20    1
    19    16    17    1
    20     5     6   ar
    21     6     7   ar
    22     7     8   am
    23     8     9    2
    24    24    25    1
    25    25    26    2
    26    25    27   am
    27    27    28    1
    28    24    31    1
    29    31    32    1
    30    31    33    2
    31    31    34    2
    32     8     1   am
    33     7     3   ar
    34    17    14    1
    35    27    29    1
    36    28    30    1
@<TRIPOS>MOLECULE
*****
 34 36 0 0 0
SMALL
GASTEIGER

@<TRIPOS>ATOM
      1 N          -3.2706    3.8800   24.5741 N.am    1  UNL1       -0.2560
      2 C          -2.0207    3.3442   23.9412 C.3     1  UNL1        0.1394
      3 C          -1.1683    2.7541   25.0253 C.ar    1  UNL1        0.0662
      4 C           0.1310    2.0583   25.3040 C.ar    1  UNL1        0.0247
      5 C           0.2109    1.7994   26.7793 C.ar    1  UNL1        0.0614
      6 C          -1.0390    2.3352   27.4124 C.ar    1  UNL1        0.0922
      7 N          -1.8914    2.9253   26.3283 N.ar    1  UNL1       -0.2624
      8 C          -3.1907    3.6211   26.0495 C.2     1  UNL1        0.3234
      9 O          -4.2279    3.9928   27.0673 O.2     1  UNL1       -0.2490
     10 C           1.3421    1.1234   27.4959 C.1     1  UNL1       -0.0497
     11 C           2.4732    0.4474   28.2124 C.1     1  UNL1       -0.0095
     12 C           3.6045   -0.2286   28.9290 C.1     1  UNL1       -0.0138
     13 C           4.7357   -0.9046   29.6455 C.1     1  UNL1       -0.0761
     14 C           5.8668   -1.5805   30.3620 C.3     1  UNL1        0.0969
     15 C           7.3629   -1.5376   30.2612 C.3     1  UNL1        0.0867
     16 N           7.4666   -2.5365   31.3754 N.3     1  UNL1       -0.2685
     17 C           5.9706   -2.5794   31.4762 C.3     1  UNL1        0.0867
     18 C           8.5978   -3.2125   32.0920 C.3     1  UNL1        0.1108
     19 C           9.3862   -4.2870   31.4036 C.3     1  UNL1        0.2105
     20 F           9.0678   -5.7306   31.6581 F       1  UNL1       -0.2328
     21 C          -4.4017    4.5560   23.8576 C.3     1  UNL1        0.0977
     22 C          -5.3280    3.7535   22.9926 C.3     1  UNL1        0.0524
     23 C          -6.3709    4.9149   20.4307 C.3     1  UNL1        0.0331
     24 C          -5.8494    4.3342   21.7117 C.3     1  UNL1        0.1820
     25 C          -7.1522    4.6497   22.3850 C.2     1  UNL1        0.2640
     26 O          -7.7309    6.0302   22.2892 O.2     1  UNL1       -0.2713
     27 N          -7.8762    3.5846   23.1540 N.am    1  UNL1       -0.1956
     28 O          -9.1789    3.9001   23.8273 O.3     1  UNL1       -0.2951
     29 H          -7.4963    2.6785   23.2169 H       1  UNL1        0.1823
     30 H          -9.4086    4.8289   23.6680 H       1  UNL1        0.2414
     31 S          -4.5467    4.0188   21.0383 S.O2    1  UNL1       -0.0034
     32 C          -3.2440    3.7033   20.3650 C.3     1  UNL1        0.1765
     33 O          -4.6682    2.5884   21.4734 O.2     1  UNL1       -0.1726
     34 O          -4.4252    5.4491   20.6033 O.2     1  UNL1       -0.1726
@<TRIPOS>BOND
     1    24    23    1
     2    24    22    1
     3    22    21    1
     4    21     1    1
     5     1     2    1
     6     2     3    1
     7     3     4   ar
     8     4     5   ar
     9     5    10    1
    10    10    11    3
    11    11    12    1
    12    12    13    3
    13    13    14    1
    14    14    15    1
    15    15    16    1
    16    16    18    1
    17    18    19    1
    18    19    20    1
    19    16    17    1
    20     5     6   ar
    21     6     7   ar
    22     7     8   am
    23     8     9    2
    24    24    25    1
    25    25    26    2
    26    25    27   am
    27    27    28    1
    28    24    31    1
    29    31    32    1
    30    31    33    2
    31    31    34    2
    32     8     1   am
    33     7     3   ar
    34    17    14    1
    35    27    29    1
    36    28    30    1
@<TRIPOS>MOLECULE
*****
 34 36 0 0 0
SMALL
GASTEIGER

@<TRIPOS>ATOM
      1 N           3.1937   -0.9028   22.4575 N.am    1  UNL1       -0.2560
      2 C           2.5764    0.2112   23.2499 C.3     1  UNL1        0.1394
      3 C           2.9335    0.0071   24.6925 C.ar    1  UNL1        0.0662
      4 C           2.7726    0.5695   26.0737 C.ar    1  UNL1        0.0247
      5 C           3.5113   -0.3230   27.0264 C.ar    1  UNL1        0.0614
      6 C           4.1286   -1.4370   26.2341 C.ar    1  UNL1        0.0922
      7 N           3.7715   -1.2330   24.7915 N.ar    1  UNL1       -0.2624
      8 C           3.9324   -1.7953   23.4103 C.2     1  UNL1        0.3234
      9 O           4.6976   -3.0330   23.0458 O.2     1  UNL1       -0.2490
     10 C           3.6144   -0.1346   28.5110 C.1     1  UNL1       -0.0497
     11 C           3.7176    0.0537   29.9955 C.1     1  UNL1       -0.0095
     12 C           3.8208    0.2420   31.4801 C.1     1  UNL1       -0.0138
     13 C           3.9240    0.4303   32.9647 C.1     1  UNL1       -0.0761
     14 C           4.0271    0.6186   34.4492 C.3     1  UNL1        0.0969
     15 C           4.7118   -0.1122   35.5661 C.3     1  UNL1        0.0867
     16 N           4.1730    0.8848   36.5486 N.3     1  UNL1       -0.2685
     17 C           3.4884    1.6156   35.4319 C.3     1  UNL1        0.0867
     18 C           4.2761    1.0732   38.0332 C.3     1  UNL1        0.1108
     19 C           3.0325    1.2254   38.8580 C.3     1  UNL1        0.2105
     20 F           1.8212    0.3966   38.5486 F       1  UNL1       -0.2328
     21 C           3.0906   -1.0912   20.9730 C.3     1  UNL1        0.0977
     22 C           4.2034   -0.6297   20.0792 C.3     1  UNL1        0.0524
     23 C           3.9447   -0.8954   17.1023 C.3     1  UNL1        0.0331
     24 C           4.0740   -0.7625   18.5908 C.3     1  UNL1        0.1820
     25 C           4.6772   -2.1341   18.6608 C.2     1  UNL1        0.2640
     26 O           6.1088   -2.3036   19.0754 O.2     1  UNL1       -0.2713
     27 N           3.8489   -3.3362   18.3161 N.am    1  UNL1       -0.1956
     28 O           4.4520   -4.7078   18.3861 O.3     1  UNL1       -0.2951
     29 H           2.9093   -3.2249   18.0440 H       1  UNL1        0.1823
     30 H           5.3776   -4.6400   18.6684 H       1  UNL1        0.2414
     31 S           3.4709    0.6090   18.5207 S.O2    1  UNL1       -0.0034
     32 C           2.8676    1.9806   18.4506 C.3     1  UNL1        0.1765
     33 O           2.2324    0.0327   17.9010 O.2     1  UNL1       -0.1726
     34 O           4.7092    1.1854   19.1404 O.2     1  UNL1       -0.1726
@<TRIPOS>BOND
     1    24    23    1
     2    24    22    1
     3    22    21    1
     4    21     1    1
     5     1     2    1
     6     2     3    1
     7     3     4   ar
     8     4     5   ar
     9     5    10    1
    10    10    11    3
    11    11    12    1
    12    12    13    3
    13    13    14    1
    14    14    15    1
    15    15    16    1
    16    16    18    1
    17    18    19    1
    18    19    20    1
    19    16    17    1
    20     5     6   ar
    21     6     7   ar
    22     7     8   am
    23     8     9    2
    24    24    25    1
    25    25    26    2
    26    25    27   am
    27    27    28    1
    28    24    31    1
    29    31    32    1
    30    31    33    2
    31    31    34    2
    32     8     1   am
    33     7     3   ar
    34    17    14    1
    35    27    29    1
    36    28    30    1
@<TRIPOS>MOLECULE
*****
 34 36 0 0 0
SMALL
GASTEIGER

@<TRIPOS>ATOM
      1 N           2.5959    1.6654   32.7018 N.am    1  UNL1       -0.2560
      2 C           1.9927    2.9769   32.2941 C.3     1  UNL1        0.1394
      3 C           1.3448    2.7925   30.9539 C.ar    1  UNL1        0.0662
      4 C           0.5716    3.4891   29.8736 C.ar    1  UNL1        0.0247
      5 C           0.2965    2.4941   28.7854 C.ar    1  UNL1        0.0614
      6 C           0.8996    1.1826   29.1930 C.ar    1  UNL1        0.0922
      7 N           1.5475    1.3670   30.5333 N.ar    1  UNL1       -0.2624
      8 C           2.3207    0.6704   31.6135 C.2     1  UNL1        0.3234
      9 O           2.7444   -0.7685   31.6067 O.2     1  UNL1       -0.2490
     10 C          -0.4506    2.7633   27.5128 C.1     1  UNL1       -0.0497
     11 C          -1.1977    3.0326   26.2403 C.1     1  UNL1       -0.0095
     12 C          -1.9448    3.3017   24.9677 C.1     1  UNL1       -0.0138
     13 C          -2.6918    3.5708   23.6951 C.1     1  UNL1       -0.0761
     14 C          -3.4388    3.8400   22.4226 C.3     1  UNL1        0.0969
     15 C          -4.7869    3.4623   21.8837 C.3     1  UNL1        0.0867
     16 N          -4.4953    4.2206   20.6228 N.3     1  UNL1       -0.2685
     17 C          -3.1473    4.5982   21.1616 C.3     1  UNL1        0.0867
     18 C          -5.2423    4.4898   19.3502 C.3     1  UNL1        0.1108
     19 C          -5.7432    3.3464   18.5184 C.3     1  UNL1        0.2105
     20 F          -7.1864    2.9438   18.5884 F       1  UNL1       -0.2328
     21 C           3.3430    1.3962   33.9743 C.3     1  UNL1        0.0977
     22 C           4.8418    1.3357   33.9657 C.3     1  UNL1        0.0524
     23 C           6.2751   -0.6007   35.7533 C.3     1  UNL1        0.0331
     24 C           5.5584    0.3675   34.8595 C.3     1  UNL1        0.1820
     25 C           5.3070   -0.7318   33.8704 C.2     1  UNL1        0.2640
     26 O           6.0634   -0.7632   32.5755 O.2     1  UNL1       -0.2713
     27 N           4.2990   -1.7997   34.1762 N.am    1  UNL1       -0.1956
     28 O           4.0475   -2.8991   33.1871 O.3     1  UNL1       -0.2951
     29 H           3.8025   -1.7791   35.0261 H       1  UNL1        0.1823
     30 H           4.6144   -2.7712   32.4105 H       1  UNL1        0.2414
     31 S           5.8100    1.4667   35.8485 S.O2    1  UNL1       -0.0034
     32 C           6.0616    2.5661   36.8376 C.3     1  UNL1        0.1765
     33 O           6.5593    2.2370   34.8020 O.2     1  UNL1       -0.1726
     34 O           5.0607    0.6966   36.8951 O.2     1  UNL1       -0.1726
@<TRIPOS>BOND
     1    24    23    1
     2    24    22    1
     3    22    21    1
     4    21     1    1
     5     1     2    1
     6     2     3    1
     7     3     4   ar
     8     4     5   ar
     9     5    10    1
    10    10    11    3
    11    11    12    1
    12    12    13    3
    13    13    14    1
    14    14    15    1
    15    15    16    1
    16    16    18    1
    17    18    19    1
    18    19    20    1
    19    16    17    1
    20     5     6   ar
    21     6     7   ar
    22     7     8   am
    23     8     9    2
    24    24    25    1
    25    25    26    2
    26    25    27   am
    27    27    28    1
    28    24    31    1
    29    31    32    1
    30    31    33    2
    31    31    34    2
    32     8     1   am
    33     7     3   ar
    34    17    14    1
    35    27    29    1
    36    28    30    1
@<TRIPOS>MOLECULE
*****
 34 36 0 0 0
SMALL
GASTEIGER

@<TRIPOS>ATOM
      1 N           3.7085   -1.3893   23.1629 N.am    1  UNL1       -0.2560
      2 C           2.9208   -0.3444   23.8962 C.3     1  UNL1        0.1394
      3 C           3.2686   -0.4386   25.3523 C.ar    1  UNL1        0.0662
      4 C           2.9967    0.1490   26.7054 C.ar    1  UNL1        0.0247
      5 C           3.8313   -0.5911   27.7082 C.ar    1  UNL1        0.0614
      6 C           4.6191   -1.6360   26.9750 C.ar    1  UNL1        0.0922
      7 N           4.2712   -1.5418   25.5189 N.ar    1  UNL1       -0.2624
      8 C           4.5431   -2.1294   24.1658 C.2     1  UNL1        0.3234
      9 O           5.4844   -3.2587   23.8679 O.2     1  UNL1       -0.2490
     10 C           3.8713   -0.3317   29.1851 C.1     1  UNL1       -0.0497
     11 C           3.9112   -0.0723   30.6620 C.1     1  UNL1       -0.0095
     12 C           3.9511    0.1870   32.1389 C.1     1  UNL1       -0.0138
     13 C           3.9909    0.4464   33.6158 C.1     1  UNL1       -0.0761
     14 C           4.0306    0.7057   35.0925 C.3     1  UNL1        0.0969
     15 C           3.4643    1.7569   36.0006 C.3     1  UNL1        0.0867
     16 N           4.0869    1.0725   37.1811 N.3     1  UNL1       -0.2685
     17 C           4.6533    0.0214   36.2732 C.3     1  UNL1        0.0867
     18 C           4.1267    1.3318   38.6581 C.3     1  UNL1        0.1108
     19 C           4.9777    2.4408   39.2021 C.3     1  UNL1        0.2105
     20 F           5.4335    3.5485   38.2991 F       1  UNL1       -0.2328
     21 C           3.6685   -1.6487   21.6861 C.3     1  UNL1        0.0977
     22 C           4.1509   -0.6008   20.7272 C.3     1  UNL1        0.0524
     23 C           2.8817   -0.3457   18.0209 C.3     1  UNL1        0.0331
     24 C           3.5164   -0.4733   19.3741 C.3     1  UNL1        0.1820
     25 C           2.2808    0.0950   20.0071 C.2     1  UNL1        0.2640
     26 O           2.3506    1.3933   20.7551 O.2     1  UNL1       -0.2713
     27 N           0.9756   -0.6351   19.8920 N.am    1  UNL1       -0.1956
     28 O          -0.2600   -0.0669   20.5249 O.3     1  UNL1       -0.2951
     29 H           0.9298   -1.4872   19.4011 H       1  UNL1        0.1823
     30 H          -0.0423    0.7696   20.9652 H       1  UNL1        0.2414
     31 S           4.7518   -1.0415   18.7411 S.O2    1  UNL1       -0.0034
     32 C           5.9872   -1.6098   18.1080 C.3     1  UNL1        0.1765
     33 O           3.9576   -2.2122   18.2421 O.2     1  UNL1       -0.1726
     34 O           5.5459    0.1291   19.2399 O.2     1  UNL1       -0.1726
@<TRIPOS>BOND
     1    24    23    1
     2    24    22    1
     3    22    21    1
     4    21     1    1
     5     1     2    1
     6     2     3    1
     7     3     4   ar
     8     4     5   ar
     9     5    10    1
    10    10    11    3
    11    11    12    1
    12    12    13    3
    13    13    14    1
    14    14    15    1
    15    15    16    1
    16    16    18    1
    17    18    19    1
    18    19    20    1
    19    16    17    1
    20     5     6   ar
    21     6     7   ar
    22     7     8   am
    23     8     9    2
    24    24    25    1
    25    25    26    2
    26    25    27   am
    27    27    28    1
    28    24    31    1
    29    31    32    1
    30    31    33    2
    31    31    34    2
    32     8     1   am
    33     7     3   ar
    34    17    14    1
    35    27    29    1
    36    28    30    1
@<TRIPOS>MOLECULE
*****
 34 36 0 0 0
SMALL
GASTEIGER

@<TRIPOS>ATOM
      1 N          -4.6483    4.8073   21.4773 N.am    1  UNL1       -0.2560
      2 C          -5.1660    4.2681   22.7779 C.3     1  UNL1        0.1394
      3 C          -3.9880    3.8616   23.6129 C.ar    1  UNL1        0.0662
      4 C          -3.5800    3.2771   24.9327 C.ar    1  UNL1        0.0247
      5 C          -2.0821    3.2039   24.9639 C.ar    1  UNL1        0.0614
      6 C          -1.5644    3.7431   23.6635 C.ar    1  UNL1        0.0922
      7 N          -2.7423    4.1496   22.8284 N.ar    1  UNL1       -0.2624
      8 C          -3.1504    4.7341   21.5086 C.2     1  UNL1        0.3234
      9 O          -2.2233    5.1690   20.4126 O.2     1  UNL1       -0.2490
     10 C          -1.2483    2.6829   26.0968 C.1     1  UNL1       -0.0497
     11 C          -0.4145    2.1619   27.2296 C.1     1  UNL1       -0.0095
     12 C           0.4193    1.6409   28.3624 C.1     1  UNL1       -0.0138
     13 C           1.2532    1.1199   29.4953 C.1     1  UNL1       -0.0761
     14 C           2.0870    0.5989   30.6280 C.3     1  UNL1        0.0969
     15 C           2.8297   -0.6758   30.8996 C.3     1  UNL1        0.0867
     16 N           3.2662   -0.1379   32.2300 N.3     1  UNL1       -0.2685
     17 C           2.5235    1.1367   31.9585 C.3     1  UNL1        0.0867
     18 C           4.1001   -0.6589   33.3629 C.3     1  UNL1        0.1108
     19 C           4.6880   -2.0369   33.2894 C.3     1  UNL1        0.2105
     20 F           3.9476   -3.2007   33.8789 F       1  UNL1       -0.2328
     21 C          -5.4821    5.3283   20.3445 C.3     1  UNL1        0.0977
     22 C          -5.6853    4.4916   19.1162 C.3     1  UNL1        0.0524
     23 C          -5.7546    5.7890   16.4122 C.3     1  UNL1        0.0331
     24 C          -5.7199    5.1403   17.7642 C.3     1  UNL1        0.1820
     25 C          -7.0937    5.6688   18.0529 C.2     1  UNL1        0.2640
     26 O          -7.3475    7.1470   18.0357 O.2     1  UNL1       -0.2713
     27 N          -8.2137    4.7190   18.3588 N.am    1  UNL1       -0.1956
     28 O          -9.5875    5.2475   18.6476 O.3     1  UNL1       -0.2951
     29 H          -8.0471    3.7488   18.3701 H       1  UNL1        0.1823
     30 H          -9.5787    6.2161   18.5960 H       1  UNL1        0.2414
     31 S          -4.3462    4.6118   17.4754 S.O2    1  UNL1       -0.0034
     32 C          -2.9723    4.0835   17.1866 C.3     1  UNL1        0.1765
     33 O          -3.8250    6.0156   17.3859 O.2     1  UNL1       -0.1726
     34 O          -4.8672    3.2082   17.5649 O.2     1  UNL1       -0.1726
@<TRIPOS>BOND
     1    24    23    1
     2    24    22    1
     3    22    21    1
     4    21     1    1
     5     1     2    1
     6     2     3    1
     7     3     4   ar
     8     4     5   ar
     9     5    10    1
    10    10    11    3
    11    11    12    1
    12    12    13    3
    13    13    14    1
    14    14    15    1
    15    15    16    1
    16    16    18    1
    17    18    19    1
    18    19    20    1
    19    16    17    1
    20     5     6   ar
    21     6     7   ar
    22     7     8   am
    23     8     9    2
    24    24    25    1
    25    25    26    2
    26    25    27   am
    27    27    28    1
    28    24    31    1
    29    31    32    1
    30    31    33    2
    31    31    34    2
    32     8     1   am
    33     7     3   ar
    34    17    14    1
    35    27    29    1
    36    28    30    1
