@<TRIPOS>MOLECULE
*****
 50 55 0 0 0
SMALL
GASTEIGER

@<TRIPOS>ATOM
      1 N           2.1313    2.1310   30.6168 N.am    1  UNL1       -0.2803
      2 C           2.4226    0.9855   31.5404 C.2     1  UNL1        0.2508
      3 O           2.2561   -0.4259   31.0606 O.2     1  UNL1       -0.2698
      4 H           2.2406    3.0573   30.9318 H       1  UNL1        0.1552
      5 C           0.7581    1.3332   26.4064 C.ar    1  UNL1       -0.0207
      6 C          -0.2461    1.4368   27.5159 C.ar    1  UNL1       -0.0029
      7 C           0.2117    1.7027   28.9194 C.ar    1  UNL1        0.0144
      8 C           1.6736    1.8651   29.2134 C.ar    1  UNL1        0.0505
      9 C           2.6778    1.7615   28.1039 C.ar    1  UNL1        0.0144
     10 C           2.2200    1.4956   26.7004 C.ar    1  UNL1       -0.0029
     11 C           0.3003    1.0673   25.0029 C.3     1  UNL1        0.0437
     12 C           1.1289    1.5336   23.8428 C.3     1  UNL1        0.0771
     13 C           4.7290   -3.4483   20.7655 C.ar    1  UNL1        0.1721
     14 C           3.7326   -2.4725   20.2134 C.ar    1  UNL1        0.0356
     15 C           3.0817   -1.4709   21.1208 C.ar    1  UNL1       -0.0202
     16 C           3.4272   -1.4452   22.5802 C.ar    1  UNL1       -0.0068
     17 C           4.4237   -2.4211   23.1323 C.ar    1  UNL1        0.0368
     18 C           5.0746   -3.4226   22.2250 C.ar    1  UNL1        0.1721
     19 C           2.7763   -0.4437   23.4875 C.3     1  UNL1        0.0990
     20 N           1.7799    0.5321   22.9354 N.3     1  UNL1       -0.2683
     21 C           1.4343    0.5064   21.4760 C.3     1  UNL1        0.0771
     22 C           2.0852   -0.4951   20.5687 C.3     1  UNL1        0.0435
     23 C           4.5869   -5.0934   18.7597 C.3     1  UNL1        0.2526
     24 O           5.3800   -4.4499   19.8582 O.3     1  UNL1       -0.4684
     25 O           6.0711   -4.3985   22.7771 O.3     1  UNL1       -0.4684
     26 C           7.5389   -4.1021   22.6893 C.3     1  UNL1        0.2526
     27 C           2.8803    1.2515   32.9440 C.ar    1  UNL1        0.0703
     28 C           2.0789    2.1524   33.8362 C.ar    1  UNL1        0.0458
     29 C           2.5366    2.4184   35.2396 C.ar    1  UNL1        0.1726
     30 C           3.7957    1.7834   35.7509 C.ar    1  UNL1        0.1736
     31 C           4.5971    0.8825   34.8587 C.ar    1  UNL1        0.0549
     32 C           4.1394    0.6165   33.4552 C.ar    1  UNL1        0.0582
     33 N           4.9408   -0.2845   32.5630 N.am    1  UNL1       -0.2801
     34 C           4.8800   -1.7716   32.7492 C.2     1  UNL1        0.2510
     35 O           4.0177   -2.3578   33.8277 O.2     1  UNL1       -0.2698
     36 H           5.5067    0.1002   31.8553 H       1  UNL1        0.1552
     37 C           5.6814   -2.6726   31.8570 C.ar    1  UNL1        0.0728
     38 C           6.2743   -3.9367   32.4052 C.ar    1  UNL1        0.1033
     39 N           7.0757   -4.8376   31.5130 N.ar    1  UNL1       -0.2437
     40 C           7.2842   -4.4745   30.0727 C.ar    1  UNL1        0.0813
     41 C           8.0856   -5.3755   29.1805 C.ar    1  UNL1        0.0191
     42 C           8.2941   -5.0123   27.7401 C.ar    1  UNL1        0.0015
     43 C           7.7012   -3.7483   27.1919 C.ar    1  UNL1        0.0001
     44 C           6.8998   -2.8473   28.0841 C.ar    1  UNL1        0.0015
     45 C           6.6913   -3.2104   29.5244 C.ar    1  UNL1        0.0178
     46 C           5.8899   -2.3094   30.4166 C.ar    1  UNL1        0.0076
     47 O           1.7352    3.3194   36.1318 O.3     1  UNL1       -0.4684
     48 C           2.1061    4.7667   36.2644 C.3     1  UNL1        0.2526
     49 O           4.2534    2.0494   37.1544 O.3     1  UNL1       -0.4683
     50 C           3.6098    1.3297   38.3023 C.3     1  UNL1        0.2526
@<TRIPOS>BOND
     1    23    24    1
     2    24    13    1
     3    13    14   ar
     4    14    15   ar
     5    15    16   ar
     6    16    17   ar
     7    17    18   ar
     8    18    25    1
     9    25    26    1
    10    16    19    1
    11    19    20    1
    12    20    12    1
    13    12    11    1
    14    11     5    1
    15     5     6   ar
    16     6     7   ar
    17     7     8   ar
    18     8     1    1
    19     1     2   am
    20     2     3    2
    21     2    27    1
    22    27    28   ar
    23    28    29   ar
    24    29    47    1
    25    47    48    1
    26    29    30   ar
    27    30    49    1
    28    49    50    1
    29    30    31   ar
    30    31    32   ar
    31    32    33    1
    32    33    34   am
    33    34    35    2
    34    34    37    1
    35    37    38   ar
    36    38    39   ar
    37    39    40   ar
    38    40    41   ar
    39    41    42   ar
    40    42    43   ar
    41    43    44   ar
    42    44    45   ar
    43    45    46   ar
    44     8     9   ar
    45     9    10   ar
    46    20    21    1
    47    21    22    1
    48    18    13   ar
    49    10     5   ar
    50    22    15    1
    51    32    27   ar
    52    46    37   ar
    53    45    40   ar
    54     1     4    1
    55    33    36    1
@<TRIPOS>MOLECULE
*****
 50 55 0 0 0
SMALL
GASTEIGER

@<TRIPOS>ATOM
      1 N           1.7491    2.1071   26.2958 N.am    1  UNL1       -0.2803
      2 C           0.9149    1.3764   27.3058 C.2     1  UNL1        0.2508
      3 O          -0.5085    1.0244   26.9894 O.2     1  UNL1       -0.2698
      4 H           2.6833    2.3381   26.5034 H       1  UNL1        0.1552
      5 C          -0.0183    3.2434   22.3164 C.ar    1  UNL1       -0.0207
      6 C           0.4019    1.8266   22.5733 C.ar    1  UNL1       -0.0029
      7 C           0.9911    1.4478   23.8998 C.ar    1  UNL1        0.0144
      8 C           1.1600    2.4859   24.9694 C.ar    1  UNL1        0.0505
      9 C           0.7398    3.9027   24.7124 C.ar    1  UNL1        0.0144
     10 C           0.1506    4.2815   23.3860 C.ar    1  UNL1       -0.0029
     11 C          -0.6074    3.6222   20.9900 C.3     1  UNL1        0.0437
     12 C           0.2925    3.9325   19.8308 C.3     1  UNL1        0.0771
     13 C           5.4662   -0.0288   17.6421 C.ar    1  UNL1        0.1721
     14 C           3.9885   -0.2816   17.6905 C.ar    1  UNL1        0.0356
     15 C           3.0645    0.7719   18.2255 C.ar    1  UNL1       -0.0202
     16 C           3.6182    2.0782   18.7123 C.ar    1  UNL1       -0.0068
     17 C           5.0961    2.3310   18.6639 C.ar    1  UNL1        0.0368
     18 C           6.0200    1.2775   18.1288 C.ar    1  UNL1        0.1721
     19 C           2.6943    3.1317   19.2473 C.3     1  UNL1        0.0990
     20 N           1.2166    2.8789   19.2957 N.3     1  UNL1       -0.2683
     21 C           0.6628    1.5726   18.8090 C.3     1  UNL1        0.0771
     22 C           1.5868    0.5191   18.2739 C.3     1  UNL1        0.0435
     23 C           7.0585   -2.0415   18.0470 C.3     1  UNL1        0.2526
     24 O           6.3903   -1.0824   17.1070 O.3     1  UNL1       -0.4684
     25 O           7.4978    1.5302   18.0804 O.3     1  UNL1       -0.4684
     26 C           8.1680    1.8119   16.7683 C.3     1  UNL1        0.2526
     27 C           1.5041    0.9976   28.6322 C.ar    1  UNL1        0.0703
     28 C           1.1584    1.7877   29.8595 C.ar    1  UNL1        0.0458
     29 C           1.7475    1.4089   31.1859 C.ar    1  UNL1        0.1726
     30 C           2.6823    0.2401   31.2851 C.ar    1  UNL1        0.1736
     31 C           3.0280   -0.5500   30.0578 C.ar    1  UNL1        0.0549
     32 C           2.4389   -0.1713   28.7314 C.ar    1  UNL1        0.0582
     33 N           2.7846   -0.9613   27.5041 N.am    1  UNL1       -0.2801
     34 C           3.8636   -0.4787   26.5806 C.2     1  UNL1        0.2510
     35 O           4.5970    0.7941   26.8845 O.2     1  UNL1       -0.2698
     36 H           2.3033   -1.7967   27.3046 H       1  UNL1        0.1552
     37 C           4.2093   -1.2688   25.3533 C.ar    1  UNL1        0.0728
     38 C           5.2601   -2.3371   25.4204 C.ar    1  UNL1        0.1033
     39 N           5.6058   -3.1272   24.1931 N.ar    1  UNL1       -0.2437
     40 C           4.9007   -2.8490   22.8988 C.ar    1  UNL1        0.0813
     41 C           5.2464   -3.6391   21.6715 C.ar    1  UNL1        0.0191
     42 C           4.5413   -3.3608   20.3771 C.ar    1  UNL1        0.0015
     43 C           3.4905   -2.2925   20.3100 C.ar    1  UNL1        0.0001
     44 C           3.1448   -1.5024   21.5373 C.ar    1  UNL1        0.0015
     45 C           3.8499   -1.7806   22.8316 C.ar    1  UNL1        0.0178
     46 C           3.5042   -0.9905   24.0589 C.ar    1  UNL1        0.0076
     47 O           1.4018    2.1990   32.4132 O.3     1  UNL1       -0.4684
     48 C           0.8357    3.5817   32.2803 C.3     1  UNL1        0.2526
     49 O           3.2715   -0.1387   32.6115 O.3     1  UNL1       -0.4683
     50 C           4.2321   -1.2869   32.7051 C.3     1  UNL1        0.2526
@<TRIPOS>BOND
     1    23    24    1
     2    24    13    1
     3    13    14   ar
     4    14    15   ar
     5    15    16   ar
     6    16    17   ar
     7    17    18   ar
     8    18    25    1
     9    25    26    1
    10    16    19    1
    11    19    20    1
    12    20    12    1
    13    12    11    1
    14    11     5    1
    15     5     6   ar
    16     6     7   ar
    17     7     8   ar
    18     8     1    1
    19     1     2   am
    20     2     3    2
    21     2    27    1
    22    27    28   ar
    23    28    29   ar
    24    29    47    1
    25    47    48    1
    26    29    30   ar
    27    30    49    1
    28    49    50    1
    29    30    31   ar
    30    31    32   ar
    31    32    33    1
    32    33    34   am
    33    34    35    2
    34    34    37    1
    35    37    38   ar
    36    38    39   ar
    37    39    40   ar
    38    40    41   ar
    39    41    42   ar
    40    42    43   ar
    41    43    44   ar
    42    44    45   ar
    43    45    46   ar
    44     8     9   ar
    45     9    10   ar
    46    20    21    1
    47    21    22    1
    48    18    13   ar
    49    10     5   ar
    50    22    15    1
    51    32    27   ar
    52    46    37   ar
    53    45    40   ar
    54     1     4    1
    55    33    36    1
@<TRIPOS>MOLECULE
*****
 50 55 0 0 0
SMALL
GASTEIGER

@<TRIPOS>ATOM
      1 N           3.9222   -1.7196   20.4015 N.am    1  UNL1       -0.2803
      2 C           4.8339   -1.4167   21.5534 C.2     1  UNL1        0.2508
      3 O           4.7966   -0.0657   22.2042 O.2     1  UNL1       -0.2698
      4 H           3.9467   -2.6063   19.9743 H       1  UNL1        0.1552
      5 C           1.0752    1.4242   18.8980 C.ar    1  UNL1       -0.0207
      6 C           0.6529    0.4932   19.9956 C.ar    1  UNL1       -0.0029
      7 C           1.6020   -0.5548   20.4968 C.ar    1  UNL1        0.0144
      8 C           2.9732   -0.6717   19.9003 C.ar    1  UNL1        0.0505
      9 C           3.3955    0.2593   18.8026 C.ar    1  UNL1        0.0144
     10 C           2.4466    1.3072   18.3015 C.ar    1  UNL1       -0.0029
     11 C           0.1262    2.4722   18.3968 C.3     1  UNL1        0.0437
     12 C          -0.2596    3.6198   19.2823 C.3     1  UNL1        0.0771
     13 C          -6.1395    3.9050   22.8312 C.ar    1  UNL1        0.1721
     14 C          -5.8711    4.0492   21.3625 C.ar    1  UNL1        0.0356
     15 C          -4.4682    3.9418   20.8424 C.ar    1  UNL1       -0.0202
     16 C          -3.3338    3.6903   21.7911 C.ar    1  UNL1       -0.0068
     17 C          -3.6023    3.5462   23.2599 C.ar    1  UNL1        0.0368
     18 C          -5.0052    3.6535   23.7799 C.ar    1  UNL1        0.1721
     19 C          -1.9310    3.5830   21.2711 C.3     1  UNL1        0.0990
     20 N          -1.6625    3.7271   19.8024 N.3     1  UNL1       -0.2683
     21 C          -2.7969    3.9786   18.8537 C.3     1  UNL1        0.0771
     22 C          -4.1997    4.0860   19.3737 C.3     1  UNL1        0.0435
     23 C          -8.0166    5.2934   23.9711 C.3     1  UNL1        0.2526
     24 O          -7.5424    4.0124   23.3513 O.3     1  UNL1       -0.4684
     25 O          -5.2737    3.5094   25.2487 O.3     1  UNL1       -0.4684
     26 C          -4.2131    3.8749   26.2444 C.3     1  UNL1        0.2526
     27 C           5.7829   -2.4647   22.0546 C.ar    1  UNL1        0.0703
     28 C           6.8655   -2.9869   21.1572 C.ar    1  UNL1        0.0458
     29 C           7.8145   -4.0349   21.6583 C.ar    1  UNL1        0.1726
     30 C           7.6809   -4.5606   23.0568 C.ar    1  UNL1        0.1736
     31 C           6.5983   -4.0384   23.9541 C.ar    1  UNL1        0.0549
     32 C           5.6493   -2.9905   23.4530 C.ar    1  UNL1        0.0582
     33 N           4.5666   -2.4682   24.3504 N.am    1  UNL1       -0.2801
     34 C           4.8735   -1.3896   25.3465 C.2     1  UNL1        0.2510
     35 O           6.2630   -0.8332   25.4454 O.2     1  UNL1       -0.2698
     36 H           3.6547   -2.8335   24.2855 H       1  UNL1        0.1552
     37 C           3.7908   -0.8674   26.2439 C.ar    1  UNL1        0.0728
     38 C           3.6595   -1.3905   27.6435 C.ar    1  UNL1        0.1033
     39 N           2.5769   -0.8683   28.5409 N.ar    1  UNL1       -0.2437
     40 C           1.6256    0.1770   28.0386 C.ar    1  UNL1        0.0813
     41 C           0.5430    0.6992   28.9359 C.ar    1  UNL1        0.0191
     42 C          -0.4083    1.7445   28.4335 C.ar    1  UNL1        0.0015
     43 C          -0.2770    2.2677   27.0339 C.ar    1  UNL1        0.0001
     44 C           0.8056    1.7454   26.1365 C.ar    1  UNL1        0.0015
     45 C           1.7569    0.7001   26.6388 C.ar    1  UNL1        0.0178
     46 C           2.8395    0.1779   25.7415 C.ar    1  UNL1        0.0076
     47 O           8.8972   -4.5571   20.7610 O.3     1  UNL1       -0.4684
     48 C           9.5217   -3.6566   19.7367 C.3     1  UNL1        0.2526
     49 O           8.6299   -5.6087   23.5579 O.3     1  UNL1       -0.4683
     50 C           8.0984   -6.8783   24.1542 C.3     1  UNL1        0.2526
@<TRIPOS>BOND
     1    23    24    1
     2    24    13    1
     3    13    14   ar
     4    14    15   ar
     5    15    16   ar
     6    16    17   ar
     7    17    18   ar
     8    18    25    1
     9    25    26    1
    10    16    19    1
    11    19    20    1
    12    20    12    1
    13    12    11    1
    14    11     5    1
    15     5     6   ar
    16     6     7   ar
    17     7     8   ar
    18     8     1    1
    19     1     2   am
    20     2     3    2
    21     2    27    1
    22    27    28   ar
    23    28    29   ar
    24    29    47    1
    25    47    48    1
    26    29    30   ar
    27    30    49    1
    28    49    50    1
    29    30    31   ar
    30    31    32   ar
    31    32    33    1
    32    33    34   am
    33    34    35    2
    34    34    37    1
    35    37    38   ar
    36    38    39   ar
    37    39    40   ar
    38    40    41   ar
    39    41    42   ar
    40    42    43   ar
    41    43    44   ar
    42    44    45   ar
    43    45    46   ar
    44     8     9   ar
    45     9    10   ar
    46    20    21    1
    47    21    22    1
    48    18    13   ar
    49    10     5   ar
    50    22    15    1
    51    32    27   ar
    52    46    37   ar
    53    45    40   ar
    54     1     4    1
    55    33    36    1
@<TRIPOS>MOLECULE
*****
 50 55 0 0 0
SMALL
GASTEIGER

@<TRIPOS>ATOM
      1 N           1.7142    3.5035   25.2331 N.am    1  UNL1       -0.2803
      2 C           1.4964    2.1089   25.7406 C.2     1  UNL1        0.2508
      3 O           1.2794    0.9838   24.7726 O.2     1  UNL1       -0.2698
      4 H           1.8567    4.2419   25.8684 H       1  UNL1        0.1552
      5 C           1.7167    4.3121   20.8063 C.ar    1  UNL1       -0.0207
      6 C           2.9983    3.9710   21.5071 C.ar    1  UNL1       -0.0029
      7 C           2.9974    3.7015   22.9828 C.ar    1  UNL1        0.0144
      8 C           1.7150    3.7730   23.7575 C.ar    1  UNL1        0.0505
      9 C           0.4334    4.1141   23.0567 C.ar    1  UNL1        0.0144
     10 C           0.4342    4.3836   21.5811 C.ar    1  UNL1       -0.0029
     11 C           1.7175    4.5816   19.3308 C.3     1  UNL1        0.0437
     12 C           1.3589    3.4883   18.3684 C.3     1  UNL1        0.0771
     13 C           4.4135   -2.6422   18.9484 C.ar    1  UNL1        0.1721
     14 C           3.0898   -2.1527   19.4563 C.ar    1  UNL1        0.0356
     15 C           2.6570   -0.7425   19.1843 C.ar    1  UNL1       -0.0202
     16 C           3.5481    0.1783   18.4044 C.ar    1  UNL1       -0.0068
     17 C           4.8719   -0.3113   17.8965 C.ar    1  UNL1        0.0368
     18 C           5.3046   -1.7215   18.1684 C.ar    1  UNL1        0.1721
     19 C           3.1154    1.5885   18.1325 C.3     1  UNL1        0.0990
     20 N           1.7917    2.0780   18.6404 N.3     1  UNL1       -0.2683
     21 C           0.9006    1.1572   19.4203 C.3     1  UNL1        0.0771
     22 C           1.3333   -0.2530   19.6923 C.3     1  UNL1        0.0435
     23 C           3.8229   -5.1045   19.5300 C.3     1  UNL1        0.2526
     24 O           4.8463   -4.0525   19.2203 O.3     1  UNL1       -0.4684
     25 O           6.6284   -2.2110   17.6605 O.3     1  UNL1       -0.4684
     26 C           7.8235   -2.2180   18.5670 C.3     1  UNL1        0.2526
     27 C           1.4956    1.8394   27.2163 C.ar    1  UNL1        0.0703
     28 C           2.7902    1.6028   27.9361 C.ar    1  UNL1        0.0458
     29 C           2.7894    1.3333   29.4117 C.ar    1  UNL1        0.1726
     30 C           1.4942    1.3004   30.1674 C.ar    1  UNL1        0.1736
     31 C           0.1996    1.5371   29.4475 C.ar    1  UNL1        0.0549
     32 C           0.2004    1.8065   27.9720 C.ar    1  UNL1        0.0582
     33 N          -1.0942    2.0432   27.2521 N.am    1  UNL1       -0.2801
     34 C          -1.5016    3.4381   26.8805 C.2     1  UNL1        0.2510
     35 O          -0.6144    4.5965   27.2288 O.2     1  UNL1       -0.2698
     36 H          -1.6764    1.2829   27.0236 H       1  UNL1        0.1552
     37 C          -2.7961    3.6747   26.1607 C.ar    1  UNL1        0.0728
     38 C          -4.0105    4.1112   26.9252 C.ar    1  UNL1        0.1033
     39 N          -5.3051    4.3478   26.2054 N.ar    1  UNL1       -0.2437
     40 C          -5.3852    4.1480   24.7210 C.ar    1  UNL1        0.0813
     41 C          -6.6797    4.3846   24.0011 C.ar    1  UNL1        0.0191
     42 C          -6.7598    4.1848   22.5166 C.ar    1  UNL1        0.0015
     43 C          -5.5453    3.7483   21.7520 C.ar    1  UNL1        0.0001
     44 C          -4.2508    3.5117   22.4718 C.ar    1  UNL1        0.0015
     45 C          -4.1707    3.7115   23.9563 C.ar    1  UNL1        0.0178
     46 C          -2.8762    3.4749   24.6761 C.ar    1  UNL1        0.0076
     47 O           4.0840    1.0967   30.1315 O.3     1  UNL1       -0.4684
     48 C           4.4484   -0.2861   30.5844 C.3     1  UNL1        0.2526
     49 O           1.4934    1.0309   31.6430 O.3     1  UNL1       -0.4683
     50 C           1.6291    2.1670   32.6130 C.3     1  UNL1        0.2526
@<TRIPOS>BOND
     1    23    24    1
     2    24    13    1
     3    13    14   ar
     4    14    15   ar
     5    15    16   ar
     6    16    17   ar
     7    17    18   ar
     8    18    25    1
     9    25    26    1
    10    16    19    1
    11    19    20    1
    12    20    12    1
    13    12    11    1
    14    11     5    1
    15     5     6   ar
    16     6     7   ar
    17     7     8   ar
    18     8     1    1
    19     1     2   am
    20     2     3    2
    21     2    27    1
    22    27    28   ar
    23    28    29   ar
    24    29    47    1
    25    47    48    1
    26    29    30   ar
    27    30    49    1
    28    49    50    1
    29    30    31   ar
    30    31    32   ar
    31    32    33    1
    32    33    34   am
    33    34    35    2
    34    34    37    1
    35    37    38   ar
    36    38    39   ar
    37    39    40   ar
    38    40    41   ar
    39    41    42   ar
    40    42    43   ar
    41    43    44   ar
    42    44    45   ar
    43    45    46   ar
    44     8     9   ar
    45     9    10   ar
    46    20    21    1
    47    21    22    1
    48    18    13   ar
    49    10     5   ar
    50    22    15    1
    51    32    27   ar
    52    46    37   ar
    53    45    40   ar
    54     1     4    1
    55    33    36    1
@<TRIPOS>MOLECULE
*****
 50 55 0 0 0
SMALL
GASTEIGER

@<TRIPOS>ATOM
      1 N           2.1981   -0.2419   28.0396 N.am    1  UNL1       -0.2803
      2 C           3.6424    0.0920   28.2689 C.2     1  UNL1        0.2508
      3 O           4.1113    1.5121   28.1538 O.2     1  UNL1       -0.2698
      4 H           1.8903   -1.1740   28.1152 H       1  UNL1        0.1552
      5 C          -0.7281    3.0169   27.0065 C.ar    1  UNL1       -0.0207
      6 C          -0.2637    2.0623   25.9468 C.ar    1  UNL1       -0.0029
      7 C           0.7118    0.9760   26.2912 C.ar    1  UNL1        0.0144
      8 C           1.2227    0.8444   27.6953 C.ar    1  UNL1        0.0505
      9 C           0.7583    1.7989   28.7551 C.ar    1  UNL1        0.0144
     10 C          -0.2171    2.8852   28.4107 C.ar    1  UNL1       -0.0029
     11 C          -1.7035    4.1032   26.6622 C.3     1  UNL1        0.0437
     12 C          -3.0945    3.7512   26.2248 C.3     1  UNL1        0.0771
     13 C          -3.3468    3.6959   19.3558 C.ar    1  UNL1        0.1721
     14 C          -4.4053    3.4107   20.3796 C.ar    1  UNL1        0.0356
     15 C          -4.0776    3.4958   21.8409 C.ar    1  UNL1       -0.0202
     16 C          -2.6914    3.8661   22.2784 C.ar    1  UNL1       -0.0068
     17 C          -1.6329    4.1512   21.2544 C.ar    1  UNL1        0.0368
     18 C          -1.9606    4.0661   19.7932 C.ar    1  UNL1        0.1721
     19 C          -2.3637    3.9512   23.7396 C.3     1  UNL1        0.0990
     20 N          -3.4222    3.6661   24.7634 N.3     1  UNL1       -0.2683
     21 C          -4.8084    3.2958   24.3260 C.3     1  UNL1        0.0771
     22 C          -5.1361    3.2107   22.8648 C.3     1  UNL1        0.0435
     23 C          -5.0307    4.0241   17.4046 C.3     1  UNL1        0.2526
     24 O          -3.6746    3.6107   17.8944 O.3     1  UNL1       -0.4684
     25 O          -0.9021    4.3512   18.7693 O.3     1  UNL1       -0.4684
     26 C          -0.2168    3.2188   18.0636 C.3     1  UNL1        0.2526
     27 C           4.6178   -0.9944   28.6132 C.ar    1  UNL1        0.0703
     28 C           5.2716   -1.0151   29.9631 C.ar    1  UNL1        0.0458
     29 C           6.2469   -2.1013   30.3075 C.ar    1  UNL1        0.1726
     30 C           6.5685   -3.1669   29.3020 C.ar    1  UNL1        0.1736
     31 C           5.9147   -3.1463   27.9522 C.ar    1  UNL1        0.0549
     32 C           4.9394   -2.0600   27.6078 C.ar    1  UNL1        0.0582
     33 N           4.2856   -2.0393   26.2579 N.am    1  UNL1       -0.2801
     34 C           4.7967   -1.1171   25.1910 C.2     1  UNL1        0.2510
     35 O           5.9617   -0.2155   25.4740 O.2     1  UNL1       -0.2698
     36 H           3.5210   -2.6310   26.0722 H       1  UNL1        0.1552
     37 C           4.1429   -1.0964   23.8412 C.ar    1  UNL1        0.0728
     38 C           4.6523   -1.9876   22.7474 C.ar    1  UNL1        0.1033
     39 N           3.9985   -1.9669   21.3975 N.ar    1  UNL1       -0.2437
     40 C           2.8354   -1.0551   21.1414 C.ar    1  UNL1        0.0813
     41 C           2.1816   -1.0344   19.7916 C.ar    1  UNL1        0.0191
     42 C           1.0184   -0.1226   19.5355 C.ar    1  UNL1        0.0015
     43 C           0.5090    0.7685   20.6293 C.ar    1  UNL1        0.0001
     44 C           1.1627    0.7479   21.9791 C.ar    1  UNL1        0.0015
     45 C           2.3259   -0.1639   22.2352 C.ar    1  UNL1        0.0178
     46 C           2.9797   -0.1846   23.5851 C.ar    1  UNL1        0.0076
     47 O           6.9007   -2.1220   31.6574 O.3     1  UNL1       -0.4684
     48 C           6.1221   -1.7179   32.8741 C.3     1  UNL1        0.2526
     49 O           7.5439   -4.2533   29.6464 O.3     1  UNL1       -0.4683
     50 C           7.0883   -5.4506   30.4267 C.3     1  UNL1        0.2526
@<TRIPOS>BOND
     1    23    24    1
     2    24    13    1
     3    13    14   ar
     4    14    15   ar
     5    15    16   ar
     6    16    17   ar
     7    17    18   ar
     8    18    25    1
     9    25    26    1
    10    16    19    1
    11    19    20    1
    12    20    12    1
    13    12    11    1
    14    11     5    1
    15     5     6   ar
    16     6     7   ar
    17     7     8   ar
    18     8     1    1
    19     1     2   am
    20     2     3    2
    21     2    27    1
    22    27    28   ar
    23    28    29   ar
    24    29    47    1
    25    47    48    1
    26    29    30   ar
    27    30    49    1
    28    49    50    1
    29    30    31   ar
    30    31    32   ar
    31    32    33    1
    32    33    34   am
    33    34    35    2
    34    34    37    1
    35    37    38   ar
    36    38    39   ar
    37    39    40   ar
    38    40    41   ar
    39    41    42   ar
    40    42    43   ar
    41    43    44   ar
    42    44    45   ar
    43    45    46   ar
    44     8     9   ar
    45     9    10   ar
    46    20    21    1
    47    21    22    1
    48    18    13   ar
    49    10     5   ar
    50    22    15    1
    51    32    27   ar
    52    46    37   ar
    53    45    40   ar
    54     1     4    1
    55    33    36    1
@<TRIPOS>MOLECULE
*****
 50 55 0 0 0
SMALL
GASTEIGER

@<TRIPOS>ATOM
      1 N           1.5657    0.3055   18.7786 N.am    1  UNL1       -0.2803
      2 C           1.4355    1.6363   19.4582 C.2     1  UNL1        0.2508
      3 O           2.5674    2.1701   20.2851 O.2     1  UNL1       -0.2698
      4 H           0.8228   -0.0449   18.2359 H       1  UNL1        0.1552
      5 C           5.3523   -2.0855   19.2200 C.ar    1  UNL1       -0.0207
      6 C           4.2525   -2.2292   20.2299 C.ar    1  UNL1       -0.0029
      7 C           2.9903   -1.4322   20.0827 C.ar    1  UNL1        0.0144
      8 C           2.8279   -0.4915   18.9257 C.ar    1  UNL1        0.0505
      9 C           3.9277   -0.3478   17.9158 C.ar    1  UNL1        0.0144
     10 C           5.1898   -1.1448   18.0630 C.ar    1  UNL1       -0.0029
     11 C           6.6145   -2.8825   19.3671 C.3     1  UNL1        0.0437
     12 C           7.5139   -2.6521   20.5452 C.3     1  UNL1        0.0771
     13 C           7.6832   -6.9050   25.9429 C.ar    1  UNL1        0.1721
     14 C           8.3298   -7.0052   24.5932 C.ar    1  UNL1        0.0356
     15 C           8.1258   -5.9169   23.5811 C.ar    1  UNL1       -0.0202
     16 C           7.2753   -4.7284   23.9189 C.ar    1  UNL1       -0.0068
     17 C           6.6287   -4.6283   25.2688 C.ar    1  UNL1        0.0368
     18 C           6.8326   -5.7165   26.2807 C.ar    1  UNL1        0.1721
     19 C           7.0713   -3.6402   22.9070 C.3     1  UNL1        0.0990
     20 N           7.7179   -3.7404   21.5573 N.3     1  UNL1       -0.2683
     21 C           8.5684   -4.9289   21.2195 C.3     1  UNL1        0.0771
     22 C           8.7724   -6.0171   22.2314 C.3     1  UNL1        0.0435
     23 C           8.8587   -7.7979   28.0809 C.3     1  UNL1        0.2526
     24 O           7.8871   -7.9933   26.9549 O.3     1  UNL1       -0.4684
     25 O           6.1860   -5.6164   27.6305 O.3     1  UNL1       -0.4684
     26 C           6.7317   -4.6661   28.6549 C.3     1  UNL1        0.2526
     27 C           0.1732    2.4333   19.3111 C.ar    1  UNL1        0.0703
     28 C          -0.1758    3.0477   17.9880 C.ar    1  UNL1        0.0458
     29 C          -1.4380    3.8447   17.8407 C.ar    1  UNL1        0.1726
     30 C          -2.3512    4.0271   19.0166 C.ar    1  UNL1        0.1736
     31 C          -2.0022    3.4127   20.3397 C.ar    1  UNL1        0.0549
     32 C          -0.7400    2.6157   20.4870 C.ar    1  UNL1        0.0582
     33 N          -0.3910    2.0012   21.8101 N.am    1  UNL1       -0.2801
     34 C           0.3548    2.8024   22.8357 C.2     1  UNL1        0.2510
     35 O           0.7516    4.2181   22.5382 O.2     1  UNL1       -0.2698
     36 H          -0.6514    1.0721   22.0053 H       1  UNL1        0.1552
     37 C           0.7038    2.1879   24.1588 C.ar    1  UNL1        0.0728
     38 C           2.0994    1.7014   24.4150 C.ar    1  UNL1        0.1033
     39 N           2.4484    1.0869   25.7381 N.ar    1  UNL1       -0.2437
     40 C           1.4018    0.9589   26.8050 C.ar    1  UNL1        0.0813
     41 C           1.7508    0.3444   28.1281 C.ar    1  UNL1        0.0191
     42 C           0.7041    0.2164   29.1950 C.ar    1  UNL1        0.0015
     43 C          -0.6914    0.7029   28.9388 C.ar    1  UNL1        0.0001
     44 C          -1.0404    1.3173   27.6157 C.ar    1  UNL1        0.0015
     45 C           0.0061    1.4454   26.5488 C.ar    1  UNL1        0.0178
     46 C          -0.3429    2.0599   25.2257 C.ar    1  UNL1        0.0076
     47 O          -1.7870    4.4592   16.5176 O.3     1  UNL1       -0.4684
     48 C          -1.1731    5.7664   16.1126 C.3     1  UNL1        0.2526
     49 O          -3.6134    4.8241   18.8695 O.3     1  UNL1       -0.4683
     50 C          -3.5814    6.3155   19.0267 C.3     1  UNL1        0.2526
@<TRIPOS>BOND
     1    23    24    1
     2    24    13    1
     3    13    14   ar
     4    14    15   ar
     5    15    16   ar
     6    16    17   ar
     7    17    18   ar
     8    18    25    1
     9    25    26    1
    10    16    19    1
    11    19    20    1
    12    20    12    1
    13    12    11    1
    14    11     5    1
    15     5     6   ar
    16     6     7   ar
    17     7     8   ar
    18     8     1    1
    19     1     2   am
    20     2     3    2
    21     2    27    1
    22    27    28   ar
    23    28    29   ar
    24    29    47    1
    25    47    48    1
    26    29    30   ar
    27    30    49    1
    28    49    50    1
    29    30    31   ar
    30    31    32   ar
    31    32    33    1
    32    33    34   am
    33    34    35    2
    34    34    37    1
    35    37    38   ar
    36    38    39   ar
    37    39    40   ar
    38    40    41   ar
    39    41    42   ar
    40    42    43   ar
    41    43    44   ar
    42    44    45   ar
    43    45    46   ar
    44     8     9   ar
    45     9    10   ar
    46    20    21    1
    47    21    22    1
    48    18    13   ar
    49    10     5   ar
    50    22    15    1
    51    32    27   ar
    52    46    37   ar
    53    45    40   ar
    54     1     4    1
    55    33    36    1
@<TRIPOS>MOLECULE
*****
 50 55 0 0 0
SMALL
GASTEIGER

@<TRIPOS>ATOM
      1 N           2.8738   -0.3051   29.4537 N.am    1  UNL1       -0.2803
      2 C           4.0068   -0.7881   28.5976 C.2     1  UNL1        0.2508
      3 O           4.0120   -0.4969   27.1261 O.2     1  UNL1       -0.2698
      4 H           2.8704   -0.4963   30.4195 H       1  UNL1        0.1552
      5 C          -0.5098    2.0174   27.6078 C.ar    1  UNL1       -0.0207
      6 C           0.8389    2.6546   27.7657 C.ar    1  UNL1       -0.0029
      7 C           1.9668    1.8804   28.3811 C.ar    1  UNL1        0.0144
      8 C           1.7459    0.4690   28.8384 C.ar    1  UNL1        0.0505
      9 C           0.3972   -0.1682   28.6805 C.ar    1  UNL1        0.0144
     10 C          -0.7306    0.6060   28.0652 C.ar    1  UNL1       -0.0029
     11 C          -1.6376    2.7915   26.9925 C.3     1  UNL1        0.0437
     12 C          -1.3857    3.6615   25.7968 C.3     1  UNL1        0.0771
     13 C          -4.5231    3.5618   19.6815 C.ar    1  UNL1        0.1721
     14 C          -5.0707    3.4027   21.0688 C.ar    1  UNL1        0.0356
     15 C          -4.1495    3.4674   22.2509 C.ar    1  UNL1       -0.0202
     16 C          -2.6805    3.6912   22.0455 C.ar    1  UNL1       -0.0068
     17 C          -2.1329    3.8503   20.6581 C.ar    1  UNL1        0.0368
     18 C          -3.0542    3.7856   19.4761 C.ar    1  UNL1        0.1721
     19 C          -1.7593    3.7559   23.2274 C.3     1  UNL1        0.0990
     20 N          -2.3069    3.5968   24.6147 N.3     1  UNL1       -0.2683
     21 C          -3.7759    3.3730   24.8201 C.3     1  UNL1        0.0771
     22 C          -4.6971    3.3083   23.6382 C.3     1  UNL1        0.0435
     23 C          -6.9261    3.6234   18.6957 C.3     1  UNL1        0.2526
     24 O          -5.4444    3.4971   18.4995 O.3     1  UNL1       -0.4684
     25 O          -2.5065    3.9447   18.0887 O.3     1  UNL1       -0.4684
     26 C          -1.9719    5.2728   17.6412 C.3     1  UNL1        0.2526
     27 C           5.1347   -1.5623   29.2129 C.ar    1  UNL1        0.0703
     28 C           5.5736   -1.2613   30.6154 C.ar    1  UNL1        0.0458
     29 C           6.7014   -2.0354   31.2307 C.ar    1  UNL1        0.1726
     30 C           7.3903   -3.1105   30.4437 C.ar    1  UNL1        0.1736
     31 C           6.9514   -3.4115   29.0413 C.ar    1  UNL1        0.0549
     32 C           5.8236   -2.6374   28.4259 C.ar    1  UNL1        0.0582
     33 N           5.3847   -2.9384   27.0235 N.am    1  UNL1       -0.2801
     34 C           6.2417   -2.5242   25.8642 C.2     1  UNL1        0.2510
     35 O           7.5377   -1.8090   26.1073 O.2     1  UNL1       -0.2698
     36 H           4.5341   -3.4078   26.8639 H       1  UNL1        0.1552
     37 C           5.8028   -2.8252   24.4618 C.ar    1  UNL1        0.0728
     38 C           6.3885   -3.9945   23.7272 C.ar    1  UNL1        0.1033
     39 N           5.9497   -4.2955   22.3248 N.ar    1  UNL1       -0.2437
     40 C           4.9250   -3.4272   21.6569 C.ar    1  UNL1        0.0813
     41 C           4.4861   -3.7282   20.2545 C.ar    1  UNL1        0.0191
     42 C           3.4614   -2.8598   19.5866 C.ar    1  UNL1        0.0015
     43 C           2.8757   -1.6905   20.3212 C.ar    1  UNL1        0.0001
     44 C           3.3146   -1.3895   21.7236 C.ar    1  UNL1        0.0015
     45 C           4.3392   -2.2578   22.3915 C.ar    1  UNL1        0.0178
     46 C           4.7781   -1.9568   23.7939 C.ar    1  UNL1        0.0076
     47 O           7.1403   -1.7344   32.6331 O.3     1  UNL1       -0.4684
     48 C           8.1062   -0.6167   32.8932 C.3     1  UNL1        0.2526
     49 O           8.5182   -3.8847   31.0591 O.3     1  UNL1       -0.4683
     50 C           8.5294   -5.3827   30.9822 C.3     1  UNL1        0.2526
@<TRIPOS>BOND
     1    23    24    1
     2    24    13    1
     3    13    14   ar
     4    14    15   ar
     5    15    16   ar
     6    16    17   ar
     7    17    18   ar
     8    18    25    1
     9    25    26    1
    10    16    19    1
    11    19    20    1
    12    20    12    1
    13    12    11    1
    14    11     5    1
    15     5     6   ar
    16     6     7   ar
    17     7     8   ar
    18     8     1    1
    19     1     2   am
    20     2     3    2
    21     2    27    1
    22    27    28   ar
    23    28    29   ar
    24    29    47    1
    25    47    48    1
    26    29    30   ar
    27    30    49    1
    28    49    50    1
    29    30    31   ar
    30    31    32   ar
    31    32    33    1
    32    33    34   am
    33    34    35    2
    34    34    37    1
    35    37    38   ar
    36    38    39   ar
    37    39    40   ar
    38    40    41   ar
    39    41    42   ar
    40    42    43   ar
    41    43    44   ar
    42    44    45   ar
    43    45    46   ar
    44     8     9   ar
    45     9    10   ar
    46    20    21    1
    47    21    22    1
    48    18    13   ar
    49    10     5   ar
    50    22    15    1
    51    32    27   ar
    52    46    37   ar
    53    45    40   ar
    54     1     4    1
    55    33    36    1
@<TRIPOS>MOLECULE
*****
 50 55 0 0 0
SMALL
GASTEIGER

@<TRIPOS>ATOM
      1 N           2.1222    2.1936   30.3509 N.am    1  UNL1       -0.2803
      2 C           2.3795    1.0444   31.2800 C.2     1  UNL1        0.2508
      3 O           2.1503   -0.3627   30.8138 O.2     1  UNL1       -0.2698
      4 H           2.2727    3.1172   30.6569 H       1  UNL1        0.1552
      5 C           0.6623    1.4198   26.1653 C.ar    1  UNL1       -0.0207
      6 C          -0.3232    1.6276   27.2769 C.ar    1  UNL1       -0.0029
      7 C           0.1635    1.8856   28.6722 C.ar    1  UNL1        0.0144
      8 C           1.6356    1.9357   28.9557 C.ar    1  UNL1        0.0505
      9 C           2.6210    1.7278   27.8441 C.ar    1  UNL1        0.0144
     10 C           2.1344    1.4698   26.4489 C.ar    1  UNL1       -0.0029
     11 C           0.1756    1.1618   24.7701 C.3     1  UNL1        0.0437
     12 C           0.2654    2.2416   23.7328 C.3     1  UNL1        0.0771
     13 C           3.7471   -0.0888   18.2833 C.ar    1  UNL1        0.1721
     14 C           3.3837    1.3078   18.6925 C.ar    1  UNL1        0.0356
     15 C           2.6041    1.5413   19.9526 C.ar    1  UNL1       -0.0202
     16 C           2.1880    0.3781   20.8034 C.ar    1  UNL1       -0.0068
     17 C           2.5514   -1.0185   20.3941 C.ar    1  UNL1        0.0368
     18 C           3.3309   -1.2519   19.1341 C.ar    1  UNL1        0.1721
     19 C           1.4084    0.6116   22.0635 C.3     1  UNL1        0.0990
     20 N           1.0450    2.0081   22.4727 N.3     1  UNL1       -0.2683
     21 C           1.4612    3.1713   21.6219 C.3     1  UNL1        0.0771
     22 C           2.2408    2.9379   20.3618 C.3     1  UNL1        0.0435
     23 C           5.8281    0.3906   16.8034 C.3     1  UNL1        0.2526
     24 O           4.5267   -0.3222   17.0232 O.3     1  UNL1       -0.4684
     25 O           3.6944   -2.6485   18.7248 O.3     1  UNL1       -0.4684
     26 C           4.9140   -3.3053   19.3003 C.3     1  UNL1        0.2526
     27 C           2.8662    1.3024   32.6752 C.ar    1  UNL1        0.0703
     28 C           2.0497    2.1440   33.6107 C.ar    1  UNL1        0.0458
     29 C           2.5363    2.4021   35.0059 C.ar    1  UNL1        0.1726
     30 C           3.8394    1.8185   35.4656 C.ar    1  UNL1        0.1736
     31 C           4.6558    0.9769   34.5302 C.ar    1  UNL1        0.0549
     32 C           4.1693    0.7188   33.1350 C.ar    1  UNL1        0.0582
     33 N           4.9857   -0.1228   32.1995 N.am    1  UNL1       -0.2801
     34 C           4.9695   -1.6172   32.3272 C.2     1  UNL1        0.2510
     35 O           4.1367   -2.2701   33.3904 O.2     1  UNL1       -0.2698
     36 H           5.5323    0.3058   31.5018 H       1  UNL1        0.1552
     37 C           5.7859   -2.4588   31.3918 C.ar    1  UNL1        0.0728
     38 C           5.9658   -2.0345   29.9643 C.ar    1  UNL1        0.1033
     39 N           6.7823   -2.8761   29.0289 N.ar    1  UNL1       -0.2437
     40 C           7.4189   -4.1420   29.5209 C.ar    1  UNL1        0.0813
     41 C           8.2354   -4.9836   28.5854 C.ar    1  UNL1        0.0191
     42 C           8.8720   -6.2496   29.0774 C.ar    1  UNL1        0.0015
     43 C           8.6922   -6.6739   30.5048 C.ar    1  UNL1        0.0001
     44 C           7.8757   -5.8323   31.4403 C.ar    1  UNL1        0.0015
     45 C           7.2391   -4.5664   30.9483 C.ar    1  UNL1        0.0178
     46 C           6.4226   -3.7248   31.8838 C.ar    1  UNL1        0.0076
     47 O           1.7198    3.2437   35.9413 O.3     1  UNL1       -0.4684
     48 C           1.5697    4.7147   35.6895 C.3     1  UNL1        0.2526
     49 O           4.3260    2.0765   36.8609 O.3     1  UNL1       -0.4683
     50 C           3.8430    1.2205   37.9940 C.3     1  UNL1        0.2526
@<TRIPOS>BOND
     1    23    24    1
     2    24    13    1
     3    13    14   ar
     4    14    15   ar
     5    15    16   ar
     6    16    17   ar
     7    17    18   ar
     8    18    25    1
     9    25    26    1
    10    16    19    1
    11    19    20    1
    12    20    12    1
    13    12    11    1
    14    11     5    1
    15     5     6   ar
    16     6     7   ar
    17     7     8   ar
    18     8     1    1
    19     1     2   am
    20     2     3    2
    21     2    27    1
    22    27    28   ar
    23    28    29   ar
    24    29    47    1
    25    47    48    1
    26    29    30   ar
    27    30    49    1
    28    49    50    1
    29    30    31   ar
    30    31    32   ar
    31    32    33    1
    32    33    34   am
    33    34    35    2
    34    34    37    1
    35    37    38   ar
    36    38    39   ar
    37    39    40   ar
    38    40    41   ar
    39    41    42   ar
    40    42    43   ar
    41    43    44   ar
    42    44    45   ar
    43    45    46   ar
    44     8     9   ar
    45     9    10   ar
    46    20    21    1
    47    21    22    1
    48    18    13   ar
    49    10     5   ar
    50    22    15    1
    51    32    27   ar
    52    46    37   ar
    53    45    40   ar
    54     1     4    1
    55    33    36    1
@<TRIPOS>MOLECULE
*****
 50 55 0 0 0
SMALL
GASTEIGER

@<TRIPOS>ATOM
      1 N           2.1611    1.9870   28.4993 N.am    1  UNL1       -0.2803
      2 C           1.4434    1.2834   29.6127 C.2     1  UNL1        0.2508
      3 O           0.0637    0.7389   29.3898 O.2     1  UNL1       -0.2698
      4 H           3.0667    2.3444   28.6456 H       1  UNL1        0.1552
      5 C           0.1746    2.4647   24.4898 C.ar    1  UNL1       -0.0207
      6 C           0.8563    1.1753   24.8402 C.ar    1  UNL1       -0.0029
      7 C           1.5184    1.0161   26.1768 C.ar    1  UNL1        0.0144
      8 C           1.4989    2.1463   27.1628 C.ar    1  UNL1        0.0505
      9 C           0.8173    3.4357   26.8124 C.ar    1  UNL1        0.0144
     10 C           0.1551    3.5949   25.4759 C.ar    1  UNL1       -0.0029
     11 C          -0.4875    2.6240   23.1533 C.3     1  UNL1        0.0437
     12 C           0.3464    2.8120   21.9208 C.3     1  UNL1        0.0771
     13 C           4.7210   -1.8822   19.4554 C.ar    1  UNL1        0.1721
     14 C           3.2218   -1.8657   19.5018 C.ar    1  UNL1        0.0356
     15 C           2.5029   -0.6962   20.1065 C.ar    1  UNL1       -0.0202
     16 C           3.2833    0.4567   20.6650 C.ar    1  UNL1       -0.0068
     17 C           4.7825    0.4402   20.6186 C.ar    1  UNL1        0.0368
     18 C           5.5014   -0.7292   20.0139 C.ar    1  UNL1        0.1721
     19 C           2.5645    1.6261   21.2697 C.3     1  UNL1        0.0990
     20 N           1.0653    1.6426   21.3160 N.3     1  UNL1       -0.2683
     21 C           0.2850    0.4896   20.7576 C.3     1  UNL1        0.0771
     22 C           1.0038   -0.6798   20.1529 C.3     1  UNL1        0.0435
     23 C           5.0135   -4.4498   19.1873 C.3     1  UNL1        0.2526
     24 O           5.4399   -3.0516   18.8507 O.3     1  UNL1       -0.4684
     25 O           7.0006   -0.7458   19.9675 O.3     1  UNL1       -0.4684
     26 C           7.7130   -0.5383   18.6638 C.3     1  UNL1        0.2526
     27 C           2.1056    1.1241   30.9493 C.ar    1  UNL1        0.0703
     28 C           1.6745    1.9761   32.1061 C.ar    1  UNL1        0.0458
     29 C           2.3366    1.8169   33.4426 C.ar    1  UNL1        0.1726
     30 C           3.4299    0.8058   33.6222 C.ar    1  UNL1        0.1736
     31 C           3.8611   -0.0461   32.4653 C.ar    1  UNL1        0.0549
     32 C           3.1990    0.1131   31.1288 C.ar    1  UNL1        0.0582
     33 N           3.6301   -0.7389   29.9720 N.am    1  UNL1       -0.2801
     34 C           4.6291   -0.2128   28.9845 C.2     1  UNL1        0.2510
     35 O           5.1971    1.1652   29.1538 O.2     1  UNL1       -0.2698
     36 H           3.2574   -1.6433   29.8608 H       1  UNL1        0.1552
     37 C           5.0603   -1.0647   27.8276 C.ar    1  UNL1        0.0728
     38 C           6.2287   -1.9937   27.9748 C.ar    1  UNL1        0.1033
     39 N           6.6599   -2.8456   26.8179 N.ar    1  UNL1       -0.2437
     40 C           5.9227   -2.7685   25.5139 C.ar    1  UNL1        0.0813
     41 C           6.3538   -3.6205   24.3570 C.ar    1  UNL1        0.0191
     42 C           5.6165   -3.5433   23.0530 C.ar    1  UNL1        0.0015
     43 C           4.4481   -2.6143   22.9058 C.ar    1  UNL1        0.0001
     44 C           4.0169   -1.7624   24.0627 C.ar    1  UNL1        0.0015
     45 C           4.7542   -1.8395   25.3667 C.ar    1  UNL1        0.0178
     46 C           4.3230   -0.9876   26.5236 C.ar    1  UNL1        0.0076
     47 O           1.9055    2.6688   34.5994 O.3     1  UNL1       -0.4684
     48 C           2.1269    4.1519   34.5623 C.3     1  UNL1        0.2526
     49 O           4.0922    0.6466   34.9587 O.3     1  UNL1       -0.4683
     50 C           4.6968   -0.6710   35.3439 C.3     1  UNL1        0.2526
@<TRIPOS>BOND
     1    23    24    1
     2    24    13    1
     3    13    14   ar
     4    14    15   ar
     5    15    16   ar
     6    16    17   ar
     7    17    18   ar
     8    18    25    1
     9    25    26    1
    10    16    19    1
    11    19    20    1
    12    20    12    1
    13    12    11    1
    14    11     5    1
    15     5     6   ar
    16     6     7   ar
    17     7     8   ar
    18     8     1    1
    19     1     2   am
    20     2     3    2
    21     2    27    1
    22    27    28   ar
    23    28    29   ar
    24    29    47    1
    25    47    48    1
    26    29    30   ar
    27    30    49    1
    28    49    50    1
    29    30    31   ar
    30    31    32   ar
    31    32    33    1
    32    33    34   am
    33    34    35    2
    34    34    37    1
    35    37    38   ar
    36    38    39   ar
    37    39    40   ar
    38    40    41   ar
    39    41    42   ar
    40    42    43   ar
    41    43    44   ar
    42    44    45   ar
    43    45    46   ar
    44     8     9   ar
    45     9    10   ar
    46    20    21    1
    47    21    22    1
    48    18    13   ar
    49    10     5   ar
    50    22    15    1
    51    32    27   ar
    52    46    37   ar
    53    45    40   ar
    54     1     4    1
    55    33    36    1
