@<TRIPOS>MOLECULE
*****
 28 30 0 0 0
SMALL
GASTEIGER

@<TRIPOS>ATOM
      1 N          -8.1728  -17.2000   22.5955 N.pl3   1  UNL1       -0.3034
      2 C          -4.2219  -20.1672   20.7336 C.2     1  UNL1        0.2257
      3 O          -4.0229  -21.2400   19.7043 O.2     1  UNL1       -0.2749
      4 N          -5.5826  -19.5717   20.9428 N.am    1  UNL1       -0.2778
      5 C          -6.8321  -19.9458   20.2019 C.3     1  UNL1        0.0952
      6 C          -7.9545  -19.1029   20.7309 C.3     1  UNL1        0.0430
      7 C          -7.3986  -18.2079   21.7986 C.3     1  UNL1        0.0946
      8 C          -5.9327  -18.4977   21.9296 C.3     1  UNL1        0.1131
      9 C          -2.0713  -18.7279   20.9648 C.3     1  UNL1        0.0101
     10 C          -3.0601  -19.6899   21.5536 C.3     1  UNL1        0.0853
     11 C          -9.5827  -17.4968   23.0128 C.ar    1  UNL1        0.0490
     12 C          -9.8599  -18.6072   23.9824 C.ar    1  UNL1        0.0153
     13 C         -11.2698  -18.9040   24.3997 C.ar    1  UNL1        0.0124
     14 C         -12.4024  -18.0903   23.8475 C.ar    1  UNL1        0.0791
     15 C         -12.1252  -16.9798   22.8779 C.ar    1  UNL1        0.0685
     16 CL        -13.2579  -16.1661   22.3257 Cl      1  UNL1       -0.0815
     17 C         -10.7154  -16.6830   22.4606 C.ar    1  UNL1        0.0266
     18 C         -13.8123  -18.3871   24.2648 C.1     1  UNL1        0.1013
     19 N         -15.2222  -18.6838   24.6822 N.1     1  UNL1       -0.1908
     20 C          -7.5371  -15.8955   22.9750 C.3     1  UNL1        0.1186
     21 C          -7.1341  -15.6434   24.3977 C.ar    1  UNL1        0.0090
     22 C          -8.1830  -15.4111   25.4444 C.ar    1  UNL1        0.0096
     23 C          -7.7800  -15.1589   26.8671 C.ar    1  UNL1        0.0575
     24 CL         -8.8290  -14.9266   27.9139 Cl      1  UNL1       -0.0823
     25 C          -6.3280  -15.1392   27.2430 C.ar    1  UNL1        0.0122
     26 C          -5.2790  -15.3715   26.1963 C.ar    1  UNL1        0.0120
     27 C          -5.6820  -15.6236   24.7736 C.ar    1  UNL1        0.0553
     28 CL         -4.6331  -15.8560   23.7269 Cl      1  UNL1       -0.0825
@<TRIPOS>BOND
     1     9    10    1
     2    10     2    1
     3     2     3    2
     4     2     4   am
     5     4     5    1
     6     5     6    1
     7     6     7    1
     8     7     1    1
     9     1    20    1
    10    20    21    1
    11    21    22   ar
    12    22    23   ar
    13    23    24    1
    14    23    25   ar
    15    25    26   ar
    16    26    27   ar
    17    27    28    1
    18     1    11    1
    19    11    12   ar
    20    12    13   ar
    21    13    14   ar
    22    14    18    1
    23    18    19    3
    24    14    15   ar
    25    15    16    1
    26    15    17   ar
    27     7     8    1
    28     8     4    1
    29    27    21   ar
    30    17    11   ar
@<TRIPOS>MOLECULE
*****
 28 30 0 0 0
SMALL
GASTEIGER

@<TRIPOS>ATOM
      1 N          -7.9940  -18.9855   21.8485 N.pl3   1  UNL1       -0.3034
      2 C          -2.7470  -19.4724   21.5126 C.2     1  UNL1        0.2257
      3 O          -1.7507  -20.3088   20.7658 O.2     1  UNL1       -0.2749
      4 N          -4.2160  -19.6796   21.2912 N.am    1  UNL1       -0.2778
      5 C          -4.8349  -20.6796   20.3600 C.3     1  UNL1        0.0952
      6 C          -6.3255  -20.5413   20.4554 C.3     1  UNL1        0.0430
      7 C          -6.6277  -19.4558   21.4456 C.3     1  UNL1        0.0946
      8 C          -5.3241  -18.9233   21.9622 C.3     1  UNL1        0.1131
      9 C          -2.1947  -16.9925   22.0559 C.3     1  UNL1        0.0101
     10 C          -2.2743  -18.4288   22.4808 C.3     1  UNL1        0.0853
     11 C          -8.1605  -18.1126   23.0570 C.ar    1  UNL1        0.0490
     12 C          -8.9161  -18.6191   24.2496 C.ar    1  UNL1        0.0153
     13 C          -9.0827  -17.7462   25.4581 C.ar    1  UNL1        0.0124
     14 C          -8.4937  -16.3668   25.4738 C.ar    1  UNL1        0.0791
     15 C          -7.7380  -15.8602   24.2811 C.ar    1  UNL1        0.0685
     16 CL         -7.1490  -14.4809   24.2968 Cl      1  UNL1       -0.0815
     17 C          -7.5715  -16.7331   23.0727 C.ar    1  UNL1        0.0266
     18 C          -8.6602  -15.4939   26.6822 C.1     1  UNL1        0.1013
     19 N          -8.8268  -14.6210   27.8907 N.1     1  UNL1       -0.1908
     20 C          -9.1936  -19.3881   21.0430 C.3     1  UNL1        0.1186
     21 C         -10.4043  -18.5033   21.0072 C.ar    1  UNL1        0.0090
     22 C         -10.4878  -17.3866   20.0092 C.ar    1  UNL1        0.0096
     23 C         -11.6985  -16.5018   19.9733 C.ar    1  UNL1        0.0575
     24 CL        -11.7821  -15.3851   18.9753 Cl      1  UNL1       -0.0823
     25 C         -12.8257  -16.7336   20.9355 C.ar    1  UNL1        0.0122
     26 C         -12.7421  -17.8503   21.9335 C.ar    1  UNL1        0.0120
     27 C         -11.5314  -18.7351   21.9694 C.ar    1  UNL1        0.0553
     28 CL        -11.4479  -19.8518   22.9674 Cl      1  UNL1       -0.0825
@<TRIPOS>BOND
     1     9    10    1
     2    10     2    1
     3     2     3    2
     4     2     4   am
     5     4     5    1
     6     5     6    1
     7     6     7    1
     8     7     1    1
     9     1    20    1
    10    20    21    1
    11    21    22   ar
    12    22    23   ar
    13    23    24    1
    14    23    25   ar
    15    25    26   ar
    16    26    27   ar
    17    27    28    1
    18     1    11    1
    19    11    12   ar
    20    12    13   ar
    21    13    14   ar
    22    14    18    1
    23    18    19    3
    24    14    15   ar
    25    15    16    1
    26    15    17   ar
    27     7     8    1
    28     8     4    1
    29    27    21   ar
    30    17    11   ar
