@<TRIPOS>MOLECULE
*****
 17 18 0 0 0
SMALL
GASTEIGER

@<TRIPOS>ATOM
      1 C          -7.8493  -18.4950   22.5507 C.2     1  UNL1        0.0435
      2 C          -7.2110  -19.7703   22.0857 C.2     1  UNL1        0.0034
      3 C          -5.7859  -19.7684   21.6173 C.ar    1  UNL1        0.0009
      4 C          -5.3926  -20.5651   20.4088 C.ar    1  UNL1        0.0001
      5 C          -3.9676  -20.5632   19.9405 C.ar    1  UNL1        0.0009
      6 C          -2.9359  -19.7645   20.6807 C.ar    1  UNL1        0.0114
      7 C          -3.3293  -18.9678   21.8892 C.ar    1  UNL1        0.0577
      8 CL         -2.2976  -18.1692   22.6294 Cl      1  UNL1       -0.0822
      9 C          -4.7542  -18.9697   22.3575 C.ar    1  UNL1        0.0114
     10 O          -9.6093  -18.9780   24.3998 O.2     1  UNL1       -0.2850
     11 C          -9.2743  -18.4969   23.0191 C.2     1  UNL1        0.2111
     12 C         -10.3643  -18.0178   22.1068 C.ar    1  UNL1        0.0961
     13 C         -11.8367  -18.0715   22.3881 C.ar    1  UNL1        0.0218
     14 C         -12.5556  -17.4877   21.2081 C.ar    1  UNL1        0.0200
     15 C         -11.5275  -17.0732   20.1975 C.ar    1  UNL1        0.0725
     16 N         -10.1732  -17.4009   20.7529 N.ar    1  UNL1       -0.3495
     17 H          -9.3104  -17.2393   20.3071 H       1  UNL1        0.1661
@<TRIPOS>BOND
     1    10    11    2
     2    11     1    1
     3     1     2    2
     4     2     3    1
     5     3     4   ar
     6     4     5   ar
     7     5     6   ar
     8     6     7   ar
     9     7     8    1
    10     7     9   ar
    11    11    12    1
    12    12    13   ar
    13    13    14   ar
    14    14    15   ar
    15    15    16   ar
    16     9     3   ar
    17    16    12   ar
    18    16    17    1
@<TRIPOS>MOLECULE
*****
 17 18 0 0 0
SMALL
GASTEIGER

@<TRIPOS>ATOM
      1 C          -5.7763  -20.0526   21.1904 C.2     1  UNL1        0.0435
      2 C          -6.9226  -19.2180   20.7010 C.2     1  UNL1        0.0034
      3 C          -8.3004  -19.4396   21.2512 C.ar    1  UNL1        0.0009
      4 C          -9.4903  -19.3810   20.3399 C.ar    1  UNL1        0.0001
      5 C         -10.8680  -19.6026   20.8901 C.ar    1  UNL1        0.0009
      6 C         -11.0557  -19.8829   22.3517 C.ar    1  UNL1        0.0114
      7 C          -9.8658  -19.9416   23.2630 C.ar    1  UNL1        0.0577
      8 CL        -10.0535  -20.2219   24.7246 Cl      1  UNL1       -0.0822
      9 C          -8.4881  -19.7200   22.7128 C.ar    1  UNL1        0.0114
     10 O          -3.8455  -20.7644   19.6043 O.2     1  UNL1       -0.2850
     11 C          -4.3986  -19.8310   20.6401 C.2     1  UNL1        0.2111
     12 C          -3.5739  -18.6760   21.1257 C.ar    1  UNL1        0.0961
     13 C          -3.3875  -18.2655   22.5563 C.ar    1  UNL1        0.0218
     14 C          -2.4892  -17.0645   22.5807 C.ar    1  UNL1        0.0200
     15 C          -2.1204  -16.7326   21.1651 C.ar    1  UNL1        0.0725
     16 N          -2.7907  -17.7286   20.2659 N.ar    1  UNL1       -0.3495
     17 H          -2.7278  -17.7558   19.2838 H       1  UNL1        0.1661
@<TRIPOS>BOND
     1    10    11    2
     2    11     1    1
     3     1     2    2
     4     2     3    1
     5     3     4   ar
     6     4     5   ar
     7     5     6   ar
     8     6     7   ar
     9     7     8    1
    10     7     9   ar
    11    11    12    1
    12    12    13   ar
    13    13    14   ar
    14    14    15   ar
    15    15    16   ar
    16     9     3   ar
    17    16    12   ar
    18    16    17    1
@<TRIPOS>MOLECULE
*****
 17 18 0 0 0
SMALL
GASTEIGER

@<TRIPOS>ATOM
      1 C          -7.4533  -19.3696   19.6460 C.2     1  UNL1        0.0435
      2 C          -6.7121  -20.2219   20.6330 C.2     1  UNL1        0.0034
      3 C          -5.3155  -19.8560   21.0400 C.ar    1  UNL1        0.0009
      4 C          -4.1473  -20.3480   20.2380 C.ar    1  UNL1        0.0001
      5 C          -2.7508  -19.9821   20.6451 C.ar    1  UNL1        0.0009
      6 C          -2.5224  -19.1242   21.8542 C.ar    1  UNL1        0.0114
      7 C          -3.6906  -18.6322   22.6562 C.ar    1  UNL1        0.0577
      8 CL         -3.4622  -17.7743   23.8653 Cl      1  UNL1       -0.0822
      9 C          -5.0871  -18.9981   22.2491 C.ar    1  UNL1        0.0114
     10 O          -9.0742  -20.7345   18.1427 O.2     1  UNL1       -0.2850
     11 C          -8.8499  -19.7355   19.2389 C.2     1  UNL1        0.2111
     12 C         -10.0222  -19.1025   19.9281 C.ar    1  UNL1        0.0961
     13 C         -10.8618  -19.7338   20.9988 C.ar    1  UNL1        0.0218
     14 C         -11.9192  -18.7484   21.4000 C.ar    1  UNL1        0.0200
     15 C         -11.7330  -17.5080   20.5773 C.ar    1  UNL1        0.0725
     16 N         -10.5606  -17.7269   19.6676 N.ar    1  UNL1       -0.3495
     17 H         -10.2066  -17.0810   19.0143 H       1  UNL1        0.1661
@<TRIPOS>BOND
     1    10    11    2
     2    11     1    1
     3     1     2    2
     4     2     3    1
     5     3     4   ar
     6     4     5   ar
     7     5     6   ar
     8     6     7   ar
     9     7     8    1
    10     7     9   ar
    11    11    12    1
    12    12    13   ar
    13    13    14   ar
    14    14    15   ar
    15    15    16   ar
    16     9     3   ar
    17    16    12   ar
    18    16    17    1
@<TRIPOS>MOLECULE
*****
 17 18 0 0 0
SMALL
GASTEIGER

@<TRIPOS>ATOM
      1 C          -7.1736  -18.7370   22.2967 C.2     1  UNL1        0.0435
      2 C          -6.0121  -19.6390   22.0014 C.2     1  UNL1        0.0034
      3 C          -4.6453  -19.0576   21.7916 C.ar    1  UNL1        0.0009
      4 C          -3.8855  -18.4896   22.9535 C.ar    1  UNL1        0.0001
      5 C          -2.5188  -17.9082   22.7437 C.ar    1  UNL1        0.0009
      6 C          -1.9119  -17.8949   21.3720 C.ar    1  UNL1        0.0114
      7 C          -2.6717  -18.4629   20.2101 C.ar    1  UNL1        0.0577
      8 CL         -2.0648  -18.4496   18.8385 Cl      1  UNL1       -0.0822
      9 C          -4.0384  -19.0443   20.4199 C.ar    1  UNL1        0.0114
     10 O          -8.7248  -20.4872   23.4283 O.2     1  UNL1       -0.2850
     11 C          -8.5404  -19.3184   22.5064 C.2     1  UNL1        0.2111
     12 C          -9.7227  -18.7309   21.7944 C.ar    1  UNL1        0.0961
     13 C         -11.1200  -19.2761   21.8076 C.ar    1  UNL1        0.0218
     14 C         -11.9762  -18.3773   20.9655 C.ar    1  UNL1        0.0200
     15 C         -11.1079  -17.2766   20.4318 C.ar    1  UNL1        0.0725
     16 N          -9.7152  -17.4952   20.9441 N.ar    1  UNL1       -0.3495
     17 H          -8.9334  -16.9274   20.7554 H       1  UNL1        0.1661
@<TRIPOS>BOND
     1    10    11    2
     2    11     1    1
     3     1     2    2
     4     2     3    1
     5     3     4   ar
     6     4     5   ar
     7     5     6   ar
     8     6     7   ar
     9     7     8    1
    10     7     9   ar
    11    11    12    1
    12    12    13   ar
    13    13    14   ar
    14    14    15   ar
    15    15    16   ar
    16     9     3   ar
    17    16    12   ar
    18    16    17    1
@<TRIPOS>MOLECULE
*****
 17 18 0 0 0
SMALL
GASTEIGER

@<TRIPOS>ATOM
      1 C          -7.7435  -15.9418   22.8031 C.2     1  UNL1        0.0435
      2 C          -7.9791  -17.4220   22.7449 C.2     1  UNL1        0.0034
      3 C          -9.0158  -17.9804   21.8156 C.ar    1  UNL1        0.0009
      4 C          -8.6103  -18.9136   20.7135 C.ar    1  UNL1        0.0001
      5 C          -9.6470  -19.4720   19.7842 C.ar    1  UNL1        0.0009
      6 C         -11.0891  -19.0972   19.9571 C.ar    1  UNL1        0.0114
      7 C         -11.4945  -18.1640   21.0593 C.ar    1  UNL1        0.0577
      8 CL        -12.9366  -17.7893   21.2322 Cl      1  UNL1       -0.0822
      9 C         -10.4579  -17.6056   21.9885 C.ar    1  UNL1        0.0114
     10 O          -5.4136  -14.8570   23.1841 O.2     1  UNL1       -0.2850
     11 C          -6.7068  -15.3833   23.7324 C.2     1  UNL1        0.2111
     12 C          -6.9634  -15.3512   25.2099 C.ar    1  UNL1        0.0961
     13 C          -8.2902  -15.5556   25.8790 C.ar    1  UNL1        0.0218
     14 C          -8.0851  -15.4397   27.3604 C.ar    1  UNL1        0.0200
     15 C          -6.6314  -15.1637   27.6069 C.ar    1  UNL1        0.0725
     16 N          -5.9382  -15.1090   26.2778 N.ar    1  UNL1       -0.3495
     17 H          -4.9787  -14.9432   26.1319 H       1  UNL1        0.1661
@<TRIPOS>BOND
     1    10    11    2
     2    11     1    1
     3     1     2    2
     4     2     3    1
     5     3     4   ar
     6     4     5   ar
     7     5     6   ar
     8     6     7   ar
     9     7     8    1
    10     7     9   ar
    11    11    12    1
    12    12    13   ar
    13    13    14   ar
    14    14    15   ar
    15    15    16   ar
    16     9     3   ar
    17    16    12   ar
    18    16    17    1
@<TRIPOS>MOLECULE
*****
 17 18 0 0 0
SMALL
GASTEIGER

@<TRIPOS>ATOM
      1 C          -7.6752  -15.9421   22.7328 C.2     1  UNL1        0.0435
      2 C          -7.9595  -17.4140   22.6841 C.2     1  UNL1        0.0034
      3 C          -8.9366  -17.9565   21.6836 C.ar    1  UNL1        0.0009
      4 C         -10.3707  -17.5183   21.7221 C.ar    1  UNL1        0.0001
      5 C         -11.3477  -18.0608   20.7216 C.ar    1  UNL1        0.0009
      6 C         -10.8908  -19.0414   19.6826 C.ar    1  UNL1        0.0114
      7 C          -9.4567  -19.4796   19.6441 C.ar    1  UNL1        0.0577
      8 CL         -8.9998  -20.4602   18.6051 Cl      1  UNL1       -0.0822
      9 C          -8.4797  -18.9371   20.6446 C.ar    1  UNL1        0.0114
     10 O          -5.3724  -14.8681   23.2750 O.2     1  UNL1       -0.2850
     11 C          -6.6980  -15.3996   23.7334 C.2     1  UNL1        0.2111
     12 C          -7.0466  -15.3887   25.1923 C.ar    1  UNL1        0.0961
     13 C          -6.0780  -15.5111   26.3310 C.ar    1  UNL1        0.0218
     14 C          -6.8576  -15.4515   27.6111 C.ar    1  UNL1        0.0200
     15 C          -8.3081  -15.2923   27.2635 C.ar    1  UNL1        0.0725
     16 N          -8.4248  -15.2534   25.7685 N.ar    1  UNL1       -0.3495
     17 H          -9.2595  -15.1563   25.2556 H       1  UNL1        0.1661
@<TRIPOS>BOND
     1    10    11    2
     2    11     1    1
     3     1     2    2
     4     2     3    1
     5     3     4   ar
     6     4     5   ar
     7     5     6   ar
     8     6     7   ar
     9     7     8    1
    10     7     9   ar
    11    11    12    1
    12    12    13   ar
    13    13    14   ar
    14    14    15   ar
    15    15    16   ar
    16     9     3   ar
    17    16    12   ar
    18    16    17    1
@<TRIPOS>MOLECULE
*****
 17 18 0 0 0
SMALL
GASTEIGER

@<TRIPOS>ATOM
      1 C          -7.3377  -19.1957   19.6974 C.2     1  UNL1        0.0435
      2 C          -6.3849  -20.0003   20.5309 C.2     1  UNL1        0.0034
      3 C          -4.9985  -19.4891   20.7891 C.ar    1  UNL1        0.0009
      4 C          -4.4809  -19.4017   22.1943 C.ar    1  UNL1        0.0001
      5 C          -3.0946  -18.8906   22.4525 C.ar    1  UNL1        0.0009
      6 C          -2.2258  -18.4667   21.3055 C.ar    1  UNL1        0.0114
      7 C          -2.7433  -18.5541   19.9004 C.ar    1  UNL1        0.0577
      8 CL         -1.8745  -18.1302   18.7534 Cl      1  UNL1       -0.0822
      9 C          -4.1296  -19.0652   19.6422 C.ar    1  UNL1        0.0114
     10 O          -8.9619  -20.7145   18.3536 O.2     1  UNL1       -0.2850
     11 C          -8.7241  -19.7069   19.4391 C.2     1  UNL1        0.2111
     12 C          -9.8727  -19.2106   20.2664 C.ar    1  UNL1        0.0961
     13 C         -10.9361  -18.2540   19.8146 C.ar    1  UNL1        0.0218
     14 C         -11.8802  -18.0359   20.9596 C.ar    1  UNL1        0.0200
     15 C         -11.4002  -18.8576   22.1192 C.ar    1  UNL1        0.0725
     16 N         -10.1595  -19.5836   21.6907 N.ar    1  UNL1       -0.3495
     17 H          -9.6270  -20.1973   22.2466 H       1  UNL1        0.1661
@<TRIPOS>BOND
     1    10    11    2
     2    11     1    1
     3     1     2    2
     4     2     3    1
     5     3     4   ar
     6     4     5   ar
     7     5     6   ar
     8     6     7   ar
     9     7     8    1
    10     7     9   ar
    11    11    12    1
    12    12    13   ar
    13    13    14   ar
    14    14    15   ar
    15    15    16   ar
    16     9     3   ar
    17    16    12   ar
    18    16    17    1
@<TRIPOS>MOLECULE
*****
 17 18 0 0 0
SMALL
GASTEIGER

@<TRIPOS>ATOM
      1 C          -7.1040  -19.3195   21.3689 C.2     1  UNL1        0.0435
      2 C          -7.9061  -19.8252   22.5311 C.2     1  UNL1        0.0034
      3 C          -9.2241  -19.1915   22.8652 C.ar    1  UNL1        0.0009
      4 C         -10.0494  -19.7291   23.9964 C.ar    1  UNL1        0.0001
      5 C         -11.3673  -19.0954   24.3305 C.ar    1  UNL1        0.0009
      6 C         -11.8598  -17.9241   23.5333 C.ar    1  UNL1        0.0114
      7 C         -11.0345  -17.3866   22.4020 C.ar    1  UNL1        0.0577
      8 CL        -11.5270  -16.2153   21.6048 Cl      1  UNL1       -0.0822
      9 C          -9.7166  -18.0202   22.0680 C.ar    1  UNL1        0.0114
     10 O          -5.7452  -21.2244   20.2397 O.2     1  UNL1       -0.2850
     11 C          -5.7860  -19.9532   21.0348 C.2     1  UNL1        0.2111
     12 C          -4.5090  -19.3156   21.4958 C.ar    1  UNL1        0.0961
     13 C          -3.1219  -19.7899   21.1780 C.ar    1  UNL1        0.0218
     14 C          -2.1504  -18.8592   21.8413 C.ar    1  UNL1        0.0200
     15 C          -2.9371  -17.8096   22.5691 C.ar    1  UNL1        0.0725
     16 N          -4.3947  -18.0917   22.3555 N.ar    1  UNL1       -0.3495
     17 H          -5.1448  -17.5659   22.7163 H       1  UNL1        0.1661
@<TRIPOS>BOND
     1    10    11    2
     2    11     1    1
     3     1     2    2
     4     2     3    1
     5     3     4   ar
     6     4     5   ar
     7     5     6   ar
     8     6     7   ar
     9     7     8    1
    10     7     9   ar
    11    11    12    1
    12    12    13   ar
    13    13    14   ar
    14    14    15   ar
    15    15    16   ar
    16     9     3   ar
    17    16    12   ar
    18    16    17    1
@<TRIPOS>MOLECULE
*****
 17 18 0 0 0
SMALL
GASTEIGER

@<TRIPOS>ATOM
      1 C          -7.2325  -19.1653   20.8897 C.2     1  UNL1        0.0435
      2 C          -8.3695  -19.6490   21.7402 C.2     1  UNL1        0.0034
      3 C          -9.7190  -19.0040   21.6258 C.ar    1  UNL1        0.0009
      4 C         -10.1657  -18.4269   20.3154 C.ar    1  UNL1        0.0001
      5 C         -11.5151  -17.7820   20.2010 C.ar    1  UNL1        0.0009
      6 C         -12.4178  -17.7142   21.3971 C.ar    1  UNL1        0.0114
      7 C         -11.9710  -18.2913   22.7075 C.ar    1  UNL1        0.0577
      8 CL        -12.8737  -18.2235   23.9036 Cl      1  UNL1       -0.0822
      9 C         -10.6216  -18.9362   22.8219 C.ar    1  UNL1        0.0114
     10 O          -5.6600  -21.1862   20.4500 O.2     1  UNL1       -0.2850
     11 C          -5.8830  -19.8102   21.0042 C.2     1  UNL1        0.2111
     12 C          -4.7567  -19.0793   21.6727 C.ar    1  UNL1        0.0961
     13 C          -3.2991  -19.4161   21.5634 C.ar    1  UNL1        0.0218
     14 C          -2.5317  -18.4281   22.3910 C.ar    1  UNL1        0.0200
     15 C          -3.5151  -17.4807   23.0119 C.ar    1  UNL1        0.0725
     16 N          -4.8902  -17.8831   22.5680 N.ar    1  UNL1       -0.3495
     17 H          -5.7324  -17.4400   22.8199 H       1  UNL1        0.1661
@<TRIPOS>BOND
     1    10    11    2
     2    11     1    1
     3     1     2    2
     4     2     3    1
     5     3     4   ar
     6     4     5   ar
     7     5     6   ar
     8     6     7   ar
     9     7     8    1
    10     7     9   ar
    11    11    12    1
    12    12    13   ar
    13    13    14   ar
    14    14    15   ar
    15    15    16   ar
    16     9     3   ar
    17    16    12   ar
    18    16    17    1
