@<TRIPOS>MOLECULE
*****
 22 24 0 0 0
SMALL
GASTEIGER

@<TRIPOS>ATOM
      1 C          -8.4218  -17.1633   22.4415 C.3     1  UNL1        0.1959
      2 C          -9.9057  -17.2499   22.2398 C.ar    1  UNL1        0.0513
      3 C         -10.7752  -16.0682   22.5516 C.ar    1  UNL1        0.0022
      4 C         -12.2590  -16.1548   22.3499 C.ar    1  UNL1       -0.0000
      5 C         -12.8733  -17.4232   21.8363 C.ar    1  UNL1        0.0031
      6 C         -12.0038  -18.6050   21.5245 C.ar    1  UNL1        0.0367
      7 C         -10.5200  -18.5184   21.7263 C.ar    1  UNL1        0.1379
      8 O          -9.6504  -19.7002   21.4144 O.3     1  UNL1       -0.4755
      9 C          -8.1666  -19.6136   21.6162 C.3     1  UNL1        0.2106
     10 C          -7.5523  -18.3451   22.1297 C.3     1  UNL1        0.1036
     11 C          -6.0684  -18.2585   22.3314 C.3     1  UNL1        0.0729
     12 N          -5.1368  -18.6421   21.2201 N.3     1  UNL1       -0.3209
     13 H          -5.2254  -19.6405   21.0315 H       1  UNL1        0.1189
     14 H          -4.1768  -18.4315   21.4933 H       1  UNL1        0.1189
     15 O          -7.8075  -15.8949   22.9550 O.3     1  UNL1       -0.4748
     16 C          -4.9988  -15.3088   23.8312 C.3     1  UNL1        0.0342
     17 C          -6.0872  -15.4588   24.8524 C.ar    1  UNL1        0.0121
     18 C          -5.7712  -15.3157   26.3119 C.ar    1  UNL1       -0.0013
     19 C          -6.8596  -15.4657   27.3331 C.ar    1  UNL1       -0.0001
     20 C          -8.2639  -15.7587   26.8950 C.ar    1  UNL1        0.0031
     21 C          -8.5799  -15.9018   25.4356 C.ar    1  UNL1        0.0366
     22 C          -7.4915  -15.7518   24.4143 C.ar    1  UNL1        0.1348
@<TRIPOS>BOND
     1    16    17    1
     2    17    18   ar
     3    18    19   ar
     4    19    20   ar
     5    20    21   ar
     6    21    22   ar
     7    22    15    1
     8     1    15    1
     9     1     2    1
    10     2     3   ar
    11     3     4   ar
    12     4     5   ar
    13     5     6   ar
    14     6     7   ar
    15     7     8    1
    16     8     9    1
    17     9    10    1
    18    10    11    1
    19    11    12    1
    20    22    17   ar
    21    10     1    1
    22     7     2   ar
    23    12    13    1
    24    12    14    1
@<TRIPOS>MOLECULE
*****
 22 24 0 0 0
SMALL
GASTEIGER

@<TRIPOS>ATOM
      1 C          -7.8270  -17.3009   22.1122 C.3     1  UNL1        0.1959
      2 C          -7.0826  -18.4616   21.5214 C.ar    1  UNL1        0.0513
      3 C          -7.7538  -19.3497   20.5161 C.ar    1  UNL1        0.0022
      4 C          -7.0095  -20.5103   19.9255 C.ar    1  UNL1       -0.0000
      5 C          -5.5939  -20.7828   20.3401 C.ar    1  UNL1        0.0031
      6 C          -4.9227  -19.8946   21.3454 C.ar    1  UNL1        0.0367
      7 C          -5.6670  -18.7341   21.9361 C.ar    1  UNL1        0.1379
      8 O          -4.9958  -17.8459   22.9415 O.3     1  UNL1       -0.4755
      9 C          -5.7402  -16.6853   23.5321 C.3     1  UNL1        0.2106
     10 C          -7.1557  -16.4128   23.1175 C.3     1  UNL1        0.1036
     11 C          -7.9001  -15.2521   23.7082 C.3     1  UNL1        0.0729
     12 N          -7.1930  -14.2930   24.6191 N.3     1  UNL1       -0.3209
     13 H          -6.9212  -14.7753   25.4758 H       1  UNL1        0.1189
     14 H          -7.8165  -13.5189   24.8480 H       1  UNL1        0.1189
     15 O          -9.2425  -17.0284   21.6975 O.3     1  UNL1       -0.4748
     16 C         -12.0641  -16.2921   20.9931 C.3     1  UNL1        0.0342
     17 C         -11.7905  -17.1542   22.1896 C.ar    1  UNL1        0.0121
     18 C         -12.9276  -17.6482   23.0340 C.ar    1  UNL1       -0.0013
     19 C         -12.6539  -18.5103   24.2306 C.ar    1  UNL1       -0.0001
     20 C         -11.2431  -18.8785   24.5828 C.ar    1  UNL1        0.0031
     21 C         -10.1060  -18.3845   23.7385 C.ar    1  UNL1        0.0366
     22 C         -10.3797  -17.5224   22.5419 C.ar    1  UNL1        0.1348
@<TRIPOS>BOND
     1    16    17    1
     2    17    18   ar
     3    18    19   ar
     4    19    20   ar
     5    20    21   ar
     6    21    22   ar
     7    22    15    1
     8     1    15    1
     9     1     2    1
    10     2     3   ar
    11     3     4   ar
    12     4     5   ar
    13     5     6   ar
    14     6     7   ar
    15     7     8    1
    16     8     9    1
    17     9    10    1
    18    10    11    1
    19    11    12    1
    20    22    17   ar
    21    10     1    1
    22     7     2   ar
    23    12    13    1
    24    12    14    1
@<TRIPOS>MOLECULE
*****
 22 24 0 0 0
SMALL
GASTEIGER

@<TRIPOS>ATOM
      1 C          -7.8395  -17.7732   21.8079 C.3     1  UNL1        0.1959
      2 C          -7.2567  -16.8639   22.8489 C.ar    1  UNL1        0.0513
      3 C          -8.1014  -15.7859   23.4609 C.ar    1  UNL1        0.0022
      4 C          -7.5186  -14.8767   24.5018 C.ar    1  UNL1       -0.0000
      5 C          -6.0912  -15.0454   24.9309 C.ar    1  UNL1        0.0031
      6 C          -5.2466  -16.1234   24.3189 C.ar    1  UNL1        0.0367
      7 C          -5.8293  -17.0326   23.2780 C.ar    1  UNL1        0.1379
      8 O          -4.9847  -18.1106   22.6660 O.3     1  UNL1       -0.4755
      9 C          -5.5674  -19.0199   21.6250 C.3     1  UNL1        0.2106
     10 C          -6.9948  -18.8511   21.1960 C.3     1  UNL1        0.1036
     11 C          -7.5776  -19.7604   20.1549 C.3     1  UNL1        0.0729
     12 N          -8.4509  -19.1987   19.0725 N.3     1  UNL1       -0.3209
     13 H          -9.3112  -18.8364   19.4835 H       1  UNL1        0.1189
     14 H          -8.6774  -19.9338   18.4027 H       1  UNL1        0.1189
     15 O          -9.2669  -17.6044   21.3789 O.3     1  UNL1       -0.4748
     16 C         -11.9578  -16.3288   21.0155 C.3     1  UNL1        0.0342
     17 C         -11.7248  -17.2770   22.1543 C.ar    1  UNL1        0.0121
     18 C         -12.8373  -17.5873   23.1114 C.ar    1  UNL1       -0.0013
     19 C         -12.6044  -18.5354   24.2501 C.ar    1  UNL1       -0.0001
     20 C         -11.2589  -19.1732   24.4318 C.ar    1  UNL1        0.0031
     21 C         -10.1464  -18.8629   23.4748 C.ar    1  UNL1        0.0366
     22 C         -10.3794  -17.9147   22.3359 C.ar    1  UNL1        0.1348
@<TRIPOS>BOND
     1    16    17    1
     2    17    18   ar
     3    18    19   ar
     4    19    20   ar
     5    20    21   ar
     6    21    22   ar
     7    22    15    1
     8     1    15    1
     9     1     2    1
    10     2     3   ar
    11     3     4   ar
    12     4     5   ar
    13     5     6   ar
    14     6     7   ar
    15     7     8    1
    16     8     9    1
    17     9    10    1
    18    10    11    1
    19    11    12    1
    20    22    17   ar
    21    10     1    1
    22     7     2   ar
    23    12    13    1
    24    12    14    1
@<TRIPOS>MOLECULE
*****
 22 24 0 0 0
SMALL
GASTEIGER

@<TRIPOS>ATOM
      1 C          -7.2690  -17.8080   23.0443 C.3     1  UNL1        0.1959
      2 C          -6.4101  -18.6923   22.1897 C.ar    1  UNL1        0.0513
      3 C          -7.0128  -19.8750   21.4913 C.ar    1  UNL1        0.0022
      4 C          -6.1539  -20.7592   20.6367 C.ar    1  UNL1       -0.0000
      5 C          -4.6922  -20.4607   20.4805 C.ar    1  UNL1        0.0031
      6 C          -4.0895  -19.2779   21.1788 C.ar    1  UNL1        0.0367
      7 C          -4.9484  -18.3937   22.0334 C.ar    1  UNL1        0.1379
      8 O          -4.3456  -17.2109   22.7319 O.3     1  UNL1       -0.4755
      9 C          -5.2046  -16.3267   23.5865 C.3     1  UNL1        0.2106
     10 C          -6.6662  -16.6252   23.7427 C.3     1  UNL1        0.1036
     11 C          -7.5251  -15.7410   24.5974 C.3     1  UNL1        0.0729
     12 N          -7.7139  -14.2986   24.2316 N.3     1  UNL1       -0.3209
     13 H          -6.8244  -13.8069   24.3173 H       1  UNL1        0.1189
     14 H          -8.3980  -13.8755   24.8588 H       1  UNL1        0.1189
     15 O          -8.7306  -18.1065   23.2006 O.3     1  UNL1       -0.4748
     16 C         -10.7141  -20.0378   22.0447 C.3     1  UNL1        0.0342
     17 C         -10.6975  -18.6118   21.5800 C.ar    1  UNL1        0.0121
     18 C         -11.6727  -18.1513   20.5374 C.ar    1  UNL1       -0.0013
     19 C         -11.6561  -16.7252   20.0727 C.ar    1  UNL1       -0.0001
     20 C         -10.6644  -15.7595   20.6506 C.ar    1  UNL1        0.0031
     21 C          -9.6893  -16.2199   21.6933 C.ar    1  UNL1        0.0366
     22 C          -9.7058  -17.6461   22.1580 C.ar    1  UNL1        0.1348
@<TRIPOS>BOND
     1    16    17    1
     2    17    18   ar
     3    18    19   ar
     4    19    20   ar
     5    20    21   ar
     6    21    22   ar
     7    22    15    1
     8     1    15    1
     9     1     2    1
    10     2     3   ar
    11     3     4   ar
    12     4     5   ar
    13     5     6   ar
    14     6     7   ar
    15     7     8    1
    16     8     9    1
    17     9    10    1
    18    10    11    1
    19    11    12    1
    20    22    17   ar
    21    10     1    1
    22     7     2   ar
    23    12    13    1
    24    12    14    1
@<TRIPOS>MOLECULE
*****
 22 24 0 0 0
SMALL
GASTEIGER

@<TRIPOS>ATOM
      1 C          -8.7383  -16.5484   22.0544 C.3     1  UNL1        0.1959
      2 C          -9.3856  -17.8574   22.3977 C.ar    1  UNL1        0.0513
      3 C          -8.6681  -18.8424   23.2722 C.ar    1  UNL1        0.0022
      4 C          -9.3154  -20.1512   23.6154 C.ar    1  UNL1       -0.0000
      5 C         -10.6802  -20.4751   23.0840 C.ar    1  UNL1        0.0031
      6 C         -11.3977  -19.4901   22.2094 C.ar    1  UNL1        0.0367
      7 C         -10.7504  -18.1812   21.8663 C.ar    1  UNL1        0.1379
      8 O         -11.4679  -17.1961   20.9917 O.3     1  UNL1       -0.4755
      9 C         -10.8206  -15.8873   20.6485 C.3     1  UNL1        0.2106
     10 C          -9.4558  -15.5634   21.1799 C.3     1  UNL1        0.1036
     11 C          -8.8085  -14.2545   20.8367 C.3     1  UNL1        0.0729
     12 N          -9.1065  -13.5917   19.5245 N.3     1  UNL1       -0.3209
     13 H          -8.7441  -14.1660   18.7634 H       1  UNL1        0.1189
     14 H          -8.6626  -12.6737   19.4987 H       1  UNL1        0.1189
     15 O          -7.3735  -16.2246   22.5858 O.3     1  UNL1       -0.4748
     16 C          -4.6116  -16.0689   23.7468 C.3     1  UNL1        0.0342
     17 C          -5.8076  -15.8437   24.6237 C.ar    1  UNL1        0.0121
     18 C          -5.6226  -15.5407   26.0811 C.ar    1  UNL1       -0.0013
     19 C          -6.8186  -15.3155   26.9580 C.ar    1  UNL1       -0.0001
     20 C          -8.1995  -15.3934   26.3775 C.ar    1  UNL1        0.0031
     21 C          -8.3845  -15.6964   24.9201 C.ar    1  UNL1        0.0366
     22 C          -7.1885  -15.9215   24.0432 C.ar    1  UNL1        0.1348
@<TRIPOS>BOND
     1    16    17    1
     2    17    18   ar
     3    18    19   ar
     4    19    20   ar
     5    20    21   ar
     6    21    22   ar
     7    22    15    1
     8     1    15    1
     9     1     2    1
    10     2     3   ar
    11     3     4   ar
    12     4     5   ar
    13     5     6   ar
    14     6     7   ar
    15     7     8    1
    16     8     9    1
    17     9    10    1
    18    10    11    1
    19    11    12    1
    20    22    17   ar
    21    10     1    1
    22     7     2   ar
    23    12    13    1
    24    12    14    1
@<TRIPOS>MOLECULE
*****
 22 24 0 0 0
SMALL
GASTEIGER

@<TRIPOS>ATOM
      1 C          -8.2463  -17.0551   22.1908 C.3     1  UNL1        0.1959
      2 C          -7.2605  -18.1537   21.9237 C.ar    1  UNL1        0.0513
      3 C          -5.8431  -18.0209   22.3963 C.ar    1  UNL1        0.0022
      4 C          -4.8574  -19.1195   22.1291 C.ar    1  UNL1       -0.0000
      5 C          -5.2890  -20.3509   21.3893 C.ar    1  UNL1        0.0031
      6 C          -6.7064  -20.4837   20.9167 C.ar    1  UNL1        0.0367
      7 C          -7.6921  -19.3851   21.1839 C.ar    1  UNL1        0.1379
      8 O          -9.1095  -19.5179   20.7113 O.3     1  UNL1       -0.4755
      9 C         -10.0953  -18.4193   20.9784 C.3     1  UNL1        0.2106
     10 C          -9.6636  -17.1879   21.7182 C.3     1  UNL1        0.1036
     11 C         -10.6494  -16.0893   21.9854 C.3     1  UNL1        0.0729
     12 N         -11.9636  -16.4029   22.6369 N.3     1  UNL1       -0.3209
     13 H         -12.5220  -16.9853   22.0129 H       1  UNL1        0.1189
     14 H         -12.4633  -15.5348   22.8296 H       1  UNL1        0.1189
     15 O          -7.8146  -15.8236   22.9306 O.3     1  UNL1       -0.4748
     16 C          -5.1405  -15.1081   24.0870 C.3     1  UNL1        0.0342
     17 C          -6.2637  -15.5186   24.9925 C.ar    1  UNL1        0.0121
     18 C          -6.0498  -15.5713   26.4763 C.ar    1  UNL1       -0.0013
     19 C          -7.1729  -15.9819   27.3818 C.ar    1  UNL1       -0.0001
     20 C          -8.5100  -16.3397   26.8036 C.ar    1  UNL1        0.0031
     21 C          -8.7239  -16.2869   25.3199 C.ar    1  UNL1        0.0366
     22 C          -7.6007  -15.8764   24.4143 C.ar    1  UNL1        0.1348
@<TRIPOS>BOND
     1    16    17    1
     2    17    18   ar
     3    18    19   ar
     4    19    20   ar
     5    20    21   ar
     6    21    22   ar
     7    22    15    1
     8     1    15    1
     9     1     2    1
    10     2     3   ar
    11     3     4   ar
    12     4     5   ar
    13     5     6   ar
    14     6     7   ar
    15     7     8    1
    16     8     9    1
    17     9    10    1
    18    10    11    1
    19    11    12    1
    20    22    17   ar
    21    10     1    1
    22     7     2   ar
    23    12    13    1
    24    12    14    1
@<TRIPOS>MOLECULE
*****
 22 24 0 0 0
SMALL
GASTEIGER

@<TRIPOS>ATOM
      1 C          -6.3987  -17.7460   22.4575 C.3     1  UNL1        0.1959
      2 C          -4.9332  -18.0561   22.3781 C.ar    1  UNL1        0.0513
      3 C          -3.9236  -17.0013   22.7217 C.ar    1  UNL1        0.0022
      4 C          -2.4582  -17.3114   22.6423 C.ar    1  UNL1       -0.0000
      5 C          -2.0024  -18.6765   22.2193 C.ar    1  UNL1        0.0031
      6 C          -3.0119  -19.7313   21.8758 C.ar    1  UNL1        0.0367
      7 C          -4.4773  -19.4212   21.9552 C.ar    1  UNL1        0.1379
      8 O          -5.4869  -20.4760   21.6117 O.3     1  UNL1       -0.4755
      9 C          -6.9523  -20.1659   21.6911 C.3     1  UNL1        0.2106
     10 C          -7.4082  -18.8008   22.1140 C.3     1  UNL1        0.1036
     11 C          -8.8737  -18.4907   22.1934 C.3     1  UNL1        0.0729
     12 N          -9.5026  -17.5766   21.1841 N.3     1  UNL1       -0.3209
     13 H          -9.1229  -16.6362   21.2939 H       1  UNL1        0.1189
     14 H         -10.5122  -17.5545   21.3278 H       1  UNL1        0.1189
     15 O          -6.8545  -16.3809   22.8805 O.3     1  UNL1       -0.4748
     16 C          -9.4784  -16.1791   24.3208 C.3     1  UNL1        0.0342
     17 C          -8.1973  -15.9170   25.0557 C.ar    1  UNL1        0.0121
     18 C          -8.2282  -15.5540   26.5108 C.ar    1  UNL1       -0.0013
     19 C          -6.9471  -15.2919   27.2457 C.ar    1  UNL1       -0.0001
     20 C          -5.6351  -15.3928   26.5255 C.ar    1  UNL1        0.0031
     21 C          -5.6043  -15.7558   25.0705 C.ar    1  UNL1        0.0366
     22 C          -6.8854  -16.0179   24.3355 C.ar    1  UNL1        0.1348
@<TRIPOS>BOND
     1    16    17    1
     2    17    18   ar
     3    18    19   ar
     4    19    20   ar
     5    20    21   ar
     6    21    22   ar
     7    22    15    1
     8     1    15    1
     9     1     2    1
    10     2     3   ar
    11     3     4   ar
    12     4     5   ar
    13     5     6   ar
    14     6     7   ar
    15     7     8    1
    16     8     9    1
    17     9    10    1
    18    10    11    1
    19    11    12    1
    20    22    17   ar
    21    10     1    1
    22     7     2   ar
    23    12    13    1
    24    12    14    1
@<TRIPOS>MOLECULE
*****
 22 24 0 0 0
SMALL
GASTEIGER

@<TRIPOS>ATOM
      1 C          -5.9647  -18.6141   21.9906 C.3     1  UNL1        0.1959
      2 C          -6.2186  -17.4418   22.8914 C.ar    1  UNL1        0.0513
      3 C          -5.1125  -16.9009   23.7482 C.ar    1  UNL1        0.0022
      4 C          -5.3664  -15.7287   24.6489 C.ar    1  UNL1       -0.0000
      5 C          -6.7263  -15.0972   24.6927 C.ar    1  UNL1        0.0031
      6 C          -7.8324  -15.6381   23.8359 C.ar    1  UNL1        0.0367
      7 C          -7.5785  -16.8103   22.9352 C.ar    1  UNL1        0.1379
      8 O          -8.6845  -17.3512   22.0784 O.3     1  UNL1       -0.4755
      9 C          -8.4306  -18.5235   21.1777 C.3     1  UNL1        0.2106
     10 C          -7.0707  -19.1549   21.1338 C.3     1  UNL1        0.1036
     11 C          -6.8169  -20.3273   20.2331 C.3     1  UNL1        0.0729
     12 N          -5.8983  -21.4276   20.6751 N.3     1  UNL1       -0.3209
     13 H          -4.9482  -21.0655   20.7558 H       1  UNL1        0.1189
     14 H          -5.9174  -22.1825   19.9894 H       1  UNL1        0.1189
     15 O          -4.6048  -19.2456   21.9468 O.3     1  UNL1       -0.4748
     16 C          -2.1140  -18.0169   23.0810 C.3     1  UNL1        0.0342
     17 C          -2.3077  -18.0839   21.5951 C.ar    1  UNL1        0.0121
     18 C          -1.2559  -17.5366   20.6763 C.ar    1  UNL1       -0.0013
     19 C          -1.4495  -17.6036   19.1904 C.ar    1  UNL1       -0.0001
     20 C          -2.6949  -18.2179   18.6232 C.ar    1  UNL1        0.0031
     21 C          -3.7466  -18.7652   19.5420 C.ar    1  UNL1        0.0366
     22 C          -3.5530  -18.6982   21.0280 C.ar    1  UNL1        0.1348
@<TRIPOS>BOND
     1    16    17    1
     2    17    18   ar
     3    18    19   ar
     4    19    20   ar
     5    20    21   ar
     6    21    22   ar
     7    22    15    1
     8     1    15    1
     9     1     2    1
    10     2     3   ar
    11     3     4   ar
    12     4     5   ar
    13     5     6   ar
    14     6     7   ar
    15     7     8    1
    16     8     9    1
    17     9    10    1
    18    10    11    1
    19    11    12    1
    20    22    17   ar
    21    10     1    1
    22     7     2   ar
    23    12    13    1
    24    12    14    1
@<TRIPOS>MOLECULE
*****
 22 24 0 0 0
SMALL
GASTEIGER

@<TRIPOS>ATOM
      1 C         -11.0839   -4.4025   18.8143 C.3     1  UNL1        0.1959
      2 C         -11.1415   -3.0120   18.2546 C.ar    1  UNL1        0.0513
      3 C         -12.0827   -2.0042   18.8451 C.ar    1  UNL1        0.0022
      4 C         -12.1402   -0.6138   18.2854 C.ar    1  UNL1       -0.0000
      5 C         -11.2567   -0.2310   17.1353 C.ar    1  UNL1        0.0031
      6 C         -10.3155   -1.2388   16.5448 C.ar    1  UNL1        0.0367
      7 C         -10.2579   -2.6292   17.1045 C.ar    1  UNL1        0.1379
      8 O          -9.3168   -3.6370   16.5140 O.3     1  UNL1       -0.4755
      9 C          -9.2592   -5.0275   17.0737 C.3     1  UNL1        0.2106
     10 C         -10.1428   -5.4102   18.2238 C.3     1  UNL1        0.1036
     11 C         -10.0852   -6.8008   18.7835 C.3     1  UNL1        0.0729
     12 N         -10.4879   -7.9688   17.9329 N.3     1  UNL1       -0.3209
     13 H         -11.4846   -7.9099   17.7244 H       1  UNL1        0.1189
     14 H         -10.2960   -8.8364   18.4339 H       1  UNL1        0.1189
     15 O         -11.9675   -4.7852   19.9644 O.3     1  UNL1       -0.4748
     16 C         -14.1452   -3.1526   21.2262 C.3     1  UNL1        0.0342
     17 C         -14.4941   -4.3204   20.3519 C.ar    1  UNL1        0.0121
     18 C         -15.9319   -4.6720   20.1085 C.ar    1  UNL1       -0.0013
     19 C         -16.2808   -5.8398   19.2343 C.ar    1  UNL1       -0.0001
     20 C         -15.1920   -6.6562   18.6034 C.ar    1  UNL1        0.0031
     21 C         -13.7542   -6.3047   18.8467 C.ar    1  UNL1        0.0366
     22 C         -13.4053   -5.1368   19.7210 C.ar    1  UNL1        0.1348
@<TRIPOS>BOND
     1    16    17    1
     2    17    18   ar
     3    18    19   ar
     4    19    20   ar
     5    20    21   ar
     6    21    22   ar
     7    22    15    1
     8     1    15    1
     9     1     2    1
    10     2     3   ar
    11     3     4   ar
    12     4     5   ar
    13     5     6   ar
    14     6     7   ar
    15     7     8    1
    16     8     9    1
    17     9    10    1
    18    10    11    1
    19    11    12    1
    20    22    17   ar
    21    10     1    1
    22     7     2   ar
    23    12    13    1
    24    12    14    1
