@<TRIPOS>MOLECULE
*****
 25 28 0 0 0
SMALL
GASTEIGER

@<TRIPOS>ATOM
      1 C         -16.1013    0.5230   19.7192 C.ar    1  UNL1        0.0177
      2 C         -15.1582    1.2480   18.8054 C.ar    1  UNL1        0.0046
      3 C         -13.9334    0.5539   18.2878 C.ar    1  UNL1        0.0374
      4 C         -13.6516   -0.8651   18.6840 C.ar    1  UNL1        0.1478
      5 N         -12.5328   -1.8014   18.3349 N.ar    1  UNL1       -0.2264
      6 C         -12.7846   -3.1050   19.0329 C.ar    1  UNL1        0.1004
      7 C         -14.0589   -2.9744   19.8133 C.ar    1  UNL1        0.1006
      8 N         -14.5947   -1.5901   19.5977 N.ar    1  UNL1       -0.2875
      9 C         -15.8196   -0.8960   20.1153 C.ar    1  UNL1        0.0814
     10 C         -11.9147   -4.3251   18.9628 C.ar    1  UNL1        0.0192
     11 C         -12.5363   -5.6902   18.9619 C.ar    1  UNL1        0.0024
     12 C         -11.6665   -6.9103   18.8918 C.ar    1  UNL1        0.0114
     13 C         -10.1752   -6.7651   18.8225 C.ar    1  UNL1        0.0577
     14 CL         -9.3053   -7.9852   18.7524 Cl      1  UNL1       -0.0822
     15 C          -9.5536   -5.4000   18.8234 C.ar    1  UNL1        0.0114
     16 C         -10.4234   -4.1799   18.8935 C.ar    1  UNL1        0.0024
     17 C         -18.6537    2.2669   22.2080 C.ar    1  UNL1        0.0070
     18 C         -19.7760    2.6052   21.2721 C.ar    1  UNL1       -0.0019
     19 C         -19.6735    2.2495   19.8185 C.ar    1  UNL1       -0.0002
     20 C         -18.4485    1.5554   19.3009 C.ar    1  UNL1        0.0000
     21 C         -17.3263    1.2171   20.2368 C.ar    1  UNL1        0.0012
     22 C         -17.4288    1.5729   21.6904 C.ar    1  UNL1       -0.0018
     23 O         -18.9266    1.5421   24.6880 O.3     1  UNL1       -0.3772
     24 C         -18.7562    2.6227   23.6616 C.3     1  UNL1        0.1636
     25 H         -18.9756    1.9400   25.5713 H       1  UNL1        0.2109
@<TRIPOS>BOND
     1    23    24    1
     2    24    17    1
     3    17    18   ar
     4    18    19   ar
     5    19    20   ar
     6    20    21   ar
     7    21     1    1
     8     1     2   ar
     9     2     3   ar
    10     3     4   ar
    11     4     5   ar
    12     5     6   ar
    13     6    10    1
    14    10    11   ar
    15    11    12   ar
    16    12    13   ar
    17    13    14    1
    18    13    15   ar
    19    15    16   ar
    20     6     7   ar
    21     7     8   ar
    22     8     9   ar
    23    21    22   ar
    24    22    17   ar
    25     9     1   ar
    26     8     4   ar
    27    16    10   ar
    28    23    25    1
@<TRIPOS>MOLECULE
*****
 25 28 0 0 0
SMALL
GASTEIGER

@<TRIPOS>ATOM
      1 C           7.2236   -4.6356   22.8410 C.ar    1  UNL1        0.0177
      2 C           8.1210   -4.3690   21.6690 C.ar    1  UNL1        0.0046
      3 C           7.6831   -3.4249   20.5888 C.ar    1  UNL1        0.0374
      4 C           6.3480   -2.7474   20.6806 C.ar    1  UNL1        0.1478
      5 N           5.6518   -1.7746   19.7756 N.ar    1  UNL1       -0.2264
      6 C           4.3242   -1.4400   20.3883 C.ar    1  UNL1        0.1004
      7 C           4.1999   -2.2061   21.6720 C.ar    1  UNL1        0.1006
      8 N           5.4507   -3.0141   21.8526 N.ar    1  UNL1       -0.2875
      9 C           5.8885   -3.9582   22.9328 C.ar    1  UNL1        0.0814
     10 C           3.3005   -0.5038   19.8176 C.ar    1  UNL1        0.0192
     11 C           1.8469   -0.7001   20.1316 C.ar    1  UNL1        0.0024
     12 C           0.8233    0.2361   19.5610 C.ar    1  UNL1        0.0114
     13 C           1.2532    1.3686   18.6764 C.ar    1  UNL1        0.0577
     14 CL          0.2295    2.3048   18.1057 Cl      1  UNL1       -0.0822
     15 C           2.7068    1.5649   18.3623 C.ar    1  UNL1        0.0114
     16 C           3.7304    0.6287   18.9330 C.ar    1  UNL1        0.0024
     17 C           7.5876   -6.3513   26.4011 C.ar    1  UNL1        0.0070
     18 C           8.5370   -7.4680   26.0819 C.ar    1  UNL1       -0.0019
     19 C           9.0486   -7.6405   24.6825 C.ar    1  UNL1       -0.0002
     20 C           8.6108   -6.6964   23.6022 C.ar    1  UNL1        0.0000
     21 C           7.6614   -5.5798   23.9214 C.ar    1  UNL1        0.0012
     22 C           7.1498   -5.4073   25.3208 C.ar    1  UNL1       -0.0018
     23 O           5.6390   -5.8178   28.0346 O.3     1  UNL1       -0.3772
     24 C           7.0760   -6.1788   27.8006 C.3     1  UNL1        0.1636
     25 H           5.4748   -5.7456   28.9879 H       1  UNL1        0.2109
@<TRIPOS>BOND
     1    23    24    1
     2    24    17    1
     3    17    18   ar
     4    18    19   ar
     5    19    20   ar
     6    20    21   ar
     7    21     1    1
     8     1     2   ar
     9     2     3   ar
    10     3     4   ar
    11     4     5   ar
    12     5     6   ar
    13     6    10    1
    14    10    11   ar
    15    11    12   ar
    16    12    13   ar
    17    13    14    1
    18    13    15   ar
    19    15    16   ar
    20     6     7   ar
    21     7     8   ar
    22     8     9   ar
    23    21    22   ar
    24    22    17   ar
    25     9     1   ar
    26     8     4   ar
    27    16    10   ar
    28    23    25    1
@<TRIPOS>MOLECULE
*****
 25 28 0 0 0
SMALL
GASTEIGER

@<TRIPOS>ATOM
      1 C           8.0292   -5.7892   26.7956 C.ar    1  UNL1        0.0177
      2 C           8.8113   -6.6455   25.8444 C.ar    1  UNL1        0.0046
      3 C           8.6355   -6.4759   24.3644 C.ar    1  UNL1        0.0374
      4 C           7.6775   -5.4498   23.8357 C.ar    1  UNL1        0.1478
      5 N           7.2966   -5.0580   22.4387 N.ar    1  UNL1       -0.2264
      6 C           6.2791   -3.9594   22.5266 C.ar    1  UNL1        0.1004
      7 C           6.0311   -3.6723   23.9779 C.ar    1  UNL1        0.1006
      8 N           6.8954   -4.5935   24.7869 N.ar    1  UNL1       -0.2875
      9 C           7.0712   -4.7631   26.2669 C.ar    1  UNL1        0.0814
     10 C           5.6245   -3.2690   21.3669 C.ar    1  UNL1        0.0192
     11 C           6.2788   -3.2863   20.0172 C.ar    1  UNL1        0.0024
     12 C           5.6242   -2.5960   18.8575 C.ar    1  UNL1        0.0114
     13 C           4.3154   -1.8884   19.0475 C.ar    1  UNL1        0.0577
     14 CL          3.6607   -1.1980   17.8878 Cl      1  UNL1       -0.0822
     15 C           3.6611   -1.8710   20.3972 C.ar    1  UNL1        0.0114
     16 C           4.3157   -2.5614   21.5569 C.ar    1  UNL1        0.0024
     17 C           7.6033   -5.2677   30.7067 C.ar    1  UNL1        0.0070
     18 C           8.5566   -6.2980   31.2356 C.ar    1  UNL1       -0.0019
     19 C           9.3342   -7.1587   30.2844 C.ar    1  UNL1       -0.0002
     20 C           9.1583   -6.9891   28.8044 C.ar    1  UNL1        0.0000
     21 C           8.2050   -5.9588   28.2756 C.ar    1  UNL1        0.0012
     22 C           7.4275   -5.0981   29.2267 C.ar    1  UNL1       -0.0018
     23 O           6.1180   -5.0291   32.8250 O.3     1  UNL1       -0.3772
     24 C           6.8257   -4.4070   31.6578 C.3     1  UNL1        0.1636
     25 H           5.6672   -4.3383   33.3354 H       1  UNL1        0.2109
@<TRIPOS>BOND
     1    23    24    1
     2    24    17    1
     3    17    18   ar
     4    18    19   ar
     5    19    20   ar
     6    20    21   ar
     7    21     1    1
     8     1     2   ar
     9     2     3   ar
    10     3     4   ar
    11     4     5   ar
    12     5     6   ar
    13     6    10    1
    14    10    11   ar
    15    11    12   ar
    16    12    13   ar
    17    13    14    1
    18    13    15   ar
    19    15    16   ar
    20     6     7   ar
    21     7     8   ar
    22     8     9   ar
    23    21    22   ar
    24    22    17   ar
    25     9     1   ar
    26     8     4   ar
    27    16    10   ar
    28    23    25    1
@<TRIPOS>MOLECULE
*****
 25 28 0 0 0
SMALL
GASTEIGER

@<TRIPOS>ATOM
      1 C           3.5959   -1.3436   22.6336 C.ar    1  UNL1        0.0177
      2 C           2.6589   -0.1809   22.7752 C.ar    1  UNL1        0.0046
      3 C           2.3641    0.3836   24.1332 C.ar    1  UNL1        0.0374
      4 C           3.0063   -0.2146   25.3497 C.ar    1  UNL1        0.1478
      5 N           2.9074    0.1263   26.8072 N.ar    1  UNL1       -0.2264
      6 C           3.7834   -0.8258   27.5663 C.ar    1  UNL1        0.1004
      7 C           4.4236   -1.7550   26.5780 C.ar    1  UNL1        0.1006
      8 N           3.9433   -1.3773   25.2081 N.ar    1  UNL1       -0.2875
      9 C           4.2381   -1.9418   23.8501 C.ar    1  UNL1        0.0814
     10 C           3.9839   -0.8452   29.0527 C.ar    1  UNL1        0.0192
     11 C           5.3066   -1.2604   29.6257 C.ar    1  UNL1        0.0024
     12 C           5.5072   -1.2799   31.1120 C.ar    1  UNL1        0.0114
     13 C           4.3852   -0.8841   32.0255 C.ar    1  UNL1        0.0577
     14 CL          4.5857   -0.9035   33.5119 Cl      1  UNL1       -0.0822
     15 C           3.0625   -0.4689   31.4525 C.ar    1  UNL1        0.0114
     16 C           2.8619   -0.4494   29.9662 C.ar    1  UNL1        0.0024
     17 C           3.9374   -1.6453   18.6912 C.ar    1  UNL1        0.0070
     18 C           4.4805   -3.0373   18.5593 C.ar    1  UNL1       -0.0019
     19 C           4.7287   -3.8648   19.7856 C.ar    1  UNL1       -0.0002
     20 C           4.4339   -3.3002   21.1437 C.ar    1  UNL1        0.0000
     21 C           3.8908   -1.9082   21.2755 C.ar    1  UNL1        0.0012
     22 C           3.6425   -1.0807   20.0492 C.ar    1  UNL1       -0.0018
     23 O           3.6909   -1.4639   16.1112 O.3     1  UNL1       -0.3772
     24 C           3.6891   -0.8178   17.4650 C.3     1  UNL1        0.1636
     25 H           3.5159   -0.7932   15.4326 H       1  UNL1        0.2109
@<TRIPOS>BOND
     1    23    24    1
     2    24    17    1
     3    17    18   ar
     4    18    19   ar
     5    19    20   ar
     6    20    21   ar
     7    21     1    1
     8     1     2   ar
     9     2     3   ar
    10     3     4   ar
    11     4     5   ar
    12     5     6   ar
    13     6    10    1
    14    10    11   ar
    15    11    12   ar
    16    12    13   ar
    17    13    14    1
    18    13    15   ar
    19    15    16   ar
    20     6     7   ar
    21     7     8   ar
    22     8     9   ar
    23    21    22   ar
    24    22    17   ar
    25     9     1   ar
    26     8     4   ar
    27    16    10   ar
    28    23    25    1
@<TRIPOS>MOLECULE
*****
 25 28 0 0 0
SMALL
GASTEIGER

@<TRIPOS>ATOM
      1 C           4.8790   -2.1432   20.3364 C.ar    1  UNL1        0.0177
      2 C           6.0189   -2.6213   19.4867 C.ar    1  UNL1        0.0046
      3 C           7.0581   -3.5325   20.0696 C.ar    1  UNL1        0.0374
      4 C           6.9574   -3.9656   21.5021 C.ar    1  UNL1        0.1478
      5 N           7.8250   -4.8515   22.3462 N.ar    1  UNL1       -0.2264
      6 C           7.2213   -4.9210   23.7176 C.ar    1  UNL1        0.1004
      7 C           5.9806   -4.0780   23.7211 C.ar    1  UNL1        0.1006
      8 N           5.8175   -3.4875   22.3519 N.ar    1  UNL1       -0.2875
      9 C           4.7783   -2.5764   21.7690 C.ar    1  UNL1        0.0814
     10 C           7.7632   -5.6971   24.8813 C.ar    1  UNL1        0.0192
     11 C           8.0961   -7.1512   24.7232 C.ar    1  UNL1        0.0024
     12 C           8.6379   -7.9273   25.8868 C.ar    1  UNL1        0.0114
     13 C           8.8469   -7.2495   27.2084 C.ar    1  UNL1        0.0577
     14 CL          9.3888   -8.0256   28.3720 Cl      1  UNL1       -0.0822
     15 C           8.5140   -5.7954   27.3664 C.ar    1  UNL1        0.0114
     16 C           7.9722   -5.0193   26.2029 C.ar    1  UNL1        0.0024
     17 C           1.4811   -0.1480   19.8633 C.ar    1  UNL1        0.0070
     18 C           1.7612    0.5904   18.5880 C.ar    1  UNL1       -0.0019
     19 C           3.0805    0.4176   17.8955 C.ar    1  UNL1       -0.0002
     20 C           4.1197   -0.4937   18.4783 C.ar    1  UNL1        0.0000
     21 C           3.8397   -1.2320   19.7536 C.ar    1  UNL1        0.0012
     22 C           2.5204   -1.0592   20.4461 C.ar    1  UNL1       -0.0018
     23 O          -0.3126    1.3967   20.9342 O.3     1  UNL1       -0.3772
     24 C           0.1618    0.0248   20.5559 C.3     1  UNL1        0.1636
     25 H          -1.1766    1.3312   21.3701 H       1  UNL1        0.2109
@<TRIPOS>BOND
     1    23    24    1
     2    24    17    1
     3    17    18   ar
     4    18    19   ar
     5    19    20   ar
     6    20    21   ar
     7    21     1    1
     8     1     2   ar
     9     2     3   ar
    10     3     4   ar
    11     4     5   ar
    12     5     6   ar
    13     6    10    1
    14    10    11   ar
    15    11    12   ar
    16    12    13   ar
    17    13    14    1
    18    13    15   ar
    19    15    16   ar
    20     6     7   ar
    21     7     8   ar
    22     8     9   ar
    23    21    22   ar
    24    22    17   ar
    25     9     1   ar
    26     8     4   ar
    27    16    10   ar
    28    23    25    1
@<TRIPOS>MOLECULE
*****
 25 28 0 0 0
SMALL
GASTEIGER

@<TRIPOS>ATOM
      1 C         -12.6897   -3.1138   18.8816 C.ar    1  UNL1        0.0177
      2 C         -13.6674   -3.7667   19.8131 C.ar    1  UNL1        0.0046
      3 C         -14.8590   -3.0008   20.3067 C.ar    1  UNL1        0.0374
      4 C         -15.0727   -1.5822   19.8689 C.ar    1  UNL1        0.1478
      5 N         -16.1466   -0.5844   20.1875 N.ar    1  UNL1       -0.2264
      6 C         -15.8325    0.6850   19.4528 C.ar    1  UNL1        0.1004
      7 C         -14.5645    0.4719   18.6803 C.ar    1  UNL1        0.1006
      8 N         -14.0950   -0.9293   18.9374 N.ar    1  UNL1       -0.2875
      9 C         -12.9035   -1.6951   18.4437 C.ar    1  UNL1        0.0814
     10 C         -16.6439    1.9463   19.4851 C.ar    1  UNL1        0.0192
     11 C         -17.9900    1.9892   18.8246 C.ar    1  UNL1        0.0024
     12 C         -18.8013    3.2504   18.8569 C.ar    1  UNL1        0.0114
     13 C         -18.2666    4.4686   19.5495 C.ar    1  UNL1        0.0577
     14 CL        -19.0780    5.7299   19.5817 Cl      1  UNL1       -0.0822
     15 C         -16.9205    4.4257   20.2099 C.ar    1  UNL1        0.0114
     16 C         -16.1091    3.1646   20.1777 C.ar    1  UNL1        0.0024
     17 C         -10.0361   -6.0272   18.4115 C.ar    1  UNL1        0.0070
     18 C          -9.1150   -5.4112   17.4004 C.ar    1  UNL1       -0.0019
     19 C          -9.3854   -4.0295   16.8831 C.ar    1  UNL1       -0.0002
     20 C         -10.5770   -3.2637   17.3768 C.ar    1  UNL1        0.0000
     21 C         -11.4981   -3.8796   18.3878 C.ar    1  UNL1        0.0012
     22 C         -11.2276   -5.2614   18.9052 C.ar    1  UNL1       -0.0018
     23 O          -9.7710   -8.5767   17.9873 O.3     1  UNL1       -0.3772
     24 C          -9.7657   -7.4089   18.9288 C.3     1  UNL1        0.1636
     25 H          -9.5799   -9.3901   18.4799 H       1  UNL1        0.2109
@<TRIPOS>BOND
     1    23    24    1
     2    24    17    1
     3    17    18   ar
     4    18    19   ar
     5    19    20   ar
     6    20    21   ar
     7    21     1    1
     8     1     2   ar
     9     2     3   ar
    10     3     4   ar
    11     4     5   ar
    12     5     6   ar
    13     6    10    1
    14    10    11   ar
    15    11    12   ar
    16    12    13   ar
    17    13    14    1
    18    13    15   ar
    19    15    16   ar
    20     6     7   ar
    21     7     8   ar
    22     8     9   ar
    23    21    22   ar
    24    22    17   ar
    25     9     1   ar
    26     8     4   ar
    27    16    10   ar
    28    23    25    1
@<TRIPOS>MOLECULE
*****
 25 28 0 0 0
SMALL
GASTEIGER

@<TRIPOS>ATOM
      1 C           6.7727   -3.8251   26.5774 C.ar    1  UNL1        0.0177
      2 C           7.4882   -4.9689   25.9218 C.ar    1  UNL1        0.0046
      3 C           7.4328   -5.1331   24.4319 C.ar    1  UNL1        0.0374
      4 C           6.6618   -4.1535   23.5975 C.ar    1  UNL1        0.1478
      5 N           6.4292   -4.0593   22.1186 N.ar    1  UNL1       -0.2264
      6 C           5.5699   -2.8573   21.8603 C.ar    1  UNL1        0.1004
      7 C           5.2715   -2.2087   23.1795 C.ar    1  UNL1        0.1006
      8 N           5.9463   -3.0098   24.2531 N.ar    1  UNL1       -0.2875
      9 C           6.0018   -2.8456   25.7431 C.ar    1  UNL1        0.0814
     10 C           5.0928   -2.3865   20.5183 C.ar    1  UNL1        0.0192
     11 C           5.6147   -3.0309   19.2684 C.ar    1  UNL1        0.0024
     12 C           5.1376   -2.5602   17.9265 C.ar    1  UNL1        0.0114
     13 C           4.1386   -1.4451   17.8345 C.ar    1  UNL1        0.0577
     14 CL          3.6614   -0.9743   16.4925 Cl      1  UNL1       -0.0822
     15 C           3.6167   -0.8007   19.0845 C.ar    1  UNL1        0.0114
     16 C           4.0938   -1.2714   20.4264 C.ar    1  UNL1        0.0024
     17 C           7.1845   -4.6780   30.4314 C.ar    1  UNL1        0.0070
     18 C           6.9390   -3.3325   31.0473 C.ar    1  UNL1       -0.0019
     19 C           6.6381   -2.1512   30.1733 C.ar    1  UNL1       -0.0002
     20 C           6.5826   -2.3154   28.6833 C.ar    1  UNL1        0.0000
     21 C           6.8282   -3.6609   28.0674 C.ar    1  UNL1        0.0012
     22 C           7.1291   -4.8422   28.9415 C.ar    1  UNL1       -0.0018
     23 O           6.5072   -6.2788   32.3623 O.3     1  UNL1       -0.3772
     24 C           7.4855   -5.8593   31.3054 C.3     1  UNL1        0.1636
     25 H           6.8525   -7.0532   32.8335 H       1  UNL1        0.2109
@<TRIPOS>BOND
     1    23    24    1
     2    24    17    1
     3    17    18   ar
     4    18    19   ar
     5    19    20   ar
     6    20    21   ar
     7    21     1    1
     8     1     2   ar
     9     2     3   ar
    10     3     4   ar
    11     4     5   ar
    12     5     6   ar
    13     6    10    1
    14    10    11   ar
    15    11    12   ar
    16    12    13   ar
    17    13    14    1
    18    13    15   ar
    19    15    16   ar
    20     6     7   ar
    21     7     8   ar
    22     8     9   ar
    23    21    22   ar
    24    22    17   ar
    25     9     1   ar
    26     8     4   ar
    27    16    10   ar
    28    23    25    1
@<TRIPOS>MOLECULE
*****
 25 28 0 0 0
SMALL
GASTEIGER

@<TRIPOS>ATOM
      1 C           5.6922   -3.0785   21.7741 C.ar    1  UNL1        0.0177
      2 C           6.8611   -3.7707   21.1383 C.ar    1  UNL1        0.0046
      3 C           7.8090   -4.5702   21.9822 C.ar    1  UNL1        0.0374
      4 C           7.5879   -4.6775   23.4620 C.ar    1  UNL1        0.1478
      5 N           8.3484   -5.3893   24.5414 N.ar    1  UNL1       -0.2264
      6 C           7.6493   -5.1370   25.8443 C.ar    1  UNL1        0.1004
      7 C           6.4568   -4.2693   25.5701 C.ar    1  UNL1        0.1006
      8 N           6.4190   -3.9853   24.0978 N.ar    1  UNL1       -0.2875
      9 C           5.4711   -3.1858   23.2538 C.ar    1  UNL1        0.0814
     10 C           8.0689   -5.6605   27.1860 C.ar    1  UNL1        0.0192
     11 C           9.1162   -6.7302   27.2795 C.ar    1  UNL1        0.0024
     12 C           9.5359   -7.2538   28.6210 C.ar    1  UNL1        0.0114
     13 C           8.9082   -6.7076   29.8691 C.ar    1  UNL1        0.0577
     14 CL          9.3278   -7.2311   31.2107 Cl      1  UNL1       -0.0822
     15 C           7.8608   -5.6378   29.7755 C.ar    1  UNL1        0.0114
     16 C           7.4412   -5.1143   28.4340 C.ar    1  UNL1        0.0024
     17 C           4.1369   -1.1772   18.6570 C.ar    1  UNL1        0.0070
     18 C           2.8483   -0.6800   19.2422 C.ar    1  UNL1       -0.0019
     19 C           2.5077   -0.9824   20.6714 C.ar    1  UNL1       -0.0002
     20 C           3.4557   -1.7819   21.5154 C.ar    1  UNL1        0.0000
     21 C           4.7442   -2.2790   20.9301 C.ar    1  UNL1        0.0012
     22 C           5.0848   -1.9766   19.5009 C.ar    1  UNL1       -0.0018
     23 O           3.5648   -1.3283   16.1272 O.3     1  UNL1       -0.3772
     24 C           4.4775   -0.8748   17.2278 C.3     1  UNL1        0.1636
     25 H           3.9291   -1.0536   15.2712 H       1  UNL1        0.2109
@<TRIPOS>BOND
     1    23    24    1
     2    24    17    1
     3    17    18   ar
     4    18    19   ar
     5    19    20   ar
     6    20    21   ar
     7    21     1    1
     8     1     2   ar
     9     2     3   ar
    10     3     4   ar
    11     4     5   ar
    12     5     6   ar
    13     6    10    1
    14    10    11   ar
    15    11    12   ar
    16    12    13   ar
    17    13    14    1
    18    13    15   ar
    19    15    16   ar
    20     6     7   ar
    21     7     8   ar
    22     8     9   ar
    23    21    22   ar
    24    22    17   ar
    25     9     1   ar
    26     8     4   ar
    27    16    10   ar
    28    23    25    1
@<TRIPOS>MOLECULE
*****
 25 28 0 0 0
SMALL
GASTEIGER

@<TRIPOS>ATOM
      1 C           2.5556   -0.2443   22.4503 C.ar    1  UNL1        0.0177
      2 C           1.4138    0.7059   22.2422 C.ar    1  UNL1        0.0046
      3 C           0.8015    1.4110   23.4160 C.ar    1  UNL1        0.0374
      4 C           1.3310    1.1659   24.7979 C.ar    1  UNL1        0.1478
      5 N           0.9326    1.7121   26.1370 N.ar    1  UNL1       -0.2264
      6 C           1.8283    1.0995   27.1725 C.ar    1  UNL1        0.1004
      7 C           2.7801    0.1746   26.4735 C.ar    1  UNL1        0.1006
      8 N           2.4728    0.2157   25.0059 N.ar    1  UNL1       -0.2875
      9 C           3.0851   -0.4894   23.8321 C.ar    1  UNL1        0.0814
     10 C           1.7805    1.3651   28.6481 C.ar    1  UNL1        0.0192
     11 C           2.4274    0.4070   29.6039 C.ar    1  UNL1        0.0024
     12 C           2.3797    0.6725   31.0794 C.ar    1  UNL1        0.0114
     13 C           1.6849    1.8961   31.5991 C.ar    1  UNL1        0.0577
     14 CL          1.6371    2.1616   33.0747 Cl      1  UNL1       -0.0822
     15 C           1.0380    2.8541   30.6433 C.ar    1  UNL1        0.0114
     16 C           1.0857    2.5886   29.1678 C.ar    1  UNL1        0.0024
     17 C           3.6129   -1.0951   18.7209 C.ar    1  UNL1        0.0070
     18 C           4.3927   -2.3596   18.9287 C.ar    1  UNL1       -0.0019
     19 C           4.5601   -2.9190   20.3104 C.ar    1  UNL1       -0.0002
     20 C           3.9477   -2.2138   21.4843 C.ar    1  UNL1        0.0000
     21 C           3.1680   -0.9494   21.2764 C.ar    1  UNL1        0.0012
     22 C           3.0006   -0.3901   19.8947 C.ar    1  UNL1       -0.0018
     23 O           3.7372   -1.3924   16.1428 O.3     1  UNL1       -0.3772
     24 C           3.4455   -0.5358   17.3392 C.3     1  UNL1        0.1636
     25 H           3.5796   -0.8818   15.3333 H       1  UNL1        0.2109
@<TRIPOS>BOND
     1    23    24    1
     2    24    17    1
     3    17    18   ar
     4    18    19   ar
     5    19    20   ar
     6    20    21   ar
     7    21     1    1
     8     1     2   ar
     9     2     3   ar
    10     3     4   ar
    11     4     5   ar
    12     5     6   ar
    13     6    10    1
    14    10    11   ar
    15    11    12   ar
    16    12    13   ar
    17    13    14    1
    18    13    15   ar
    19    15    16   ar
    20     6     7   ar
    21     7     8   ar
    22     8     9   ar
    23    21    22   ar
    24    22    17   ar
    25     9     1   ar
    26     8     4   ar
    27    16    10   ar
    28    23    25    1
