@<TRIPOS>MOLECULE
*****
 27 30 0 0 0
SMALL
GASTEIGER

@<TRIPOS>ATOM
      1 C          -4.1375  -19.4277   20.9575 C.ar    1  UNL1        0.1219
      2 C          -4.5406  -18.5472   22.1029 C.ar    1  UNL1        0.0199
      3 C          -5.9219  -18.6508   22.6785 C.ar    1  UNL1        0.0011
      4 C          -6.9000  -19.6349   22.1087 C.ar    1  UNL1       -0.0029
      5 C          -6.4969  -20.5155   20.9632 C.ar    1  UNL1        0.0011
      6 C          -5.1156  -20.4119   20.3876 C.ar    1  UNL1        0.0199
      7 C          -8.2814  -19.7385   22.6843 C.2     1  UNL1       -0.0027
      8 C          -8.5526  -20.6825   23.8180 C.2     1  UNL1        0.0471
      9 C          -9.9338  -20.7861   24.3936 C.2     1  UNL1        0.2354
     10 N         -11.0439  -19.9457   23.8354 N.2     1  UNL1       -0.0341
     11 C         -10.7727  -19.0018   22.7017 C.2     1  UNL1        0.3588
     12 N         -11.6601  -18.0541   21.9505 N.2     1  UNL1       -0.0428
     13 C         -10.8273  -17.3647   20.9107 C.2     1  UNL1        0.1669
     14 C          -9.4252  -17.8864   21.0192 C.2     1  UNL1        0.0323
     15 C          -9.3914  -18.8982   22.1261 C.3     1  UNL1        0.1596
     16 C         -11.3117  -16.3345   19.9338 C.3     1  UNL1        0.0658
     17 C         -11.0213  -15.2653   18.9228 C.3     1  UNL1        0.0087
     18 C         -12.4409  -15.6195   19.2529 C.3     1  UNL1        0.0087
     19 O          -2.1837  -19.8654   21.6582 O.2     1  UNL1       -0.1530
     20 S          -2.7562  -19.3241   20.3818 S.O2    1  UNL1        0.0603
     21 O          -3.3287  -18.7828   19.1055 O.2     1  UNL1       -0.1530
     22 N          -1.3750  -19.2205   19.8062 N.3     1  UNL1       -0.1768
     23 H          -1.4771  -19.2344   18.7914 H       1  UNL1        0.1489
     24 C          -0.5106  -18.0405   20.1383 C.3     1  UNL1        0.1231
     25 C          -1.1337  -16.7728   20.6431 C.3     1  UNL1        0.1559
     26 O          -1.5440  -16.6598   22.0815 O.3     1  UNL1       -0.3805
     27 H          -2.2686  -17.2793   22.2606 H       1  UNL1        0.2105
@<TRIPOS>BOND
     1    19    20    2
     2    20    21    2
     3    20    22    1
     4    22    24    1
     5    24    25    1
     6    25    26    1
     7    20     1    1
     8     1     2   ar
     9     2     3   ar
    10     3     4   ar
    11     4     7    1
    12     7     8    2
    13     8     9    1
    14     9    10    2
    15    10    11    1
    16    11    12    2
    17    12    13    1
    18    13    16    1
    19    16    17    1
    20    17    18    1
    21    13    14    2
    22    14    15    1
    23     4     5   ar
    24     5     6   ar
    25     6     1   ar
    26    15     7    1
    27    15    11    1
    28    18    16    1
    29    22    23    1
    30    26    27    1
@<TRIPOS>MOLECULE
*****
 27 30 0 0 0
SMALL
GASTEIGER

@<TRIPOS>ATOM
      1 C          -3.7288  -19.0776   20.5848 C.ar    1  UNL1        0.1219
      2 C          -4.1229  -18.9552   22.0269 C.ar    1  UNL1        0.0199
      3 C          -5.5720  -18.8616   22.4031 C.ar    1  UNL1        0.0011
      4 C          -6.6269  -18.8905   21.3371 C.ar    1  UNL1       -0.0029
      5 C          -6.2328  -19.0129   19.8950 C.ar    1  UNL1        0.0011
      6 C          -4.7838  -19.1064   19.5189 C.ar    1  UNL1        0.0199
      7 C          -8.0761  -18.7970   21.7133 C.2     1  UNL1       -0.0027
      8 C          -9.1177  -19.4497   20.8537 C.2     1  UNL1        0.0471
      9 C         -10.5667  -19.3562   21.2299 C.2     1  UNL1        0.2354
     10 N         -10.9741  -18.6098   22.4656 N.2     1  UNL1       -0.0341
     11 C          -9.9325  -17.9571   23.3252 C.2     1  UNL1        0.3588
     12 N         -10.0320  -17.1600   24.5919 N.2     1  UNL1       -0.0428
     13 C          -8.6444  -16.7609   24.9987 C.2     1  UNL1        0.1669
     14 C          -7.6873  -17.3113   23.9833 C.2     1  UNL1        0.0323
     15 C          -8.4835  -18.0506   22.9490 C.3     1  UNL1        0.1596
     16 C          -8.2782  -15.9531   26.2085 C.3     1  UNL1        0.0658
     17 C          -7.2339  -15.3452   27.0972 C.3     1  UNL1        0.0087
     18 C          -8.6883  -15.1619   27.4151 C.3     1  UNL1        0.0087
     19 O          -2.5906  -18.5815   18.8649 O.2     1  UNL1       -0.1530
     20 S          -2.2798  -19.1711   20.2086 S.O2    1  UNL1        0.0603
     21 O          -1.9690  -19.7607   21.5524 O.2     1  UNL1       -0.1530
     22 N          -0.8308  -19.2646   19.8325 N.3     1  UNL1       -0.1768
     23 H          -0.7977  -19.4242   18.8256 H       1  UNL1        0.1489
     24 C           0.0942  -18.1193   20.1200 C.3     1  UNL1        0.1231
     25 C          -0.4392  -16.7180   20.1666 C.3     1  UNL1        0.1559
     26 O          -1.2154  -16.2504   21.3619 O.3     1  UNL1       -0.3805
     27 H          -2.0489  -16.7433   21.4192 H       1  UNL1        0.2105
@<TRIPOS>BOND
     1    19    20    2
     2    20    21    2
     3    20    22    1
     4    22    24    1
     5    24    25    1
     6    25    26    1
     7    20     1    1
     8     1     2   ar
     9     2     3   ar
    10     3     4   ar
    11     4     7    1
    12     7     8    2
    13     8     9    1
    14     9    10    2
    15    10    11    1
    16    11    12    2
    17    12    13    1
    18    13    16    1
    19    16    17    1
    20    17    18    1
    21    13    14    2
    22    14    15    1
    23     4     5   ar
    24     5     6   ar
    25     6     1   ar
    26    15     7    1
    27    15    11    1
    28    18    16    1
    29    22    23    1
    30    26    27    1
@<TRIPOS>MOLECULE
*****
 27 30 0 0 0
SMALL
GASTEIGER

@<TRIPOS>ATOM
      1 C         -15.9423   -8.8473   18.5096 C.ar    1  UNL1        0.1219
      2 C         -16.0047   -7.6625   19.4274 C.ar    1  UNL1        0.0199
      3 C         -14.8384   -6.7238   19.5207 C.ar    1  UNL1        0.0011
      4 C         -13.6098   -6.9699   18.6961 C.ar    1  UNL1       -0.0029
      5 C         -13.5474   -8.1546   17.7782 C.ar    1  UNL1        0.0011
      6 C         -14.7136   -9.0933   17.6850 C.ar    1  UNL1        0.0199
      7 C         -12.4435   -6.0311   18.7893 C.2     1  UNL1       -0.0027
      8 C         -11.0438   -6.5701   18.7734 C.2     1  UNL1        0.0471
      9 C          -9.8776   -5.6314   18.8667 C.2     1  UNL1        0.2354
     10 N         -10.1111   -4.1537   18.9758 N.2     1  UNL1       -0.0341
     11 C         -11.5108   -3.6147   18.9917 C.2     1  UNL1        0.3588
     12 N         -12.0472   -2.2173   19.0892 N.2     1  UNL1       -0.0428
     13 C         -13.5450   -2.2924   19.0562 C.2     1  UNL1        0.1669
     14 C         -13.9343   -3.7362   18.9383 C.2     1  UNL1        0.0323
     15 C         -12.6770   -4.5534   18.8985 C.3     1  UNL1        0.1596
     16 C         -14.4880   -1.1280   19.1284 C.3     1  UNL1        0.0658
     17 C         -14.8091    0.3045   18.8208 C.3     1  UNL1        0.0087
     18 C         -15.8001   -0.5439   19.5611 C.3     1  UNL1        0.0087
     19 O         -17.5500   -9.1118   17.1512 O.2     1  UNL1       -0.1530
     20 S         -17.1085   -9.7860   18.4163 S.O2    1  UNL1        0.0603
     21 O         -16.6670  -10.4602   19.6813 O.2     1  UNL1       -0.1530
     22 N         -18.2747  -10.7247   18.3230 N.3     1  UNL1       -0.1768
     23 H         -18.3515  -11.1896   19.2276 H       1  UNL1        0.1489
     24 C         -19.6385  -10.1959   17.9907 C.3     1  UNL1        0.1231
     25 C         -20.4639   -9.5304   19.0519 C.3     1  UNL1        0.1559
     26 O         -20.2891   -9.9172   20.4905 O.3     1  UNL1       -0.3805
     27 H         -20.5744  -10.8358   20.6153 H       1  UNL1        0.2105
@<TRIPOS>BOND
     1    19    20    2
     2    20    21    2
     3    20    22    1
     4    22    24    1
     5    24    25    1
     6    25    26    1
     7    20     1    1
     8     1     2   ar
     9     2     3   ar
    10     3     4   ar
    11     4     7    1
    12     7     8    2
    13     8     9    1
    14     9    10    2
    15    10    11    1
    16    11    12    2
    17    12    13    1
    18    13    16    1
    19    16    17    1
    20    17    18    1
    21    13    14    2
    22    14    15    1
    23     4     5   ar
    24     5     6   ar
    25     6     1   ar
    26    15     7    1
    27    15    11    1
    28    18    16    1
    29    22    23    1
    30    26    27    1
@<TRIPOS>MOLECULE
*****
 27 30 0 0 0
SMALL
GASTEIGER

@<TRIPOS>ATOM
      1 C         -13.9773   -6.3846   18.5251 C.ar    1  UNL1        0.1219
      2 C         -13.2096   -5.6811   19.6048 C.ar    1  UNL1        0.0199
      3 C         -12.7126   -4.2834   19.3826 C.ar    1  UNL1        0.0011
      4 C         -12.9833   -3.5891   18.0808 C.ar    1  UNL1       -0.0029
      5 C         -13.7510   -4.2926   17.0011 C.ar    1  UNL1        0.0011
      6 C         -14.2480   -5.6903   17.2232 C.ar    1  UNL1        0.0199
      7 C         -12.4862   -2.1914   17.8587 C.2     1  UNL1       -0.0027
      8 C         -11.1482   -1.9638   17.2200 C.2     1  UNL1        0.0471
      9 C         -10.6512   -0.5661   16.9979 C.2     1  UNL1        0.2354
     10 N         -11.4922    0.6040   17.4144 N.2     1  UNL1       -0.0341
     11 C         -12.8302    0.3765   18.0531 C.2     1  UNL1        0.3588
     12 N         -13.8732    1.3259   18.5638 N.2     1  UNL1       -0.0428
     13 C         -15.0148    0.5149   19.1016 C.2     1  UNL1        0.1669
     14 C         -14.6774   -0.9357   18.9232 C.2     1  UNL1        0.0323
     15 C         -13.3272   -1.0212   18.2752 C.3     1  UNL1        0.1596
     16 C         -16.2729    1.0592   19.7108 C.3     1  UNL1        0.0658
     17 C         -16.9596    2.0368   20.6177 C.3     1  UNL1        0.0087
     18 C         -17.7651    1.0241   19.8591 C.3     1  UNL1        0.0087
     19 O         -13.3284   -8.3179   17.9411 O.2     1  UNL1       -0.1530
     20 S         -14.4744   -7.7823   18.7472 S.O2    1  UNL1        0.0603
     21 O         -15.6204   -7.2467   19.5533 O.2     1  UNL1       -0.1530
     22 N         -14.9714   -9.1800   18.9693 N.3     1  UNL1       -0.1768
     23 H         -14.4447   -9.5582   19.7566 H       1  UNL1        0.1489
     24 C         -16.4224   -9.4223   19.2626 C.3     1  UNL1        0.1231
     25 C         -17.1421  -10.5588   18.5990 C.3     1  UNL1        0.1559
     26 O         -16.9721  -11.9572   19.1144 O.3     1  UNL1       -0.3805
     27 H         -16.0555  -12.2432   18.9770 H       1  UNL1        0.2105
@<TRIPOS>BOND
     1    19    20    2
     2    20    21    2
     3    20    22    1
     4    22    24    1
     5    24    25    1
     6    25    26    1
     7    20     1    1
     8     1     2   ar
     9     2     3   ar
    10     3     4   ar
    11     4     7    1
    12     7     8    2
    13     8     9    1
    14     9    10    2
    15    10    11    1
    16    11    12    2
    17    12    13    1
    18    13    16    1
    19    16    17    1
    20    17    18    1
    21    13    14    2
    22    14    15    1
    23     4     5   ar
    24     5     6   ar
    25     6     1   ar
    26    15     7    1
    27    15    11    1
    28    18    16    1
    29    22    23    1
    30    26    27    1
@<TRIPOS>MOLECULE
*****
 27 30 0 0 0
SMALL
GASTEIGER

@<TRIPOS>ATOM
      1 C           0.6988    1.6990   19.4644 C.ar    1  UNL1        0.1219
      2 C           2.0642    1.6259   18.8477 C.ar    1  UNL1        0.0199
      3 C           2.9205    0.4132   19.0631 C.ar    1  UNL1        0.0011
      4 C           2.4113   -0.7262   19.8951 C.ar    1  UNL1       -0.0029
      5 C           1.0459   -0.6531   20.5119 C.ar    1  UNL1        0.0011
      6 C           0.1897    0.5595   20.2965 C.ar    1  UNL1        0.0199
      7 C           3.2676   -1.9389   20.1105 C.2     1  UNL1       -0.0027
      8 C           3.5433   -2.8744   18.9708 C.2     1  UNL1        0.0471
      9 C           4.3995   -4.0870   19.1862 C.2     1  UNL1        0.2354
     10 N           4.9800   -4.3641   20.5413 N.2     1  UNL1       -0.0341
     11 C           4.7042   -3.4287   21.6810 C.2     1  UNL1        0.3588
     12 N           5.1361   -3.4419   23.1174 N.2     1  UNL1       -0.0428
     13 C           4.5469   -2.2375   23.7897 C.2     1  UNL1        0.1669
     14 C           3.7508   -1.4798   22.7689 C.2     1  UNL1        0.0323
     15 C           3.8480   -2.2161   21.4656 C.3     1  UNL1        0.1596
     16 C           4.7228   -1.8574   25.2302 C.3     1  UNL1        0.0658
     17 C           5.5962   -1.7321   26.4432 C.3     1  UNL1        0.0087
     18 C           4.1543   -1.3245   26.5118 C.3     1  UNL1        0.0087
     19 O          -0.3463    3.0415   20.7315 O.2     1  UNL1       -0.1530
     20 S          -0.1574    2.9116   19.2491 S.O2    1  UNL1        0.0603
     21 O           0.0314    2.7817   17.7668 O.2     1  UNL1       -0.1530
     22 N          -1.0137    4.1242   19.0338 N.3     1  UNL1       -0.1768
     23 H          -0.5381    4.7011   18.3399 H       1  UNL1        0.1489
     24 C          -2.4313    3.9684   18.5691 C.3     1  UNL1        0.1231
     25 C          -3.5284    3.7493   19.5684 C.3     1  UNL1        0.1559
     26 O          -3.3940    2.6744   20.6060 O.3     1  UNL1       -0.3805
     27 H          -3.3924    1.8061   20.1736 H       1  UNL1        0.2105
@<TRIPOS>BOND
     1    19    20    2
     2    20    21    2
     3    20    22    1
     4    22    24    1
     5    24    25    1
     6    25    26    1
     7    20     1    1
     8     1     2   ar
     9     2     3   ar
    10     3     4   ar
    11     4     7    1
    12     7     8    2
    13     8     9    1
    14     9    10    2
    15    10    11    1
    16    11    12    2
    17    12    13    1
    18    13    16    1
    19    16    17    1
    20    17    18    1
    21    13    14    2
    22    14    15    1
    23     4     5   ar
    24     5     6   ar
    25     6     1   ar
    26    15     7    1
    27    15    11    1
    28    18    16    1
    29    22    23    1
    30    26    27    1
@<TRIPOS>MOLECULE
*****
 27 30 0 0 0
SMALL
GASTEIGER

@<TRIPOS>ATOM
      1 C           6.4333   -2.4084   32.4904 C.ar    1  UNL1        0.1219
      2 C           7.2595   -1.2802   33.0332 C.ar    1  UNL1        0.0199
      3 C           6.6800   -0.3525   34.0596 C.ar    1  UNL1        0.0011
      4 C           5.2743   -0.5528   34.5431 C.ar    1  UNL1       -0.0029
      5 C           4.4481   -1.6810   34.0003 C.ar    1  UNL1        0.0011
      6 C           5.0275   -2.6087   32.9740 C.ar    1  UNL1        0.0199
      7 C           4.6948    0.3749   35.5695 C.2     1  UNL1       -0.0027
      8 C           5.1653    0.3076   36.9922 C.2     1  UNL1        0.0471
      9 C           4.5857    1.2353   38.0185 C.2     1  UNL1        0.2354
     10 N           3.5357    2.2305   37.6222 N.2     1  UNL1       -0.0341
     11 C           3.0652    2.2979   36.1995 C.2     1  UNL1        0.3588
     12 N           2.0512    3.1680   35.5178 N.2     1  UNL1       -0.0428
     13 C           2.0040    2.7780   34.0701 C.2     1  UNL1        0.1669
     14 C           2.9889    1.6668   33.8571 C.2     1  UNL1        0.0323
     15 C           3.6447    1.3701   35.1732 C.3     1  UNL1        0.1596
     16 C           1.1261    3.3915   33.0199 C.3     1  UNL1        0.0658
     17 C           0.5184    3.3514   31.6491 C.3     1  UNL1        0.0087
     18 C           0.2132    4.4941   32.5717 C.3     1  UNL1        0.0087
     19 O           6.5024   -4.5137   32.2404 O.2     1  UNL1       -0.1530
     20 S           7.0127   -3.3361   31.4640 S.O2    1  UNL1        0.0603
     21 O           7.5231   -2.1586   30.6877 O.2     1  UNL1       -0.1530
     22 N           7.5922   -4.2639   30.4377 N.3     1  UNL1       -0.1768
     23 H           8.3756   -4.7425   30.8823 H       1  UNL1        0.1489
     24 C           6.7333   -5.3247   29.8156 C.3     1  UNL1        0.1231
     25 C           6.5682   -5.3778   28.3256 C.3     1  UNL1        0.1559
     26 O           5.3721   -6.0571   27.7273 O.3     1  UNL1       -0.3805
     27 H           5.4095   -7.0069   27.9204 H       1  UNL1        0.2105
@<TRIPOS>BOND
     1    19    20    2
     2    20    21    2
     3    20    22    1
     4    22    24    1
     5    24    25    1
     6    25    26    1
     7    20     1    1
     8     1     2   ar
     9     2     3   ar
    10     3     4   ar
    11     4     7    1
    12     7     8    2
    13     8     9    1
    14     9    10    2
    15    10    11    1
    16    11    12    2
    17    12    13    1
    18    13    16    1
    19    16    17    1
    20    17    18    1
    21    13    14    2
    22    14    15    1
    23     4     5   ar
    24     5     6   ar
    25     6     1   ar
    26    15     7    1
    27    15    11    1
    28    18    16    1
    29    22    23    1
    30    26    27    1
@<TRIPOS>MOLECULE
*****
 27 30 0 0 0
SMALL
GASTEIGER

@<TRIPOS>ATOM
      1 C           3.5222    1.3108   35.8714 C.ar    1  UNL1        0.1219
      2 C           4.3059    0.0366   35.7605 C.ar    1  UNL1        0.0199
      3 C           4.6767   -0.5008   34.4100 C.ar    1  UNL1        0.0011
      4 C           4.2638    0.2361   33.1704 C.ar    1  UNL1       -0.0029
      5 C           3.4801    1.5102   33.2813 C.ar    1  UNL1        0.0011
      6 C           3.1093    2.0476   34.6317 C.ar    1  UNL1        0.0199
      7 C           4.6346   -0.3013   31.8199 C.2     1  UNL1       -0.0027
      8 C           6.0395   -0.7539   31.5527 C.2     1  UNL1        0.0471
      9 C           6.4102   -1.2912   30.2022 C.2     1  UNL1        0.2354
     10 N           5.3760   -1.3759   29.1190 N.2     1  UNL1       -0.0341
     11 C           3.9712   -0.9234   29.3862 C.2     1  UNL1        0.3588
     12 N           2.7465   -0.8874   28.5209 N.2     1  UNL1       -0.0428
     13 C           1.6188   -0.3279   29.3366 C.2     1  UNL1        0.1669
     14 C           2.1466   -0.0180   30.7060 C.2     1  UNL1        0.0323
     15 C           3.6004   -0.3860   30.7367 C.3     1  UNL1        0.1596
     16 C           0.2106   -0.1155   28.8655 C.3     1  UNL1        0.0658
     17 C          -0.8070    0.7211   28.1481 C.3     1  UNL1        0.0087
     18 C          -1.2109   -0.5843   28.7668 C.3     1  UNL1        0.0087
     19 O           2.1165    2.7290   36.5871 O.2     1  UNL1       -0.1530
     20 S           3.1514    1.8481   37.2218 S.O2    1  UNL1        0.0603
     21 O           4.1864    0.9672   37.8565 O.2     1  UNL1       -0.1530
     22 N           2.7806    2.3855   38.5722 N.3     1  UNL1       -0.1768
     23 H           2.9372    3.3929   38.5414 H       1  UNL1        0.1489
     24 C           1.3945    2.1789   39.1069 C.3     1  UNL1        0.1231
     25 C           1.0228    0.8720   39.7424 C.3     1  UNL1        0.1559
     26 O           2.0768   -0.1640   39.9986 O.3     1  UNL1       -0.3805
     27 H           2.4243   -0.4878   39.1529 H       1  UNL1        0.2105
@<TRIPOS>BOND
     1    19    20    2
     2    20    21    2
     3    20    22    1
     4    22    24    1
     5    24    25    1
     6    25    26    1
     7    20     1    1
     8     1     2   ar
     9     2     3   ar
    10     3     4   ar
    11     4     7    1
    12     7     8    2
    13     8     9    1
    14     9    10    2
    15    10    11    1
    16    11    12    2
    17    12    13    1
    18    13    16    1
    19    16    17    1
    20    17    18    1
    21    13    14    2
    22    14    15    1
    23     4     5   ar
    24     5     6   ar
    25     6     1   ar
    26    15     7    1
    27    15    11    1
    28    18    16    1
    29    22    23    1
    30    26    27    1
@<TRIPOS>MOLECULE
*****
 27 30 0 0 0
SMALL
GASTEIGER

@<TRIPOS>ATOM
      1 C         -12.6691   -2.2281   18.1818 C.ar    1  UNL1        0.1219
      2 C         -13.6855   -1.5643   17.3007 C.ar    1  UNL1        0.0199
      3 C         -15.0629   -1.2834   17.8244 C.ar    1  UNL1        0.0011
      4 C         -15.4237   -1.6663   19.2290 C.ar    1  UNL1       -0.0029
      5 C         -14.4073   -2.3301   20.1101 C.ar    1  UNL1        0.0011
      6 C         -13.0300   -2.6110   19.5865 C.ar    1  UNL1        0.0199
      7 C         -16.8011   -1.3855   19.7526 C.2     1  UNL1       -0.0027
      8 C         -17.1702    0.0023   20.1858 C.2     1  UNL1        0.0471
      9 C         -18.5475    0.2831   20.7094 C.2     1  UNL1        0.2354
     10 N         -19.5556   -0.8239   20.7998 N.2     1  UNL1       -0.0341
     11 C         -19.1865   -2.2117   20.3667 C.2     1  UNL1        0.3588
     12 N         -19.9629   -3.4948   20.3403 N.2     1  UNL1       -0.0428
     13 C         -19.0655   -4.5687   19.8003 C.2     1  UNL1        0.1669
     14 C         -17.7344   -3.9492   19.4930 C.2     1  UNL1        0.0323
     15 C         -17.8092   -2.4925   19.8431 C.3     1  UNL1        0.1596
     16 C         -19.4345   -6.0091   19.6025 C.3     1  UNL1        0.0658
     17 C         -20.1087   -7.2564   20.0919 C.3     1  UNL1        0.0087
     18 C         -19.3993   -7.2566   18.7703 C.3     1  UNL1        0.0087
     19 O         -10.6981   -1.9107   18.8990 O.2     1  UNL1       -0.1530
     20 S         -11.2918   -2.5089   17.6582 S.O2    1  UNL1        0.0603
     21 O         -11.8855   -3.1071   16.4174 O.2     1  UNL1       -0.1530
     22 N          -9.9145   -2.7898   17.1347 N.3     1  UNL1       -0.1768
     23 H          -9.2589   -2.3453   17.7773 H       1  UNL1        0.1489
     24 C          -9.4540   -4.2063   16.9573 C.3     1  UNL1        0.1231
     25 C          -9.5195   -5.1660   18.1083 C.3     1  UNL1        0.1559
     26 O          -9.4529   -4.6537   19.5166 O.3     1  UNL1       -0.3805
     27 H          -8.5788   -4.2656   19.6784 H       1  UNL1        0.2105
@<TRIPOS>BOND
     1    19    20    2
     2    20    21    2
     3    20    22    1
     4    22    24    1
     5    24    25    1
     6    25    26    1
     7    20     1    1
     8     1     2   ar
     9     2     3   ar
    10     3     4   ar
    11     4     7    1
    12     7     8    2
    13     8     9    1
    14     9    10    2
    15    10    11    1
    16    11    12    2
    17    12    13    1
    18    13    16    1
    19    16    17    1
    20    17    18    1
    21    13    14    2
    22    14    15    1
    23     4     5   ar
    24     5     6   ar
    25     6     1   ar
    26    15     7    1
    27    15    11    1
    28    18    16    1
    29    22    23    1
    30    26    27    1
@<TRIPOS>MOLECULE
*****
 27 30 0 0 0
SMALL
GASTEIGER

@<TRIPOS>ATOM
      1 C           3.9622    0.5872   17.9640 C.ar    1  UNL1        0.1219
      2 C           4.0256    2.0716   18.1708 C.ar    1  UNL1        0.0199
      3 C           2.7755    2.8392   18.4842 C.ar    1  UNL1        0.0011
      4 C           1.4621    2.1225   18.5907 C.ar    1  UNL1       -0.0029
      5 C           1.3988    0.6382   18.3839 C.ar    1  UNL1        0.0011
      6 C           2.6488   -0.1295   18.0706 C.ar    1  UNL1        0.0199
      7 C           0.2120    2.8901   18.9041 C.2     1  UNL1       -0.0027
      8 C          -0.5456    3.5713   17.8032 C.2     1  UNL1        0.0471
      9 C          -1.7956    4.3388   18.1166 C.2     1  UNL1        0.2354
     10 N          -2.2880    4.4253   19.5309 N.2     1  UNL1       -0.0341
     11 C          -1.5303    3.7441   20.6317 C.2     1  UNL1        0.3588
     12 N          -1.7709    3.6547   22.1096 N.2     1  UNL1       -0.0428
     13 C          -0.6695    2.8319   22.7096 C.2     1  UNL1        0.1669
     14 C           0.2517    2.4127   21.6026 C.2     1  UNL1        0.0323
     15 C          -0.2803    2.9765   20.3183 C.3     1  UNL1        0.1596
     16 C          -0.5163    2.4885   24.1618 C.3     1  UNL1        0.0658
     17 C           0.2182    1.7742   25.2572 C.3     1  UNL1        0.0087
     18 C          -0.9856    2.6082   25.5815 C.3     1  UNL1        0.0087
     19 O           4.4942   -0.8990   16.5470 O.2     1  UNL1       -0.1530
     20 S           5.2122   -0.1804   17.6507 S.O2    1  UNL1        0.0603
     21 O           5.9301    0.5382   18.7543 O.2     1  UNL1       -0.1530
     22 N           6.4622   -0.9480   17.3373 N.3     1  UNL1       -0.1768
     23 H           7.2473   -0.3494   17.5935 H       1  UNL1        0.1489
     24 C           6.7054   -2.2806   17.9817 C.3     1  UNL1        0.1231
     25 C           5.6330   -2.9176   18.8149 C.3     1  UNL1        0.1559
     26 O           4.4754   -3.6029   18.1513 O.3     1  UNL1       -0.3805
     27 H           3.9424   -2.9480   17.6738 H       1  UNL1        0.2105
@<TRIPOS>BOND
     1    19    20    2
     2    20    21    2
     3    20    22    1
     4    22    24    1
     5    24    25    1
     6    25    26    1
     7    20     1    1
     8     1     2   ar
     9     2     3   ar
    10     3     4   ar
    11     4     7    1
    12     7     8    2
    13     8     9    1
    14     9    10    2
    15    10    11    1
    16    11    12    2
    17    12    13    1
    18    13    16    1
    19    16    17    1
    20    17    18    1
    21    13    14    2
    22    14    15    1
    23     4     5   ar
    24     5     6   ar
    25     6     1   ar
    26    15     7    1
    27    15    11    1
    28    18    16    1
    29    22    23    1
    30    26    27    1
