@<TRIPOS>MOLECULE
*****
 14 15 0 0 0
SMALL
GASTEIGER

@<TRIPOS>ATOM
      1 N           3.8789  -10.4942   26.7637 N.pl3   1  UNL1       -0.3255
      2 C           4.7609  -11.3954   27.5761 C.ar    1  UNL1        0.2415
      3 O           6.2328  -11.2175   27.8035 O.2     1  UNL1       -0.3370
      4 N           6.7074  -12.3450   28.6716 N.ar    1  UNL1       -0.0721
      5 C           5.5287  -13.2197   28.9807 C.ar    1  UNL1        0.1643
      6 C           4.3257  -12.6329   28.3036 C.ar    1  UNL1        0.1563
      7 H           4.2594   -9.7012   26.3215 H       1  UNL1        0.1452
      8 H           2.9195  -10.6956   26.6729 H       1  UNL1        0.1452
      9 N           2.9322  -13.1864   28.3466 N.ar    1  UNL1       -0.2198
     10 C           2.5525  -14.6306   28.2049 C.ar    1  UNL1        0.1318
     11 C           1.0594  -14.7296   28.3095 C.ar    1  UNL1        0.1800
     12 F           0.2512  -15.9903   28.2230 F       1  UNL1       -0.2008
     13 C           0.5164  -13.3467   28.5160 C.ar    1  UNL1        0.1516
     14 N           1.6739  -12.3929   28.5389 N.ar    1  UNL1       -0.1608
@<TRIPOS>BOND
     1     1     2    1
     2     2     3   ar
     3     3     4   ar
     4     4     5   ar
     5     5     6   ar
     6     6     9    1
     7     9    10   ar
     8    10    11   ar
     9    11    12    1
    10    11    13   ar
    11    13    14   ar
    12     6     2   ar
    13    14     9   ar
    14     1     7    1
    15     1     8    1
@<TRIPOS>MOLECULE
*****
 14 15 0 0 0
SMALL
GASTEIGER

@<TRIPOS>ATOM
      1 N          -7.7195  -14.3167   23.9920 N.pl3   1  UNL1       -0.3255
      2 C          -7.2106  -15.6125   23.4335 C.ar    1  UNL1        0.2415
      3 O          -5.7961  -16.1069   23.5016 O.2     1  UNL1       -0.3370
      4 N          -5.7381  -17.4414   22.8191 N.ar    1  UNL1       -0.0721
      5 C          -7.1168  -17.7718   22.3292 C.ar    1  UNL1        0.1643
      6 C          -8.0268  -16.6414   22.7089 C.ar    1  UNL1        0.1563
      7 H          -7.1028  -13.7037   24.4537 H       1  UNL1        0.1452
      8 H          -8.6702  -14.0792   23.8968 H       1  UNL1        0.1452
      9 N          -9.4953  -16.5552   22.4155 N.ar    1  UNL1       -0.2198
     10 C         -10.6049  -16.9407   23.3484 C.ar    1  UNL1        0.1318
     11 C         -11.9074  -16.6921   22.6472 C.ar    1  UNL1        0.1800
     12 F         -13.2745  -16.9393   23.2129 F       1  UNL1       -0.2008
     13 C         -11.6029  -16.1528   21.2810 C.ar    1  UNL1        0.1516
     14 N         -10.1120  -16.0682   21.1378 N.ar    1  UNL1       -0.1608
@<TRIPOS>BOND
     1     1     2    1
     2     2     3   ar
     3     3     4   ar
     4     4     5   ar
     5     5     6   ar
     6     6     9    1
     7     9    10   ar
     8    10    11   ar
     9    11    12    1
    10    11    13   ar
    11    13    14   ar
    12     6     2   ar
    13    14     9   ar
    14     1     7    1
    15     1     8    1
@<TRIPOS>MOLECULE
*****
 14 15 0 0 0
SMALL
GASTEIGER

@<TRIPOS>ATOM
      1 N          -8.9413  -15.4543   21.7543 N.pl3   1  UNL1       -0.3255
      2 C         -10.1460  -16.1128   21.1502 C.ar    1  UNL1        0.2415
      3 O         -10.8727  -15.6615   19.9180 O.2     1  UNL1       -0.3370
      4 N         -12.0114  -16.6081   19.6785 N.ar    1  UNL1       -0.0721
      5 C         -11.9885  -17.6445   20.7626 C.ar    1  UNL1        0.1643
      6 C         -10.8356  -17.3384   21.6722 C.ar    1  UNL1        0.1563
      7 H          -8.5590  -14.6491   21.3363 H       1  UNL1        0.1452
      8 H          -8.5329  -15.8272   22.5687 H       1  UNL1        0.1452
      9 N         -10.4415  -18.1206   22.8899 N.ar    1  UNL1       -0.2198
     10 C         -10.2633  -19.6082   22.9627 C.ar    1  UNL1        0.1318
     11 C          -9.8681  -19.9595   24.3664 C.ar    1  UNL1        0.1800
     12 F          -9.5881  -21.3391   24.8844 F       1  UNL1       -0.2008
     13 C          -9.8021  -18.6891   25.1612 C.ar    1  UNL1        0.1516
     14 N         -10.1565  -17.5525   24.2486 N.ar    1  UNL1       -0.1608
@<TRIPOS>BOND
     1     1     2    1
     2     2     3   ar
     3     3     4   ar
     4     4     5   ar
     5     5     6   ar
     6     6     9    1
     7     9    10   ar
     8    10    11   ar
     9    11    12    1
    10    11    13   ar
    11    13    14   ar
    12     6     2   ar
    13    14     9   ar
    14     1     7    1
    15     1     8    1
@<TRIPOS>MOLECULE
*****
 14 15 0 0 0
SMALL
GASTEIGER

@<TRIPOS>ATOM
      1 N          -9.6974  -15.0639   20.8678 N.pl3   1  UNL1       -0.3255
      2 C         -10.7108  -16.1645   20.9768 C.ar    1  UNL1        0.2415
      3 O         -12.1909  -16.0230   20.7791 O.2     1  UNL1       -0.3370
      4 N         -12.8168  -17.3709   20.9828 N.ar    1  UNL1       -0.0721
      5 C         -11.7234  -18.3455   21.3064 C.ar    1  UNL1        0.1643
      6 C         -10.4218  -17.5999   21.3027 C.ar    1  UNL1        0.1563
      7 H          -9.9864  -14.1487   20.6481 H       1  UNL1        0.1452
      8 H          -8.7434  -15.2567   21.0160 H       1  UNL1        0.1452
      9 N          -9.0689  -18.1867   21.5768 N.ar    1  UNL1       -0.2198
     10 C          -8.7846  -19.6126   21.9453 C.ar    1  UNL1        0.1318
     11 C          -7.3027  -19.7578   22.1268 C.ar    1  UNL1        0.1800
     12 F          -6.5793  -21.0180   22.4992 F       1  UNL1       -0.2008
     13 C          -6.6711  -18.4216   21.8704 C.ar    1  UNL1        0.1516
     14 N          -7.7627  -17.4506   21.5305 N.ar    1  UNL1       -0.1608
@<TRIPOS>BOND
     1     1     2    1
     2     2     3   ar
     3     3     4   ar
     4     4     5   ar
     5     5     6   ar
     6     6     9    1
     7     9    10   ar
     8    10    11   ar
     9    11    12    1
    10    11    13   ar
    11    13    14   ar
    12     6     2   ar
    13    14     9   ar
    14     1     7    1
    15     1     8    1
@<TRIPOS>MOLECULE
*****
 14 15 0 0 0
SMALL
GASTEIGER

@<TRIPOS>ATOM
      1 N         -10.3990  -15.0498   19.7308 N.pl3   1  UNL1       -0.3255
      2 C         -11.1424  -16.0929   20.5114 C.ar    1  UNL1        0.2415
      3 O         -12.4300  -16.7467   20.1058 O.2     1  UNL1       -0.3370
      4 N         -12.8121  -17.7232   21.1784 N.ar    1  UNL1       -0.0721
      5 C         -11.7606  -17.6729   22.2470 C.ar    1  UNL1        0.1643
      6 C         -10.7287  -16.6653   21.8347 C.ar    1  UNL1        0.1563
      7 H         -10.7527  -14.7361   18.8673 H       1  UNL1        0.1452
      8 H          -9.5573  -14.6790   20.0820 H       1  UNL1        0.1452
      9 N          -9.4989  -16.2952   22.6098 N.ar    1  UNL1       -0.2198
     10 C          -9.3758  -16.2607   24.1043 C.ar    1  UNL1        0.1318
     11 C          -7.9772  -15.8388   24.4446 C.ar    1  UNL1        0.1800
     12 F          -7.4180  -15.6724   25.8265 F       1  UNL1       -0.2008
     13 C          -7.2358  -15.6125   23.1604 C.ar    1  UNL1        0.1516
     14 N          -8.1764  -15.8946   22.0264 N.ar    1  UNL1       -0.1608
@<TRIPOS>BOND
     1     1     2    1
     2     2     3   ar
     3     3     4   ar
     4     4     5   ar
     5     5     6   ar
     6     6     9    1
     7     9    10   ar
     8    10    11   ar
     9    11    12    1
    10    11    13   ar
    11    13    14   ar
    12     6     2   ar
    13    14     9   ar
    14     1     7    1
    15     1     8    1
@<TRIPOS>MOLECULE
*****
 14 15 0 0 0
SMALL
GASTEIGER

@<TRIPOS>ATOM
      1 N          -8.9533  -19.0575   19.5998 N.pl3   1  UNL1       -0.3255
      2 C          -8.3522  -18.3912   20.8018 C.ar    1  UNL1        0.2415
      3 O          -6.8881  -18.1914   21.0592 O.2     1  UNL1       -0.3370
      4 N          -6.7407  -17.4845   22.3739 N.ar    1  UNL1       -0.0721
      5 C          -8.1139  -17.2472   22.9291 C.ar    1  UNL1        0.1643
      6 C          -9.1098  -17.8076   21.9574 C.ar    1  UNL1        0.1563
      7 H          -8.3701  -19.4109   18.8898 H       1  UNL1        0.1452
      8 H          -9.9311  -19.1413   19.5209 H       1  UNL1        0.1452
      9 N         -10.6015  -17.7879   22.1140 N.ar    1  UNL1       -0.2198
     10 C         -11.3515  -17.7694   23.4129 C.ar    1  UNL1        0.1318
     11 C         -12.8186  -17.7533   23.1009 C.ar    1  UNL1        0.1800
     12 F         -13.9332  -17.7323   24.1044 F       1  UNL1       -0.2008
     13 C         -12.9754  -17.7618   21.6091 C.ar    1  UNL1        0.1516
     14 N         -11.6050  -17.7832   20.9992 N.ar    1  UNL1       -0.1608
@<TRIPOS>BOND
     1     1     2    1
     2     2     3   ar
     3     3     4   ar
     4     4     5   ar
     5     5     6   ar
     6     6     9    1
     7     9    10   ar
     8    10    11   ar
     9    11    12    1
    10    11    13   ar
    11    13    14   ar
    12     6     2   ar
    13    14     9   ar
    14     1     7    1
    15     1     8    1
@<TRIPOS>MOLECULE
*****
 14 15 0 0 0
SMALL
GASTEIGER

@<TRIPOS>ATOM
      1 N          -5.2811  -14.9747   23.1214 N.pl3   1  UNL1       -0.3255
      2 C          -5.8826  -15.1457   24.4849 C.ar    1  UNL1        0.2415
      3 O          -5.2265  -14.7973   25.7880 O.2     1  UNL1       -0.3370
      4 N          -6.1842  -15.1314   26.8931 N.ar    1  UNL1       -0.0721
      5 C          -7.4322  -15.6863   26.2730 C.ar    1  UNL1        0.1643
      6 C          -7.2458  -15.6951   24.7846 C.ar    1  UNL1        0.1563
      7 H          -4.3744  -14.6031   23.0265 H       1  UNL1        0.1452
      8 H          -5.7931  -15.2339   22.3215 H       1  UNL1        0.1452
      9 N          -8.2468  -16.1700   23.7735 N.ar    1  UNL1       -0.2198
     10 C          -9.7082  -16.4010   24.0209 C.ar    1  UNL1        0.1318
     11 C         -10.3269  -16.8710   22.7378 C.ar    1  UNL1        0.1800
     12 F         -11.7709  -17.2203   22.5313 F       1  UNL1       -0.2008
     13 C          -9.2479  -16.9306   21.6974 C.ar    1  UNL1        0.1516
     14 N          -7.9624  -16.4973   22.3376 N.ar    1  UNL1       -0.1608
@<TRIPOS>BOND
     1     1     2    1
     2     2     3   ar
     3     3     4   ar
     4     4     5   ar
     5     5     6   ar
     6     6     9    1
     7     9    10   ar
     8    10    11   ar
     9    11    12    1
    10    11    13   ar
    11    13    14   ar
    12     6     2   ar
    13    14     9   ar
    14     1     7    1
    15     1     8    1
@<TRIPOS>MOLECULE
*****
 14 15 0 0 0
SMALL
GASTEIGER

@<TRIPOS>ATOM
      1 N          -8.3740  -16.5635   27.3371 N.pl3   1  UNL1       -0.3255
      2 C          -7.8413  -16.0237   26.0430 C.ar    1  UNL1        0.2415
      3 O          -6.6430  -15.1355   25.8847 O.2     1  UNL1       -0.3370
      4 N          -6.4745  -14.8402   24.4238 N.ar    1  UNL1       -0.0721
      5 C          -7.5687  -15.5458   23.6790 C.ar    1  UNL1        0.1643
      6 C          -8.4135  -16.2773   24.6798 C.ar    1  UNL1        0.1563
      7 H          -7.9268  -16.3395   28.1851 H       1  UNL1        0.1452
      8 H          -9.1708  -17.1417   27.3385 H       1  UNL1        0.1452
      9 N          -9.6188  -17.1152   24.3714 N.ar    1  UNL1       -0.2198
     10 C         -10.6495  -16.8243   23.3211 C.ar    1  UNL1        0.1318
     11 C         -11.6727  -17.9204   23.3597 C.ar    1  UNL1        0.1800
     12 F         -12.8820  -18.0292   22.4788 F       1  UNL1       -0.2008
     13 C         -11.2745  -18.8888   24.4339 C.ar    1  UNL1        0.1516
     14 N         -10.0050  -18.3910   25.0591 N.ar    1  UNL1       -0.1608
@<TRIPOS>BOND
     1     1     2    1
     2     2     3   ar
     3     3     4   ar
     4     4     5   ar
     5     5     6   ar
     6     6     9    1
     7     9    10   ar
     8    10    11   ar
     9    11    12    1
    10    11    13   ar
    11    13    14   ar
    12     6     2   ar
    13    14     9   ar
    14     1     7    1
    15     1     8    1
@<TRIPOS>MOLECULE
*****
 14 15 0 0 0
SMALL
GASTEIGER

@<TRIPOS>ATOM
      1 N          -9.9325   -7.9629   19.0700 N.pl3   1  UNL1       -0.3255
      2 C         -10.2061   -6.4883   19.0420 C.ar    1  UNL1        0.2415
      3 O          -9.1753   -5.3994   19.0819 O.2     1  UNL1       -0.3370
      4 N          -9.8906   -4.0818   19.0337 N.ar    1  UNL1       -0.0721
      5 C         -11.3636   -4.3564   18.9640 C.ar    1  UNL1        0.1643
      6 C         -11.5586   -5.8437   18.9691 C.ar    1  UNL1        0.1563
      7 H          -9.0055   -8.2907   19.1189 H       1  UNL1        0.1452
      8 H         -10.6800   -8.6029   19.0396 H       1  UNL1        0.1452
      9 N         -12.8750   -6.5605   18.9115 N.ar    1  UNL1       -0.2198
     10 C         -14.1563   -6.1032   19.5432 C.ar    1  UNL1        0.1318
     11 C         -15.2144   -7.1205   19.2342 C.ar    1  UNL1        0.1800
     12 F         -16.6481   -7.0621   19.6712 F       1  UNL1       -0.2008
     13 C         -14.5870   -8.2067   18.4115 C.ar    1  UNL1        0.1516
     14 N         -13.1411   -7.8605   18.2121 N.ar    1  UNL1       -0.1608
@<TRIPOS>BOND
     1     1     2    1
     2     2     3   ar
     3     3     4   ar
     4     4     5   ar
     5     5     6   ar
     6     6     9    1
     7     9    10   ar
     8    10    11   ar
     9    11    12    1
    10    11    13   ar
    11    13    14   ar
    12     6     2   ar
    13    14     9   ar
    14     1     7    1
    15     1     8    1
