@<TRIPOS>MOLECULE
*****
 33 36 0 0 0
SMALL
GASTEIGER

@<TRIPOS>ATOM
      1 C          -5.5029  -16.6509   23.4825 C.ar    1  UNL1        0.0686
      2 C          -5.9050  -15.4850   24.3363 C.ar    1  UNL1        0.1045
      3 N          -7.3548  -15.2326   24.6265 N.ar    1  UNL1       -0.2290
      4 C          -8.4026  -16.1461   24.0629 C.ar    1  UNL1        0.1319
      5 C          -8.0005  -17.3120   23.2091 C.ar    1  UNL1        0.0303
      6 C          -6.5506  -17.5644   22.9189 C.ar    1  UNL1       -0.0138
      7 O          -3.3741  -18.1139   23.7609 O.2     1  UNL1       -0.2701
      8 C          -4.0531  -16.9033   23.1923 C.2     1  UNL1        0.2471
      9 N          -3.2822  -15.9450   22.3334 N.am    1  UNL1       -0.3008
     10 H          -3.7278  -15.1505   21.9602 H       1  UNL1        0.1497
     11 C          -1.8324  -16.1974   22.0432 C.3     1  UNL1        0.0898
     12 C          -1.4309  -16.8903   20.7748 C.3     1  UNL1        0.0246
     13 C          -2.4457  -17.1266   19.6958 C.3     1  UNL1        0.0338
     14 C          -2.0442  -17.8194   18.4274 C.3     1  UNL1        0.1422
     15 O          -0.6279  -18.2759   18.2381 O.3     1  UNL1       -0.3538
     16 C           0.3868  -18.0396   19.3171 C.3     1  UNL1        0.1422
     17 C          -0.0147  -17.3468   20.5855 C.3     1  UNL1        0.0338
     18 C          -6.1485  -18.7303   22.0652 C.3     1  UNL1        0.0226
     19 C          -5.3974  -19.2817   20.8897 C.3     1  UNL1        0.0047
     20 C          -6.2032  -20.1983   21.7618 C.3     1  UNL1        0.0047
     21 N          -9.8525  -15.8937   24.3531 N.pl3   1  UNL1       -0.2979
     22 H         -10.1102  -15.2244   25.0275 H       1  UNL1        0.1536
     23 C         -10.9096  -16.6611   23.6159 C.ar    1  UNL1        0.0524
     24 C         -11.6023  -17.8128   24.2819 C.ar    1  UNL1        0.0148
     25 C         -12.6594  -18.5802   23.5447 C.ar    1  UNL1        0.0044
     26 C         -13.0238  -18.1959   22.1413 C.ar    1  UNL1        0.0373
     27 C         -12.3311  -17.0442   21.4752 C.ar    1  UNL1        0.1480
     28 C         -11.2740  -16.2768   22.2125 C.ar    1  UNL1        0.0518
     29 O         -12.6955  -16.6599   20.0718 O.3     1  UNL1       -0.4044
     30 C         -11.7411  -15.8516   19.2437 C.3     1  UNL1        0.5753
     31 F         -10.7867  -15.0432   18.4157 F       1  UNL1       -0.1328
     32 F         -10.6716  -16.8777   19.4747 F       1  UNL1       -0.1328
     33 F         -12.8105  -14.8254   19.0128 F       1  UNL1       -0.1328
@<TRIPOS>BOND
     1     7     8    2
     2     8     9   am
     3     9    11    1
     4    11    12    1
     5    12    13    1
     6    13    14    1
     7    14    15    1
     8    15    16    1
     9    16    17    1
    10     8     1    1
    11     1     2   ar
    12     2     3   ar
    13     3     4   ar
    14     4    21    1
    15    21    23    1
    16    23    24   ar
    17    24    25   ar
    18    25    26   ar
    19    26    27   ar
    20    27    29    1
    21    29    30    1
    22    30    31    1
    23    30    32    1
    24    30    33    1
    25    27    28   ar
    26     4     5   ar
    27     5     6   ar
    28     6    18    1
    29    18    19    1
    30    19    20    1
    31    17    12    1
    32     6     1   ar
    33    20    18    1
    34    28    23   ar
    35     9    10    1
    36    21    22    1
@<TRIPOS>MOLECULE
*****
 33 36 0 0 0
SMALL
GASTEIGER

@<TRIPOS>ATOM
      1 C          -0.9627    3.2438   20.5724 C.ar    1  UNL1        0.0686
      2 C          -0.2711    2.6477   21.7625 C.ar    1  UNL1        0.1045
      3 N           1.1500    2.1815   21.6484 N.ar    1  UNL1       -0.2290
      4 C           1.8796    2.3115   20.3442 C.ar    1  UNL1        0.1319
      5 C           1.1880    2.9076   19.1541 C.ar    1  UNL1        0.0303
      6 C          -0.2332    3.3738   19.2683 C.ar    1  UNL1       -0.0138
      7 O          -2.6879    5.1767   20.7669 O.2     1  UNL1       -0.2701
      8 C          -2.3838    3.7100   20.6865 C.2     1  UNL1        0.2471
      9 N          -3.5009    2.7095   20.7202 N.am    1  UNL1       -0.3008
     10 H          -3.3014    1.7469   20.6674 H       1  UNL1        0.1497
     11 C          -4.9221    3.1757   20.8342 C.3     1  UNL1        0.0898
     12 C          -5.4689    3.5961   22.1663 C.3     1  UNL1        0.0246
     13 C          -6.7589    4.3577   22.2410 C.3     1  UNL1        0.0338
     14 C          -7.3057    4.7781   23.5730 C.3     1  UNL1        0.1422
     15 O          -6.5624    4.4367   24.8304 O.3     1  UNL1       -0.3538
     16 C          -5.2723    3.6751   24.7557 C.3     1  UNL1        0.1422
     17 C          -4.7256    3.2547   23.4237 C.3     1  UNL1        0.0338
     18 C          -0.9248    3.9700   18.0782 C.3     1  UNL1        0.0226
     19 C          -1.1413    5.1240   17.1449 C.3     1  UNL1        0.0047
     20 C          -1.9061    3.8484   16.9503 C.3     1  UNL1        0.0047
     21 N           3.3008    1.8453   20.2301 N.pl3   1  UNL1       -0.2979
     22 H           4.0208    2.3474   20.6758 H       1  UNL1        0.1536
     23 C           3.6248    0.6141   19.4370 C.ar    1  UNL1        0.0524
     24 C           3.9716    0.7288   17.9822 C.ar    1  UNL1        0.0148
     25 C           4.2957   -0.5025   17.1891 C.ar    1  UNL1        0.0044
     26 C           4.2730   -1.8484   17.8508 C.ar    1  UNL1        0.0373
     27 C           3.9262   -1.9631   19.3056 C.ar    1  UNL1        0.1480
     28 C           3.6021   -0.7319   20.0987 C.ar    1  UNL1        0.0518
     29 O           3.9035   -3.3091   19.9674 O.3     1  UNL1       -0.4044
     30 C           4.3168   -4.5295   19.1994 C.3     1  UNL1        0.5753
     31 F           4.7301   -5.7499   18.4314 F       1  UNL1       -0.1328
     32 F           2.8992   -4.7274   18.7509 F       1  UNL1       -0.1328
     33 F           5.7344   -4.3316   19.6479 F       1  UNL1       -0.1328
@<TRIPOS>BOND
     1     7     8    2
     2     8     9   am
     3     9    11    1
     4    11    12    1
     5    12    13    1
     6    13    14    1
     7    14    15    1
     8    15    16    1
     9    16    17    1
    10     8     1    1
    11     1     2   ar
    12     2     3   ar
    13     3     4   ar
    14     4    21    1
    15    21    23    1
    16    23    24   ar
    17    24    25   ar
    18    25    26   ar
    19    26    27   ar
    20    27    29    1
    21    29    30    1
    22    30    31    1
    23    30    32    1
    24    30    33    1
    25    27    28   ar
    26     4     5   ar
    27     5     6   ar
    28     6    18    1
    29    18    19    1
    30    19    20    1
    31    17    12    1
    32     6     1   ar
    33    20    18    1
    34    28    23   ar
    35     9    10    1
    36    21    22    1
@<TRIPOS>MOLECULE
*****
 33 36 0 0 0
SMALL
GASTEIGER

@<TRIPOS>ATOM
      1 C          -6.2202  -19.2725   20.2759 C.ar    1  UNL1        0.0686
      2 C          -6.9356  -20.0375   19.2021 C.ar    1  UNL1        0.1045
      3 N          -8.4343  -20.0993   19.1970 N.ar    1  UNL1       -0.2290
      4 C          -9.2176  -19.3961   20.2656 C.ar    1  UNL1        0.1319
      5 C          -8.5022  -18.6310   21.3393 C.ar    1  UNL1        0.0303
      6 C          -7.0034  -18.5693   21.3444 C.ar    1  UNL1       -0.0138
      7 O          -4.0038  -18.3301   19.3015 O.2     1  UNL1       -0.2701
      8 C          -4.7215  -19.2107   20.2810 C.2     1  UNL1        0.2471
      9 N          -3.9404  -20.0295   21.2657 N.am    1  UNL1       -0.3008
     10 H          -4.4115  -20.6075   21.9086 H       1  UNL1        0.1497
     11 C          -2.4417  -19.9677   21.2709 C.3     1  UNL1        0.0898
     12 C          -1.7442  -18.6599   21.0402 C.3     1  UNL1        0.0246
     13 C          -2.1652  -17.4402   21.8050 C.3     1  UNL1        0.0338
     14 C          -1.4676  -16.1325   21.5743 C.3     1  UNL1        0.1422
     15 O          -0.3491  -16.0444   20.5787 O.3     1  UNL1       -0.3538
     16 C           0.0718  -17.2641   19.8138 C.3     1  UNL1        0.1422
     17 C          -0.6257  -18.5719   20.0445 C.3     1  UNL1        0.0338
     18 C          -6.2880  -17.8042   22.4182 C.3     1  UNL1        0.0226
     19 C          -5.0606  -17.5693   23.2477 C.3     1  UNL1        0.0047
     20 C          -6.2764  -16.7141   23.4484 C.3     1  UNL1        0.0047
     21 N         -10.7163  -19.4579   20.2604 N.pl3   1  UNL1       -0.2979
     22 H         -11.1785  -20.1534   19.7391 H       1  UNL1        0.1536
     23 C         -11.5108  -18.4599   21.0496 C.ar    1  UNL1        0.0524
     24 C         -11.8805  -17.1419   20.4364 C.ar    1  UNL1        0.0148
     25 C         -12.6750  -16.1440   21.2256 C.ar    1  UNL1        0.0044
     26 C         -13.0999  -16.4641   22.6281 C.ar    1  UNL1        0.0373
     27 C         -12.7302  -17.7821   23.2413 C.ar    1  UNL1        0.1480
     28 C         -11.9357  -18.7800   22.4521 C.ar    1  UNL1        0.0518
     29 O         -13.1551  -18.1022   24.6439 O.3     1  UNL1       -0.4044
     30 C         -14.5831  -18.4598   24.9318 C.3     1  UNL1        0.5753
     31 F         -16.0112  -18.8175   25.2196 F       1  UNL1       -0.1328
     32 F         -14.2947  -18.4269   26.4034 F       1  UNL1       -0.1328
     33 F         -14.8716  -18.4927   23.4601 F       1  UNL1       -0.1328
@<TRIPOS>BOND
     1     7     8    2
     2     8     9   am
     3     9    11    1
     4    11    12    1
     5    12    13    1
     6    13    14    1
     7    14    15    1
     8    15    16    1
     9    16    17    1
    10     8     1    1
    11     1     2   ar
    12     2     3   ar
    13     3     4   ar
    14     4    21    1
    15    21    23    1
    16    23    24   ar
    17    24    25   ar
    18    25    26   ar
    19    26    27   ar
    20    27    29    1
    21    29    30    1
    22    30    31    1
    23    30    32    1
    24    30    33    1
    25    27    28   ar
    26     4     5   ar
    27     5     6   ar
    28     6    18    1
    29    18    19    1
    30    19    20    1
    31    17    12    1
    32     6     1   ar
    33    20    18    1
    34    28    23   ar
    35     9    10    1
    36    21    22    1
@<TRIPOS>MOLECULE
*****
 33 36 0 0 0
SMALL
GASTEIGER

@<TRIPOS>ATOM
      1 C          -6.5958  -16.7899   23.7078 C.ar    1  UNL1        0.0686
      2 C          -7.3790  -17.6997   22.8085 C.ar    1  UNL1        0.1045
      3 N          -8.7080  -18.2332   23.2546 N.ar    1  UNL1       -0.2290
      4 C          -9.2539  -17.8568   24.6002 C.ar    1  UNL1        0.1319
      5 C          -8.4707  -16.9469   25.4995 C.ar    1  UNL1        0.0303
      6 C          -7.1416  -16.4135   25.0533 C.ar    1  UNL1       -0.0138
      7 O          -5.0790  -14.7816   23.0629 O.2     1  UNL1       -0.2701
      8 C          -5.2668  -16.2564   23.2616 C.2     1  UNL1        0.2471
      9 N          -4.1255  -17.1979   23.0142 N.am    1  UNL1       -0.3008
     10 H          -4.2487  -18.1659   23.1446 H       1  UNL1        0.1497
     11 C          -2.7965  -16.6644   22.5680 C.3     1  UNL1        0.0898
     12 C          -2.1635  -17.1837   21.3111 C.3     1  UNL1        0.0246
     13 C          -2.9190  -18.1308   20.4268 C.3     1  UNL1        0.0338
     14 C          -2.2861  -18.6500   19.1699 C.3     1  UNL1        0.1422
     15 O          -0.8976  -18.2220   18.7973 O.3     1  UNL1       -0.3538
     16 C          -0.1420  -17.2748   19.6816 C.3     1  UNL1        0.1422
     17 C          -0.7750  -16.7557   20.9384 C.3     1  UNL1        0.0338
     18 C          -6.3584  -15.5036   25.9526 C.3     1  UNL1        0.0226
     19 C          -6.2740  -14.6531   27.1852 C.3     1  UNL1        0.0047
     20 C          -5.0864  -14.7782   26.2775 C.3     1  UNL1        0.0047
     21 N         -10.5829  -18.3902   25.0463 N.pl3   1  UNL1       -0.2979
     22 H         -10.6695  -18.8224   25.9266 H       1  UNL1        0.1536
     23 C         -11.7801  -18.2652   24.1513 C.ar    1  UNL1        0.0524
     24 C         -13.1613  -18.3634   24.7280 C.ar    1  UNL1        0.0148
     25 C         -14.3584  -18.2383   23.8329 C.ar    1  UNL1        0.0044
     26 C         -14.1744  -18.0151   22.3611 C.ar    1  UNL1        0.0373
     27 C         -12.7933  -17.9169   21.7844 C.ar    1  UNL1        0.1480
     28 C         -11.5961  -18.0419   22.6795 C.ar    1  UNL1        0.0518
     29 O         -12.6092  -17.6936   20.3125 O.3     1  UNL1       -0.4044
     30 C         -11.8485  -16.4963   19.8249 C.3     1  UNL1        0.5753
     31 F         -11.0878  -15.2990   19.3373 F       1  UNL1       -0.1328
     32 F         -10.6959  -17.3807   19.4515 F       1  UNL1       -0.1328
     33 F         -13.0011  -15.6119   20.1984 F       1  UNL1       -0.1328
@<TRIPOS>BOND
     1     7     8    2
     2     8     9   am
     3     9    11    1
     4    11    12    1
     5    12    13    1
     6    13    14    1
     7    14    15    1
     8    15    16    1
     9    16    17    1
    10     8     1    1
    11     1     2   ar
    12     2     3   ar
    13     3     4   ar
    14     4    21    1
    15    21    23    1
    16    23    24   ar
    17    24    25   ar
    18    25    26   ar
    19    26    27   ar
    20    27    29    1
    21    29    30    1
    22    30    31    1
    23    30    32    1
    24    30    33    1
    25    27    28   ar
    26     4     5   ar
    27     5     6   ar
    28     6    18    1
    29    18    19    1
    30    19    20    1
    31    17    12    1
    32     6     1   ar
    33    20    18    1
    34    28    23   ar
    35     9    10    1
    36    21    22    1
@<TRIPOS>MOLECULE
*****
 33 36 0 0 0
SMALL
GASTEIGER

@<TRIPOS>ATOM
      1 C           4.9296   -1.8844   21.0349 C.ar    1  UNL1        0.0686
      2 C           5.6350   -1.0218   22.0391 C.ar    1  UNL1        0.1045
      3 N           6.7034   -1.6088   22.9132 N.ar    1  UNL1       -0.2290
      4 C           7.0664   -3.0584   22.7831 C.ar    1  UNL1        0.1319
      5 C           6.3610   -3.9210   21.7790 C.ar    1  UNL1        0.0303
      6 C           5.2926   -3.3340   20.9049 C.ar    1  UNL1       -0.0138
      7 O           2.4333   -1.2965   20.6199 O.2     1  UNL1       -0.2701
      8 C           3.8613   -1.2974   20.1609 C.2     1  UNL1        0.2471
      9 N           4.2210   -0.7114   18.8277 N.am    1  UNL1       -0.3008
     10 H           5.1582   -0.7121   18.5264 H       1  UNL1        0.1497
     11 C           3.1526   -0.1245   17.9536 C.3     1  UNL1        0.0898
     12 C           2.5175    1.1838   18.3213 C.3     1  UNL1        0.0246
     13 C           1.0243    1.2932   18.4125 C.3     1  UNL1        0.0338
     14 C           0.3892    2.6014   18.7802 C.3     1  UNL1        0.1422
     15 O           1.2474    3.8002   19.0567 O.3     1  UNL1       -0.3538
     16 C           2.7406    3.6908   18.9656 C.3     1  UNL1        0.1422
     17 C           3.3756    2.3826   18.5979 C.3     1  UNL1        0.0338
     18 C           4.5872   -4.1966   19.9007 C.3     1  UNL1        0.0226
     19 C           4.6220   -5.0427   18.6626 C.3     1  UNL1        0.0047
     20 C           3.3306   -4.8445   19.3996 C.3     1  UNL1        0.0047
     21 N           8.1347   -3.6454   23.6572 N.pl3   1  UNL1       -0.2979
     22 H           9.0326   -3.2421   23.6753 H       1  UNL1        0.1536
     23 C           7.8350   -4.8469   24.5037 C.ar    1  UNL1        0.0524
     24 C           8.2878   -6.2071   24.0625 C.ar    1  UNL1        0.0148
     25 C           7.9882   -7.4086   24.9090 C.ar    1  UNL1        0.0044
     26 C           7.2357   -7.2499   26.1968 C.ar    1  UNL1        0.0373
     27 C           6.7828   -5.8897   26.6381 C.ar    1  UNL1        0.1480
     28 C           7.0825   -4.6882   25.7916 C.ar    1  UNL1        0.0518
     29 O           6.0303   -5.7309   27.9260 O.3     1  UNL1       -0.4044
     30 C           6.7027   -5.1137   29.1163 C.3     1  UNL1        0.5753
     31 F           7.3751   -4.4965   30.3067 F       1  UNL1       -0.1328
     32 F           6.0892   -3.7880   28.7755 F       1  UNL1       -0.1328
     33 F           7.3162   -6.4394   29.4571 F       1  UNL1       -0.1328
@<TRIPOS>BOND
     1     7     8    2
     2     8     9   am
     3     9    11    1
     4    11    12    1
     5    12    13    1
     6    13    14    1
     7    14    15    1
     8    15    16    1
     9    16    17    1
    10     8     1    1
    11     1     2   ar
    12     2     3   ar
    13     3     4   ar
    14     4    21    1
    15    21    23    1
    16    23    24   ar
    17    24    25   ar
    18    25    26   ar
    19    26    27   ar
    20    27    29    1
    21    29    30    1
    22    30    31    1
    23    30    32    1
    24    30    33    1
    25    27    28   ar
    26     4     5   ar
    27     5     6   ar
    28     6    18    1
    29    18    19    1
    30    19    20    1
    31    17    12    1
    32     6     1   ar
    33    20    18    1
    34    28    23   ar
    35     9    10    1
    36    21    22    1
@<TRIPOS>MOLECULE
*****
 33 36 0 0 0
SMALL
GASTEIGER

@<TRIPOS>ATOM
      1 C          -6.1549  -19.5257   20.7090 C.ar    1  UNL1        0.0686
      2 C          -7.2650  -20.2409   19.9977 C.ar    1  UNL1        0.1045
      3 N          -8.5826  -20.4506   20.6833 N.ar    1  UNL1       -0.2290
      4 C          -8.7900  -19.9450   22.0803 C.ar    1  UNL1        0.1319
      5 C          -7.6798  -19.2298   22.7916 C.ar    1  UNL1        0.0303
      6 C          -6.3622  -19.0201   22.1059 C.ar    1  UNL1       -0.0138
      7 O          -3.7196  -20.2946   20.2312 O.2     1  UNL1       -0.2701
      8 C          -4.8373  -19.3160   20.0235 C.2     1  UNL1        0.2471
      9 N          -4.6374  -18.1277   19.1301 N.am    1  UNL1       -0.3008
     10 H          -5.3709  -17.4854   18.9937 H       1  UNL1        0.1497
     11 C          -3.3198  -17.9181   18.4445 C.3     1  UNL1        0.0898
     12 C          -2.0974  -17.5947   19.2516 C.3     1  UNL1        0.0246
     13 C          -0.7699  -18.1787   18.8688 C.3     1  UNL1        0.0338
     14 C           0.4524  -17.8553   19.6759 C.3     1  UNL1        0.1422
     15 O           0.3471  -16.9480   20.8657 O.3     1  UNL1       -0.3538
     16 C          -0.9804  -16.3641   21.2485 C.3     1  UNL1        0.1422
     17 C          -2.2027  -16.6875   20.4415 C.3     1  UNL1        0.0338
     18 C          -5.2520  -18.3049   22.8172 C.3     1  UNL1        0.0226
     19 C          -3.8469  -18.2833   23.3417 C.3     1  UNL1        0.0047
     20 C          -4.7343  -17.0879   23.5248 C.3     1  UNL1        0.0047
     21 N         -10.1076  -20.1547   22.7658 N.pl3   1  UNL1       -0.2979
     22 H         -10.2947  -21.0065   23.2226 H       1  UNL1        0.1536
     23 C         -11.1400  -19.0665   22.7555 C.ar    1  UNL1        0.0524
     24 C         -11.9673  -18.8059   23.9792 C.ar    1  UNL1        0.0148
     25 C         -12.9996  -17.7178   23.9689 C.ar    1  UNL1        0.0044
     26 C         -13.2047  -16.8902   22.7348 C.ar    1  UNL1        0.0373
     27 C         -12.3774  -17.1508   21.5110 C.ar    1  UNL1        0.1480
     28 C         -11.3450  -18.2390   21.5214 C.ar    1  UNL1        0.0518
     29 O         -12.5825  -16.3232   20.2768 O.3     1  UNL1       -0.4044
     30 C         -11.4443  -15.5277   19.7096 C.3     1  UNL1        0.5753
     31 F         -10.3062  -14.7322   19.1424 F       1  UNL1       -0.1328
     32 F         -12.1220  -15.5122   18.3715 F       1  UNL1       -0.1328
     33 F         -10.7666  -15.5432   21.0477 F       1  UNL1       -0.1328
@<TRIPOS>BOND
     1     7     8    2
     2     8     9   am
     3     9    11    1
     4    11    12    1
     5    12    13    1
     6    13    14    1
     7    14    15    1
     8    15    16    1
     9    16    17    1
    10     8     1    1
    11     1     2   ar
    12     2     3   ar
    13     3     4   ar
    14     4    21    1
    15    21    23    1
    16    23    24   ar
    17    24    25   ar
    18    25    26   ar
    19    26    27   ar
    20    27    29    1
    21    29    30    1
    22    30    31    1
    23    30    32    1
    24    30    33    1
    25    27    28   ar
    26     4     5   ar
    27     5     6   ar
    28     6    18    1
    29    18    19    1
    30    19    20    1
    31    17    12    1
    32     6     1   ar
    33    20    18    1
    34    28    23   ar
    35     9    10    1
    36    21    22    1
@<TRIPOS>MOLECULE
*****
 33 36 0 0 0
SMALL
GASTEIGER

@<TRIPOS>ATOM
      1 C          -6.7216  -19.0883   22.4373 C.ar    1  UNL1        0.0686
      2 C          -7.7143  -20.2113   22.3799 C.ar    1  UNL1        0.1045
      3 N          -8.9451  -20.1688   23.2361 N.ar    1  UNL1       -0.2290
      4 C          -9.1833  -19.0032   24.1498 C.ar    1  UNL1        0.1319
      5 C          -8.1905  -17.8802   24.2072 C.ar    1  UNL1        0.0303
      6 C          -6.9597  -17.9228   23.3509 C.ar    1  UNL1       -0.0138
      7 O          -5.5079  -18.5178   20.2121 O.2     1  UNL1       -0.2701
      8 C          -5.4907  -19.1308   21.5810 C.2     1  UNL1        0.2471
      9 N          -4.2427  -19.7863   22.0937 N.am    1  UNL1       -0.3008
     10 H          -4.2314  -20.1886   22.9921 H       1  UNL1        0.1497
     11 C          -3.0119  -19.8288   21.2374 C.3     1  UNL1        0.0898
     12 C          -2.1987  -18.5854   21.0307 C.3     1  UNL1        0.0246
     13 C          -2.5221  -17.3407   21.8028 C.3     1  UNL1        0.0338
     14 C          -1.7090  -16.0974   21.5960 C.3     1  UNL1        0.1422
     15 O          -0.5724  -16.0986   20.6172 O.3     1  UNL1       -0.3538
     16 C          -0.2490  -17.3433   19.8450 C.3     1  UNL1        0.1422
     17 C          -1.0621  -18.5866   20.0518 C.3     1  UNL1        0.0338
     18 C          -5.9669  -16.7997   23.4083 C.3     1  UNL1        0.0226
     19 C          -4.6245  -16.2724   23.8204 C.3     1  UNL1        0.0047
     20 C          -5.5899  -15.3820   23.0956 C.3     1  UNL1        0.0047
     21 N         -10.4141  -18.9607   25.0061 N.pl3   1  UNL1       -0.2979
     22 H         -10.3525  -19.1657   25.9670 H       1  UNL1        0.1536
     23 C         -11.7387  -18.6060   24.3982 C.ar    1  UNL1        0.0524
     24 C         -12.9910  -18.7065   25.2177 C.ar    1  UNL1        0.0148
     25 C         -14.3156  -18.3518   24.6099 C.ar    1  UNL1        0.0044
     26 C         -14.3880  -17.8964   23.1825 C.ar    1  UNL1        0.0373
     27 C         -13.1357  -17.7958   22.3630 C.ar    1  UNL1        0.1480
     28 C         -11.8111  -18.1506   22.9709 C.ar    1  UNL1        0.0518
     29 O         -13.2080  -17.3404   20.9356 O.3     1  UNL1       -0.4044
     30 C         -12.1389  -16.4483   20.3779 C.3     1  UNL1        0.5753
     31 F         -11.0697  -15.5562   19.8202 F       1  UNL1       -0.1328
     32 F         -11.7810  -17.5044   19.3746 F       1  UNL1       -0.1328
     33 F         -12.4967  -15.3922   21.3813 F       1  UNL1       -0.1328
@<TRIPOS>BOND
     1     7     8    2
     2     8     9   am
     3     9    11    1
     4    11    12    1
     5    12    13    1
     6    13    14    1
     7    14    15    1
     8    15    16    1
     9    16    17    1
    10     8     1    1
    11     1     2   ar
    12     2     3   ar
    13     3     4   ar
    14     4    21    1
    15    21    23    1
    16    23    24   ar
    17    24    25   ar
    18    25    26   ar
    19    26    27   ar
    20    27    29    1
    21    29    30    1
    22    30    31    1
    23    30    32    1
    24    30    33    1
    25    27    28   ar
    26     4     5   ar
    27     5     6   ar
    28     6    18    1
    29    18    19    1
    30    19    20    1
    31    17    12    1
    32     6     1   ar
    33    20    18    1
    34    28    23   ar
    35     9    10    1
    36    21    22    1
@<TRIPOS>MOLECULE
*****
 33 36 0 0 0
SMALL
GASTEIGER

@<TRIPOS>ATOM
      1 C           6.6908   -2.0365   19.5170 C.ar    1  UNL1        0.0686
      2 C           7.9754   -1.4345   20.0044 C.ar    1  UNL1        0.1045
      3 N           8.8965   -2.2363   20.8753 N.ar    1  UNL1       -0.2290
      4 C           8.5332   -3.6402   21.2589 C.ar    1  UNL1        0.1319
      5 C           7.2486   -4.2422   20.7716 C.ar    1  UNL1        0.0303
      6 C           6.3274   -3.4403   19.9006 C.ar    1  UNL1       -0.0138
      7 O           5.9902   -1.1891   17.1631 O.2     1  UNL1       -0.2701
      8 C           5.7697   -1.2347   18.6461 C.2     1  UNL1        0.2471
      9 N           4.6279   -0.4784   19.2582 N.am    1  UNL1       -0.3008
     10 H           4.4832   -0.5084   20.2315 H       1  UNL1        0.1497
     11 C           3.7068    0.3233   18.3873 C.3     1  UNL1        0.0898
     12 C           2.3856    0.7902   18.9227 C.3     1  UNL1        0.0246
     13 C           1.5839   -0.1018   19.8236 C.3     1  UNL1        0.0338
     14 C           0.2628    0.3652   20.3590 C.3     1  UNL1        0.1422
     15 O          -0.2566    1.7241   19.9935 O.3     1  UNL1       -0.3538
     16 C           0.5451    2.6161   19.0926 C.3     1  UNL1        0.1422
     17 C           1.8662    2.1491   18.5572 C.3     1  UNL1        0.0338
     18 C           5.0429   -4.0423   19.4133 C.3     1  UNL1        0.0226
     19 C           4.2983   -5.1856   18.7901 C.3     1  UNL1        0.0047
     20 C           3.5627   -3.9418   19.1924 C.3     1  UNL1        0.0047
     21 N           9.4543   -4.4419   22.1298 N.pl3   1  UNL1       -0.2979
     22 H          10.4275   -4.3998   21.9871 H       1  UNL1        0.1536
     23 C           8.8928   -5.3080   23.2183 C.ar    1  UNL1        0.0524
     24 C           9.1531   -6.7852   23.2108 C.ar    1  UNL1        0.0148
     25 C           8.5915   -7.6512   24.2992 C.ar    1  UNL1        0.0044
     26 C           7.7696   -7.0400   25.3951 C.ar    1  UNL1        0.0373
     27 C           7.5093   -5.5628   25.4025 C.ar    1  UNL1        0.1480
     28 C           8.0709   -4.6968   24.3141 C.ar    1  UNL1        0.0518
     29 O           6.6874   -4.9516   26.4984 O.3     1  UNL1       -0.4044
     30 C           6.9857   -5.2792   27.9314 C.3     1  UNL1        0.5753
     31 F           7.2840   -5.6069   29.3645 F       1  UNL1       -0.1328
     32 F           5.5547   -5.6791   28.1379 F       1  UNL1       -0.1328
     33 F           8.4166   -4.8794   27.7250 F       1  UNL1       -0.1328
@<TRIPOS>BOND
     1     7     8    2
     2     8     9   am
     3     9    11    1
     4    11    12    1
     5    12    13    1
     6    13    14    1
     7    14    15    1
     8    15    16    1
     9    16    17    1
    10     8     1    1
    11     1     2   ar
    12     2     3   ar
    13     3     4   ar
    14     4    21    1
    15    21    23    1
    16    23    24   ar
    17    24    25   ar
    18    25    26   ar
    19    26    27   ar
    20    27    29    1
    21    29    30    1
    22    30    31    1
    23    30    32    1
    24    30    33    1
    25    27    28   ar
    26     4     5   ar
    27     5     6   ar
    28     6    18    1
    29    18    19    1
    30    19    20    1
    31    17    12    1
    32     6     1   ar
    33    20    18    1
    34    28    23   ar
    35     9    10    1
    36    21    22    1
@<TRIPOS>MOLECULE
*****
 33 36 0 0 0
SMALL
GASTEIGER

@<TRIPOS>ATOM
      1 C          -5.4912  -16.9000   23.0449 C.ar    1  UNL1        0.0686
      2 C          -5.7758  -15.7474   23.9617 C.ar    1  UNL1        0.1045
      3 N          -7.1925  -15.3953   24.3064 N.ar    1  UNL1       -0.2290
      4 C          -8.3248  -16.1958   23.7342 C.ar    1  UNL1        0.1319
      5 C          -8.0402  -17.3484   22.8174 C.ar    1  UNL1        0.0303
      6 C          -6.6234  -17.7005   22.4728 C.ar    1  UNL1       -0.0138
      7 O          -3.1007  -16.1713   22.3347 O.2     1  UNL1       -0.2701
      8 C          -4.0745  -17.2521   22.7003 C.2     1  UNL1        0.2471
      9 N          -3.6315  -18.6851   22.7211 N.am    1  UNL1       -0.3008
     10 H          -4.2706  -19.3945   22.9610 H       1  UNL1        0.1497
     11 C          -2.2148  -19.0373   22.3764 C.3     1  UNL1        0.0898
     12 C          -1.6423  -18.6314   21.0506 C.3     1  UNL1        0.0246
     13 C          -2.4842  -18.7176   19.8122 C.3     1  UNL1        0.0338
     14 C          -1.9118  -18.3117   18.4865 C.3     1  UNL1        0.1422
     15 O          -0.4974  -17.8197   18.3992 O.3     1  UNL1       -0.3538
     16 C           0.3444  -17.7336   19.6376 C.3     1  UNL1        0.1422
     17 C          -0.2280  -18.1394   20.9634 C.3     1  UNL1        0.0338
     18 C          -6.3388  -18.8531   21.5560 C.3     1  UNL1        0.0226
     19 C          -5.9535  -19.3718   20.2023 C.3     1  UNL1        0.0047
     20 C          -6.2312  -20.3308   21.3218 C.3     1  UNL1        0.0047
     21 N          -9.7415  -15.8437   24.0789 N.pl3   1  UNL1       -0.2979
     22 H          -9.9339  -15.3061   24.8809 H       1  UNL1        0.1536
     23 C         -10.8651  -16.3107   23.2017 C.ar    1  UNL1        0.0524
     24 C         -10.9294  -15.8727   21.7685 C.ar    1  UNL1        0.0148
     25 C         -12.0530  -16.3397   20.8913 C.ar    1  UNL1        0.0044
     26 C         -13.1122  -17.2446   21.4472 C.ar    1  UNL1        0.0373
     27 C         -13.0478  -17.6826   22.8804 C.ar    1  UNL1        0.1480
     28 C         -11.9243  -17.2156   23.7576 C.ar    1  UNL1        0.0518
     29 O         -14.1071  -18.5876   23.4364 O.3     1  UNL1       -0.4044
     30 C         -14.3957  -18.5885   24.9083 C.3     1  UNL1        0.5753
     31 F         -14.6844  -18.5894   26.3803 F       1  UNL1       -0.1328
     32 F         -12.9397  -18.8085   25.1937 F       1  UNL1       -0.1328
     33 F         -15.8518  -18.3684   24.6229 F       1  UNL1       -0.1328
@<TRIPOS>BOND
     1     7     8    2
     2     8     9   am
     3     9    11    1
     4    11    12    1
     5    12    13    1
     6    13    14    1
     7    14    15    1
     8    15    16    1
     9    16    17    1
    10     8     1    1
    11     1     2   ar
    12     2     3   ar
    13     3     4   ar
    14     4    21    1
    15    21    23    1
    16    23    24   ar
    17    24    25   ar
    18    25    26   ar
    19    26    27   ar
    20    27    29    1
    21    29    30    1
    22    30    31    1
    23    30    32    1
    24    30    33    1
    25    27    28   ar
    26     4     5   ar
    27     5     6   ar
    28     6    18    1
    29    18    19    1
    30    19    20    1
    31    17    12    1
    32     6     1   ar
    33    20    18    1
    34    28    23   ar
    35     9    10    1
    36    21    22    1
