@<TRIPOS>MOLECULE
*****
 24 27 0 0 0
SMALL
GASTEIGER

@<TRIPOS>ATOM
      1 C          -3.2677  -19.2717   21.1808 C.2     1  UNL1        0.1356
      2 C          -4.3059  -19.8907   20.2925 C.2     1  UNL1        0.0519
      3 C          -5.7614  -19.6345   20.5488 C.2     1  UNL1        0.0700
      4 N          -7.0018  -20.1042   19.8481 N.2     1  UNL1       -0.2475
      5 C          -8.1857  -19.5193   20.5596 C.2     1  UNL1        0.1013
      6 C          -7.6771  -18.6882   21.7000 C.2     1  UNL1        0.0817
      7 C          -6.1788  -18.7594   21.6934 C.3     1  UNL1        0.0921
      8 C          -5.1406  -18.1405   22.5816 C.2     1  UNL1       -0.0171
      9 C          -3.6850  -18.3966   22.3253 C.2     1  UNL1        0.0086
     10 C          -2.6468  -17.7776   23.2136 C.3     1  UNL1        0.0339
     11 C          -1.0355  -18.6099   20.0277 C.3     1  UNL1        0.2525
     12 O          -1.8120  -19.5279   20.9245 O.2     1  UNL1       -0.4717
     13 C          -8.5190  -17.9206   22.6758 C.2     1  UNL1        0.3394
     14 O          -9.0881  -18.6103   23.8801 O.2     1  UNL1       -0.2452
     15 O          -8.7917  -16.4635   22.4472 O.3     1  UNL1       -0.4456
     16 C          -7.8417  -15.4306   22.9768 C.3     1  UNL1        0.2087
     17 C          -7.4347  -15.4559   24.4203 C.3     1  UNL1        0.0445
     18 C          -8.4814  -15.5023   25.4939 C.3     1  UNL1        0.0210
     19 C          -8.0744  -15.5277   26.9374 C.3     1  UNL1        0.0722
     20 N          -6.6209  -15.5065   27.3074 N.3     1  UNL1       -0.2727
     21 C          -5.5743  -15.4601   26.2338 C.3     1  UNL1        0.0722
     22 C          -5.9812  -15.4347   24.7903 C.3     1  UNL1        0.0210
     23 C          -6.7953  -15.4913   26.5028 C.3     1  UNL1        0.0722
     24 C          -7.1633  -15.4684   25.1975 C.3     1  UNL1        0.0210
@<TRIPOS>BOND
     1    11    12    1
     2    12     1    1
     3     1     2    2
     4     2     3    1
     5     3     4    2
     6     4     5    1
     7     5     6    2
     8     6    13    1
     9    13    14    2
    10    13    15    1
    11    15    16    1
    12    16    17    1
    13    17    18    1
    14    18    19    1
    15    19    20    1
    16    20    21    1
    17    21    22    1
    18    20    23    1
    19    23    24    1
    20     6     7    1
    21     7     8    1
    22     8     9    2
    23     9    10    1
    24     9     1    1
    25     7     3    1
    26    22    17    1
    27    24    17    1
@<TRIPOS>MOLECULE
*****
 24 27 0 0 0
SMALL
GASTEIGER

@<TRIPOS>ATOM
      1 C          -2.7249  -19.2460   21.0819 C.2     1  UNL1        0.1356
      2 C          -3.6535  -20.0091   20.1844 C.2     1  UNL1        0.0519
      3 C          -5.1239  -20.0403   20.4789 C.2     1  UNL1        0.0700
      4 N          -6.2738  -20.7026   19.7795 N.2     1  UNL1       -0.2475
      5 C          -7.5263  -20.3800   20.5392 C.2     1  UNL1        0.1013
      6 C          -7.1505  -19.5184   21.7081 C.2     1  UNL1        0.0817
      7 C          -5.6658  -19.3084   21.6709 C.3     1  UNL1        0.0921
      8 C          -4.7372  -18.5453   22.5683 C.2     1  UNL1       -0.0171
      9 C          -3.2667  -18.5142   22.2737 C.2     1  UNL1        0.0086
     10 C          -2.3381  -17.7510   23.1712 C.3     1  UNL1        0.0339
     11 C          -0.7035  -18.2047   19.8249 C.3     1  UNL1        0.2525
     12 O          -1.2543  -19.2148   20.7873 O.2     1  UNL1       -0.4717
     13 C          -8.0939  -18.9641   22.7341 C.2     1  UNL1        0.3394
     14 O          -8.0517  -17.5054   23.0813 O.2     1  UNL1       -0.2452
     15 O          -9.0796  -19.8684   23.4130 O.3     1  UNL1       -0.4456
     16 C         -10.4470  -20.0613   22.8276 C.3     1  UNL1        0.2087
     17 C         -11.1185  -18.9330   22.1023 C.3     1  UNL1        0.0445
     18 C         -12.0085  -17.9850   22.8502 C.3     1  UNL1        0.0210
     19 C         -12.6800  -16.8566   22.1250 C.3     1  UNL1        0.0722
     20 N         -12.4615  -16.6762   20.6520 N.3     1  UNL1       -0.2727
     21 C         -11.5715  -17.6241   19.9042 C.3     1  UNL1        0.0722
     22 C         -10.9000  -18.7525   20.6293 C.3     1  UNL1        0.0210
     23 C         -12.0720  -17.3093   21.0062 C.3     1  UNL1        0.0722
     24 C         -11.4649  -18.3296   21.6619 C.3     1  UNL1        0.0210
@<TRIPOS>BOND
     1    11    12    1
     2    12     1    1
     3     1     2    2
     4     2     3    1
     5     3     4    2
     6     4     5    1
     7     5     6    2
     8     6    13    1
     9    13    14    2
    10    13    15    1
    11    15    16    1
    12    16    17    1
    13    17    18    1
    14    18    19    1
    15    19    20    1
    16    20    21    1
    17    21    22    1
    18    20    23    1
    19    23    24    1
    20     6     7    1
    21     7     8    1
    22     8     9    2
    23     9    10    1
    24     9     1    1
    25     7     3    1
    26    22    17    1
    27    24    17    1
@<TRIPOS>MOLECULE
*****
 24 27 0 0 0
SMALL
GASTEIGER

@<TRIPOS>ATOM
      1 C          -6.7605  -16.0678   24.3583 C.2     1  UNL1        0.1356
      2 C          -5.3707  -16.4764   23.9689 C.2     1  UNL1        0.0519
      3 C          -5.1632  -17.4808   22.8744 C.2     1  UNL1        0.0700
      4 N          -3.9208  -18.0725   22.2775 N.2     1  UNL1       -0.2475
      5 C          -4.3352  -19.0341   21.2034 C.2     1  UNL1        0.1013
      6 C          -5.8337  -19.0367   21.1365 C.2     1  UNL1        0.0817
      7 C          -6.3455  -18.0766   22.1692 C.3     1  UNL1        0.0921
      8 C          -7.7352  -17.6680   22.5586 C.2     1  UNL1       -0.0171
      9 C          -7.9427  -16.6636   23.6531 C.2     1  UNL1        0.0086
     10 C          -9.3325  -16.2550   24.0425 C.3     1  UNL1        0.0339
     11 C          -6.6966  -15.4411   26.8789 C.3     1  UNL1        0.2525
     12 O          -6.9680  -15.0633   25.4529 O.2     1  UNL1       -0.4717
     13 C          -6.6731  -19.8555   20.2011 C.2     1  UNL1        0.3394
     14 O          -6.4395  -21.3323   20.0816 O.2     1  UNL1       -0.2452
     15 O          -7.7461  -19.1974   19.3852 O.3     1  UNL1       -0.4456
     16 C          -9.1407  -19.7495   19.3951 C.3     1  UNL1        0.2087
     17 C         -10.1773  -19.1525   20.3001 C.3     1  UNL1        0.0445
     18 C         -10.4270  -19.7517   21.6524 C.3     1  UNL1        0.0210
     19 C         -11.4636  -19.1547   22.5575 C.3     1  UNL1        0.0722
     20 N         -12.2505  -17.9584   22.1102 N.3     1  UNL1       -0.2727
     21 C         -12.0007  -17.3593   20.7579 C.3     1  UNL1        0.0722
     22 C         -10.9641  -17.9563   19.8529 C.3     1  UNL1        0.0210
     23 C         -11.6930  -18.2507   21.5793 C.3     1  UNL1        0.0722
     24 C         -10.7556  -18.7905   20.7611 C.3     1  UNL1        0.0210
@<TRIPOS>BOND
     1    11    12    1
     2    12     1    1
     3     1     2    2
     4     2     3    1
     5     3     4    2
     6     4     5    1
     7     5     6    2
     8     6    13    1
     9    13    14    2
    10    13    15    1
    11    15    16    1
    12    16    17    1
    13    17    18    1
    14    18    19    1
    15    19    20    1
    16    20    21    1
    17    21    22    1
    18    20    23    1
    19    23    24    1
    20     6     7    1
    21     7     8    1
    22     8     9    2
    23     9    10    1
    24     9     1    1
    25     7     3    1
    26    22    17    1
    27    24    17    1
@<TRIPOS>MOLECULE
*****
 24 27 0 0 0
SMALL
GASTEIGER

@<TRIPOS>ATOM
      1 C          -8.5782  -16.4108   25.0462 C.2     1  UNL1        0.1356
      2 C          -9.6015  -17.5031   25.1461 C.2     1  UNL1        0.0519
      3 C          -9.8958  -18.3662   23.9551 C.2     1  UNL1        0.0700
      4 N         -10.8445  -19.5107   23.7550 N.2     1  UNL1       -0.2475
      5 C         -10.7020  -19.9889   22.3404 C.2     1  UNL1        0.1013
      6 C          -9.6652  -19.1399   21.6663 C.2     1  UNL1        0.0817
      7 C          -9.1669  -18.1370   22.6643 C.3     1  UNL1        0.0921
      8 C          -8.1437  -17.0448   22.5645 C.2     1  UNL1       -0.0171
      9 C          -7.8494  -16.1817   23.7554 C.2     1  UNL1        0.0086
     10 C          -6.8262  -15.0894   23.6555 C.3     1  UNL1        0.0339
     11 C          -7.2369  -15.9663   27.2265 C.3     1  UNL1        0.2525
     12 O          -8.2839  -15.5477   26.2372 O.2     1  UNL1       -0.4717
     13 C          -9.2071  -19.2708   20.2440 C.2     1  UNL1        0.3394
     14 O         -10.2004  -19.5708   19.1608 O.2     1  UNL1       -0.2452
     15 O          -7.7557  -19.1018   19.9049 O.3     1  UNL1       -0.4456
     16 C          -6.7754  -20.1854   20.2435 C.3     1  UNL1        0.2087
     17 C          -5.4425  -19.8331   20.8345 C.3     1  UNL1        0.0445
     18 C          -5.3673  -19.2123   22.1981 C.3     1  UNL1        0.0210
     19 C          -4.0345  -18.8600   22.7892 C.3     1  UNL1        0.0722
     20 N          -2.7768  -19.1283   22.0168 N.3     1  UNL1       -0.2727
     21 C          -2.8521  -19.7490   20.6533 C.3     1  UNL1        0.0722
     22 C          -4.1849  -20.1014   20.0622 C.3     1  UNL1        0.0210
     23 C          -3.4842  -19.3387   21.6514 C.3     1  UNL1        0.0722
     24 C          -4.6893  -19.6573   21.1170 C.3     1  UNL1        0.0210
@<TRIPOS>BOND
     1    11    12    1
     2    12     1    1
     3     1     2    2
     4     2     3    1
     5     3     4    2
     6     4     5    1
     7     5     6    2
     8     6    13    1
     9    13    14    2
    10    13    15    1
    11    15    16    1
    12    16    17    1
    13    17    18    1
    14    18    19    1
    15    19    20    1
    16    20    21    1
    17    21    22    1
    18    20    23    1
    19    23    24    1
    20     6     7    1
    21     7     8    1
    22     8     9    2
    23     9    10    1
    24     9     1    1
    25     7     3    1
    26    22    17    1
    27    24    17    1
@<TRIPOS>MOLECULE
*****
 24 27 0 0 0
SMALL
GASTEIGER

@<TRIPOS>ATOM
      1 C          -7.9660  -15.8735   25.0182 C.2     1  UNL1        0.1356
      2 C          -9.0417  -16.6649   24.3348 C.2     1  UNL1        0.0519
      3 C          -8.6934  -17.5749   23.1944 C.2     1  UNL1        0.0700
      4 N          -9.5328  -18.4724   22.3342 N.2     1  UNL1       -0.2475
      5 C          -8.6277  -19.1458   21.3455 C.2     1  UNL1        0.1013
      6 C          -7.2291  -18.6645   21.5947 C.2     1  UNL1        0.0817
      7 C          -7.2697  -17.6936   22.7373 C.3     1  UNL1        0.0921
      8 C          -6.1942  -16.9022   23.4207 C.2     1  UNL1       -0.0171
      9 C          -6.5424  -15.9922   24.5611 C.2     1  UNL1        0.0086
     10 C          -5.4668  -15.2008   25.2445 C.3     1  UNL1        0.0339
     11 C          -8.3014  -15.4848   27.5651 C.3     1  UNL1        0.2525
     12 O          -8.3143  -14.9634   26.1586 O.2     1  UNL1       -0.4717
     13 C          -6.0048  -19.0809   20.8346 C.2     1  UNL1        0.3394
     14 O          -5.7277  -18.4969   19.4810 O.2     1  UNL1       -0.2452
     15 O          -5.0577  -20.0813   21.4280 O.3     1  UNL1       -0.4456
     16 C          -3.8769  -19.6143   22.2263 C.3     1  UNL1        0.2087
     17 C          -2.9166  -18.6245   21.6361 C.3     1  UNL1        0.0445
     18 C          -2.0481  -19.0206   20.4790 C.3     1  UNL1        0.0210
     19 C          -1.0878  -18.0309   19.8887 C.3     1  UNL1        0.0722
     20 N          -0.9961  -16.6451   20.4556 N.3     1  UNL1       -0.2727
     21 C          -1.8646  -16.2491   21.6127 C.3     1  UNL1        0.0722
     22 C          -2.8248  -17.2388   22.2029 C.3     1  UNL1        0.0210
     23 C          -1.5373  -17.1527   20.8125 C.3     1  UNL1        0.0722
     24 C          -2.4056  -18.0477   21.3462 C.3     1  UNL1        0.0210
@<TRIPOS>BOND
     1    11    12    1
     2    12     1    1
     3     1     2    2
     4     2     3    1
     5     3     4    2
     6     4     5    1
     7     5     6    2
     8     6    13    1
     9    13    14    2
    10    13    15    1
    11    15    16    1
    12    16    17    1
    13    17    18    1
    14    18    19    1
    15    19    20    1
    16    20    21    1
    17    21    22    1
    18    20    23    1
    19    23    24    1
    20     6     7    1
    21     7     8    1
    22     8     9    2
    23     9    10    1
    24     9     1    1
    25     7     3    1
    26    22    17    1
    27    24    17    1
@<TRIPOS>MOLECULE
*****
 24 27 0 0 0
SMALL
GASTEIGER

@<TRIPOS>ATOM
      1 C          -5.3313  -19.2309   20.9659 C.2     1  UNL1        0.1356
      2 C          -6.3856  -19.5800   19.9574 C.2     1  UNL1        0.0519
      3 C          -7.8085  -19.1640   20.1855 C.2     1  UNL1        0.0700
      4 N          -9.0548  -19.3636   19.3749 N.2     1  UNL1       -0.2475
      5 C         -10.1938  -18.7220   20.1105 C.2     1  UNL1        0.1013
      6 C          -9.6515  -18.1259   21.3756 C.2     1  UNL1        0.0817
      7 C          -8.1773  -18.3990   21.4220 C.3     1  UNL1        0.0921
      8 C          -7.1231  -18.0500   22.4304 C.2     1  UNL1       -0.0171
      9 C          -5.7001  -18.4660   22.2023 C.2     1  UNL1        0.0086
     10 C          -4.6459  -18.1170   23.2107 C.3     1  UNL1        0.0339
     11 C          -3.5986  -20.7818   19.8071 C.3     1  UNL1        0.2525
     12 O          -3.9083  -19.6469   20.7378 O.2     1  UNL1       -0.4717
     13 C         -10.4443  -17.3864   22.4123 C.2     1  UNL1        0.3394
     14 O         -11.7640  -16.7723   22.0502 O.2     1  UNL1       -0.2452
     15 O          -9.9173  -17.2611   23.8111 O.3     1  UNL1       -0.4456
     16 C          -9.5431  -15.9137   24.3535 C.3     1  UNL1        0.2087
     17 C          -8.2420  -15.7315   25.0775 C.3     1  UNL1        0.0445
     18 C          -8.1642  -15.9818   26.5545 C.3     1  UNL1        0.0210
     19 C          -6.8632  -15.7996   27.2785 C.3     1  UNL1        0.0722
     20 N          -5.6400  -15.3672   26.5255 N.3     1  UNL1       -0.2727
     21 C          -5.7178  -15.1169   25.0486 C.3     1  UNL1        0.0722
     22 C          -7.0188  -15.2991   24.3246 C.3     1  UNL1        0.0210
     23 C          -6.3306  -15.4537   26.0855 C.3     1  UNL1        0.0722
     24 C          -7.5070  -15.6185   25.4309 C.3     1  UNL1        0.0210
@<TRIPOS>BOND
     1    11    12    1
     2    12     1    1
     3     1     2    2
     4     2     3    1
     5     3     4    2
     6     4     5    1
     7     5     6    2
     8     6    13    1
     9    13    14    2
    10    13    15    1
    11    15    16    1
    12    16    17    1
    13    17    18    1
    14    18    19    1
    15    19    20    1
    16    20    21    1
    17    21    22    1
    18    20    23    1
    19    23    24    1
    20     6     7    1
    21     7     8    1
    22     8     9    2
    23     9    10    1
    24     9     1    1
    25     7     3    1
    26    22    17    1
    27    24    17    1
@<TRIPOS>MOLECULE
*****
 24 27 0 0 0
SMALL
GASTEIGER

@<TRIPOS>ATOM
      1 C          -4.0991  -19.1343   22.2903 C.2     1  UNL1        0.1356
      2 C          -3.7995  -17.9676   23.1843 C.2     1  UNL1        0.0519
      3 C          -4.8887  -17.0028   23.5486 C.2     1  UNL1        0.0700
      4 N          -4.8931  -15.7700   24.4031 N.2     1  UNL1       -0.2475
      5 C          -6.2846  -15.2100   24.4016 C.2     1  UNL1        0.1013
      6 C          -7.1402  -16.0966   23.5461 C.2     1  UNL1        0.0817
      7 C          -6.2775  -17.2046   23.0189 C.3     1  UNL1        0.0921
      8 C          -6.5770  -18.3713   22.1249 C.2     1  UNL1       -0.0171
      9 C          -5.4878  -19.3361   21.7607 C.2     1  UNL1        0.0086
     10 C          -5.7874  -20.5028   20.8667 C.3     1  UNL1        0.0339
     11 C          -2.0761  -19.7841   20.7951 C.3     1  UNL1        0.2525
     12 O          -3.0098  -20.0992   21.9260 O.2     1  UNL1       -0.4717
     13 C          -8.6019  -15.9082   23.2668 C.2     1  UNL1        0.3394
     14 O          -9.5363  -15.5368   24.3799 O.2     1  UNL1       -0.2452
     15 O          -9.1292  -16.0913   21.8745 O.3     1  UNL1       -0.4456
     16 C         -10.0144  -17.2593   21.5554 C.3     1  UNL1        0.2087
     17 C         -11.0133  -17.7414   22.5653 C.3     1  UNL1        0.0445
     18 C         -10.6044  -18.7409   23.6065 C.3     1  UNL1        0.0210
     19 C         -11.6032  -19.2230   24.6164 C.3     1  UNL1        0.0722
     20 N         -13.0109  -18.7056   24.5852 N.3     1  UNL1       -0.2727
     21 C         -13.4197  -17.7062   23.5440 C.3     1  UNL1        0.0722
     22 C         -12.4209  -17.2241   22.5341 C.3     1  UNL1        0.0210
     23 C         -12.4989  -18.4120   24.0110 C.3     1  UNL1        0.0722
     24 C         -11.5957  -17.9761   23.0978 C.3     1  UNL1        0.0210
@<TRIPOS>BOND
     1    11    12    1
     2    12     1    1
     3     1     2    2
     4     2     3    1
     5     3     4    2
     6     4     5    1
     7     5     6    2
     8     6    13    1
     9    13    14    2
    10    13    15    1
    11    15    16    1
    12    16    17    1
    13    17    18    1
    14    18    19    1
    15    19    20    1
    16    20    21    1
    17    21    22    1
    18    20    23    1
    19    23    24    1
    20     6     7    1
    21     7     8    1
    22     8     9    2
    23     9    10    1
    24     9     1    1
    25     7     3    1
    26    22    17    1
    27    24    17    1
@<TRIPOS>MOLECULE
*****
 24 27 0 0 0
SMALL
GASTEIGER

@<TRIPOS>ATOM
      1 C          -8.6231  -16.3819   25.3971 C.2     1  UNL1        0.1356
      2 C          -9.3275  -17.7014   25.5096 C.2     1  UNL1        0.0519
      3 C          -9.4308  -18.6008   24.3136 C.2     1  UNL1        0.0700
      4 N         -10.0600  -19.9490   24.1230 N.2     1  UNL1       -0.2475
      5 C          -9.8478  -20.3620   22.6967 C.2     1  UNL1        0.1013
      6 C          -9.0873  -19.2691   22.0058 C.2     1  UNL1        0.0817
      7 C          -8.8296  -18.1806   23.0051 C.3     1  UNL1        0.0921
      8 C          -8.1252  -16.8610   22.8927 C.2     1  UNL1       -0.0171
      9 C          -8.0220  -15.9617   24.0887 C.2     1  UNL1        0.0086
     10 C          -7.3175  -14.6421   23.9762 C.3     1  UNL1        0.0339
     11 C          -7.3248  -15.5690   27.4957 C.3     1  UNL1        0.2525
     12 O          -8.5198  -15.4825   26.5932 O.2     1  UNL1       -0.4717
     13 C          -8.6598  -19.2654   20.5680 C.2     1  UNL1        0.3394
     14 O          -7.4796  -20.0834   20.1345 O.2     1  UNL1       -0.2452
     15 O          -9.4123  -18.4436   19.5638 O.3     1  UNL1       -0.4456
     16 C         -10.9083  -18.3596   19.6335 C.3     1  UNL1        0.2087
     17 C         -11.5694  -17.7260   20.8216 C.3     1  UNL1        0.0445
     18 C         -12.5175  -18.5242   21.6666 C.3     1  UNL1        0.0210
     19 C         -13.1787  -17.8907   22.8547 C.3     1  UNL1        0.0722
     20 N         -12.8917  -16.4589   23.1978 N.3     1  UNL1       -0.2727
     21 C         -11.9436  -15.6607   22.3528 C.3     1  UNL1        0.0722
     22 C         -11.2824  -16.2942   21.1648 C.3     1  UNL1        0.0210
     23 C         -12.5054  -16.7627   22.5371 C.3     1  UNL1        0.0722
     24 C         -11.9076  -17.3356   21.4628 C.3     1  UNL1        0.0210
@<TRIPOS>BOND
     1    11    12    1
     2    12     1    1
     3     1     2    2
     4     2     3    1
     5     3     4    2
     6     4     5    1
     7     5     6    2
     8     6    13    1
     9    13    14    2
    10    13    15    1
    11    15    16    1
    12    16    17    1
    13    17    18    1
    14    18    19    1
    15    19    20    1
    16    20    21    1
    17    21    22    1
    18    20    23    1
    19    23    24    1
    20     6     7    1
    21     7     8    1
    22     8     9    2
    23     9    10    1
    24     9     1    1
    25     7     3    1
    26    22    17    1
    27    24    17    1
@<TRIPOS>MOLECULE
*****
 24 27 0 0 0
SMALL
GASTEIGER

@<TRIPOS>ATOM
      1 C          -3.9234  -18.9808   22.0986 C.2     1  UNL1        0.1356
      2 C          -3.6351  -17.8209   23.0052 C.2     1  UNL1        0.0519
      3 C          -4.7610  -16.9753   23.5222 C.2     1  UNL1        0.0700
      4 N          -4.7839  -15.7770   24.4242 N.2     1  UNL1       -0.2475
      5 C          -6.2121  -15.3506   24.5922 C.2     1  UNL1        0.1013
      6 C          -7.0719  -16.2853   23.7940 C.2     1  UNL1        0.0817
      7 C          -6.1751  -17.2895   23.1327 C.3     1  UNL1        0.0921
      8 C          -6.4633  -18.4493   22.2262 C.2     1  UNL1       -0.0171
      9 C          -5.3375  -19.2949   21.7092 C.2     1  UNL1        0.0086
     10 C          -5.6258  -20.4548   20.8027 C.3     1  UNL1        0.0339
     11 C          -1.8970  -19.2992   20.5041 C.3     1  UNL1        0.2525
     12 O          -2.7975  -19.8265   21.5816 O.2     1  UNL1       -0.4717
     13 C          -8.5662  -16.2263   23.6777 C.2     1  UNL1        0.3394
     14 O          -9.2003  -15.5909   22.4759 O.2     1  UNL1       -0.2452
     15 O          -9.4264  -16.8025   24.7630 O.3     1  UNL1       -0.4456
     16 C         -10.1402  -18.1033   24.5431 C.3     1  UNL1        0.2087
     17 C         -10.6657  -18.4496   23.1815 C.3     1  UNL1        0.0445
     18 C         -11.8799  -17.7503   22.6461 C.3     1  UNL1        0.0210
     19 C         -12.4055  -18.0966   21.2844 C.3     1  UNL1        0.0722
     20 N         -11.7167  -19.1422   20.4583 N.3     1  UNL1       -0.2727
     21 C         -10.5025  -19.8415   20.9938 C.3     1  UNL1        0.0722
     22 C          -9.9770  -19.4952   22.3554 C.3     1  UNL1        0.0210
     23 C         -11.3918  -18.9864   21.1987 C.3     1  UNL1        0.0722
     24 C         -10.9167  -18.6732   22.4299 C.3     1  UNL1        0.0210
@<TRIPOS>BOND
     1    11    12    1
     2    12     1    1
     3     1     2    2
     4     2     3    1
     5     3     4    2
     6     4     5    1
     7     5     6    2
     8     6    13    1
     9    13    14    2
    10    13    15    1
    11    15    16    1
    12    16    17    1
    13    17    18    1
    14    18    19    1
    15    19    20    1
    16    20    21    1
    17    21    22    1
    18    20    23    1
    19    23    24    1
    20     6     7    1
    21     7     8    1
    22     8     9    2
    23     9    10    1
    24     9     1    1
    25     7     3    1
    26    22    17    1
    27    24    17    1
