@<TRIPOS>MOLECULE
*****
 25 28 0 0 0
SMALL
GASTEIGER

@<TRIPOS>ATOM
      1 O          -9.8936  -20.4510   22.0239 O.2     1  UNL1       -0.2679
      2 C          -9.0535  -19.2651   22.3956 C.2     1  UNL1        0.2713
      3 C          -7.5975  -19.2352   22.0364 C.ar    1  UNL1        0.1330
      4 C          -6.7193  -20.2199   21.3229 C.ar    1  UNL1        0.0435
      5 C          -5.3366  -19.6426   21.2537 C.ar    1  UNL1        0.1238
      6 N          -5.3602  -18.3011   21.9244 N.ar    1  UNL1       -0.1698
      7 N          -6.7575  -18.0493   22.4081 N.ar    1  UNL1       -0.2449
      8 C          -7.3736  -16.8934   23.1391 C.3     1  UNL1        0.1495
      9 C          -8.8296  -16.9233   23.4983 C.3     1  UNL1        0.1263
     10 N          -9.6696  -18.1091   23.1266 N.am    1  UNL1       -0.2370
     11 C         -11.1257  -18.1391   23.4858 C.ar    1  UNL1        0.1379
     12 C         -12.1362  -17.5085   22.5742 C.ar    1  UNL1        0.0370
     13 C         -13.5922  -17.5384   22.9334 C.ar    1  UNL1        0.0341
     14 C         -14.0378  -18.1989   24.2043 C.ar    1  UNL1        0.1593
     15 F         -15.4937  -18.2289   24.5635 F       1  UNL1       -0.2025
     16 C         -13.0272  -18.8296   25.1159 C.ar    1  UNL1        0.1298
     17 N         -11.5712  -18.7996   24.7567 N.ar    1  UNL1       -0.2264
     18 C          -4.1402  -20.2927   20.6243 C.3     1  UNL1        0.2526
     19 O          -2.7798  -20.1035   21.2272 O.3     1  UNL1       -0.4689
     20 C          -2.0222  -18.8318   20.9845 C.ar    1  UNL1        0.1391
     21 C          -2.3676  -17.5938   21.7577 C.ar    1  UNL1        0.0369
     22 C          -1.6100  -16.3221   21.5150 C.ar    1  UNL1        0.0031
     23 C          -0.5070  -16.2885   20.4991 C.ar    1  UNL1        0.0002
     24 C          -0.1615  -17.5265   19.7259 C.ar    1  UNL1        0.0031
     25 C          -0.9191  -18.7982   19.9685 C.ar    1  UNL1        0.0369
@<TRIPOS>BOND
     1     1     2    2
     2     2     3    1
     3     3     4   ar
     4     4     5   ar
     5     5    18    1
     6    18    19    1
     7    19    20    1
     8    20    21   ar
     9    21    22   ar
    10    22    23   ar
    11    23    24   ar
    12    24    25   ar
    13     5     6   ar
    14     6     7   ar
    15     7     8    1
    16     8     9    1
    17     9    10    1
    18    10    11    1
    19    11    12   ar
    20    12    13   ar
    21    13    14   ar
    22    14    15    1
    23    14    16   ar
    24    16    17   ar
    25    10     2   am
    26    17    11   ar
    27     7     3   ar
    28    25    20   ar
@<TRIPOS>MOLECULE
*****
 25 28 0 0 0
SMALL
GASTEIGER

@<TRIPOS>ATOM
      1 O          -8.4030  -19.3180   23.5544 O.2     1  UNL1       -0.2679
      2 C          -8.5327  -19.4307   22.0643 C.2     1  UNL1        0.2713
      3 C          -7.3420  -19.8092   21.2342 C.ar    1  UNL1        0.1330
      4 C          -5.9231  -20.1281   21.6014 C.ar    1  UNL1        0.0435
      5 C          -5.1759  -20.4379   20.3381 C.ar    1  UNL1        0.1238
      6 N          -6.1331  -20.3105   19.1903 N.ar    1  UNL1       -0.1698
      7 N          -7.4718  -19.9219   19.7441 N.ar    1  UNL1       -0.2449
      8 C          -8.7923  -19.6561   19.0840 C.3     1  UNL1        0.1495
      9 C          -9.9830  -19.2776   19.9141 C.3     1  UNL1        0.1263
     10 N          -9.8532  -19.1650   21.4041 N.am    1  UNL1       -0.2370
     11 C         -11.0440  -18.7865   22.2342 C.ar    1  UNL1        0.1379
     12 C         -12.1609  -17.9918   21.6251 C.ar    1  UNL1        0.0370
     13 C         -13.3516  -17.6133   22.4551 C.ar    1  UNL1        0.0341
     14 C         -13.4254  -18.0295   23.8943 C.ar    1  UNL1        0.1593
     15 F         -14.6160  -17.6511   24.7244 F       1  UNL1       -0.2025
     16 C         -12.3085  -18.8242   24.5034 C.ar    1  UNL1        0.1298
     17 N         -11.1178  -19.2027   23.6734 N.ar    1  UNL1       -0.2264
     18 C          -3.7261  -20.8099   20.2400 C.3     1  UNL1        0.2526
     19 O          -2.7572  -20.3328   21.2810 O.3     1  UNL1       -0.4689
     20 C          -2.3954  -18.8792   21.3587 C.ar    1  UNL1        0.1391
     21 C          -1.4192  -18.2960   20.3804 C.ar    1  UNL1        0.0369
     22 C          -1.0573  -16.8424   20.4580 C.ar    1  UNL1        0.0031
     23 C          -1.6716  -15.9719   21.5139 C.ar    1  UNL1        0.0002
     24 C          -2.6478  -16.5550   22.4921 C.ar    1  UNL1        0.0031
     25 C          -3.0097  -18.0086   22.4145 C.ar    1  UNL1        0.0369
@<TRIPOS>BOND
     1     1     2    2
     2     2     3    1
     3     3     4   ar
     4     4     5   ar
     5     5    18    1
     6    18    19    1
     7    19    20    1
     8    20    21   ar
     9    21    22   ar
    10    22    23   ar
    11    23    24   ar
    12    24    25   ar
    13     5     6   ar
    14     6     7   ar
    15     7     8    1
    16     8     9    1
    17     9    10    1
    18    10    11    1
    19    11    12   ar
    20    12    13   ar
    21    13    14   ar
    22    14    15    1
    23    14    16   ar
    24    16    17   ar
    25    10     2   am
    26    17    11   ar
    27     7     3   ar
    28    25    20   ar
@<TRIPOS>MOLECULE
*****
 25 28 0 0 0
SMALL
GASTEIGER

@<TRIPOS>ATOM
      1 O          -6.1797  -16.4280   22.7835 O.2     1  UNL1       -0.2679
      2 C          -6.4102  -17.8994   22.6048 C.2     1  UNL1        0.2713
      3 C          -7.7081  -18.5134   23.0389 C.ar    1  UNL1        0.1330
      4 C          -8.9356  -17.9251   23.6691 C.ar    1  UNL1        0.0435
      5 C          -9.9247  -19.0329   23.8798 C.ar    1  UNL1        0.1238
      6 N          -9.3086  -20.3059   23.3798 N.ar    1  UNL1       -0.1698
      7 N          -7.9386  -19.9848   22.8601 N.ar    1  UNL1       -0.2449
      8 C          -6.8712  -20.8421   22.2472 C.3     1  UNL1        0.1495
      9 C          -5.5734  -20.2281   21.8130 C.3     1  UNL1        0.1263
     10 N          -5.3429  -18.7568   21.9918 N.am    1  UNL1       -0.2370
     11 C          -4.0449  -18.1428   21.5576 C.ar    1  UNL1        0.1379
     12 C          -3.3848  -18.6014   20.2912 C.ar    1  UNL1        0.0370
     13 C          -2.0869  -17.9874   19.8571 C.ar    1  UNL1        0.0341
     14 C          -1.4492  -16.9147   20.6893 C.ar    1  UNL1        0.1593
     15 F          -0.1513  -16.3007   20.2552 F       1  UNL1       -0.2025
     16 C          -2.1094  -16.4561   21.9557 C.ar    1  UNL1        0.1298
     17 N          -3.4072  -17.0701   22.3899 N.ar    1  UNL1       -0.2264
     18 C         -11.2903  -18.8924   24.4843 C.3     1  UNL1        0.2526
     19 O         -12.4356  -18.4077   23.6457 O.3     1  UNL1       -0.4689
     20 C         -12.1782  -17.8385   22.2819 C.ar    1  UNL1        0.1391
     21 C         -11.6297  -18.7146   21.1949 C.ar    1  UNL1        0.0369
     22 C         -11.3723  -18.1455   19.8311 C.ar    1  UNL1        0.0031
     23 C         -11.6634  -16.7003   19.5543 C.ar    1  UNL1        0.0002
     24 C         -12.2119  -15.8242   20.6413 C.ar    1  UNL1        0.0031
     25 C         -12.4693  -16.3933   22.0051 C.ar    1  UNL1        0.0369
@<TRIPOS>BOND
     1     1     2    2
     2     2     3    1
     3     3     4   ar
     4     4     5   ar
     5     5    18    1
     6    18    19    1
     7    19    20    1
     8    20    21   ar
     9    21    22   ar
    10    22    23   ar
    11    23    24   ar
    12    24    25   ar
    13     5     6   ar
    14     6     7   ar
    15     7     8    1
    16     8     9    1
    17     9    10    1
    18    10    11    1
    19    11    12   ar
    20    12    13   ar
    21    13    14   ar
    22    14    15    1
    23    14    16   ar
    24    16    17   ar
    25    10     2   am
    26    17    11   ar
    27     7     3   ar
    28    25    20   ar
@<TRIPOS>MOLECULE
*****
 25 28 0 0 0
SMALL
GASTEIGER

@<TRIPOS>ATOM
      1 O          -5.1203  -17.1170   22.8410 O.2     1  UNL1       -0.2679
      2 C          -5.7763  -18.2920   22.1781 C.2     1  UNL1        0.2713
      3 C          -7.1777  -18.6768   22.5496 C.ar    1  UNL1        0.1330
      4 C          -8.1538  -18.0912   23.5264 C.ar    1  UNL1        0.0435
      5 C          -9.4130  -18.9042   23.4672 C.ar    1  UNL1        0.1238
      6 N          -9.2150  -19.9923   22.4538 N.ar    1  UNL1       -0.1698
      7 N          -7.8335  -19.8518   21.8867 N.ar    1  UNL1       -0.2449
      8 C          -7.0880  -20.6419   20.8524 C.3     1  UNL1        0.1495
      9 C          -5.6866  -20.2570   20.4809 C.3     1  UNL1        0.1263
     10 N          -5.0308  -19.0822   21.1437 N.am    1  UNL1       -0.2370
     11 C          -3.6293  -18.6973   20.7722 C.ar    1  UNL1        0.1379
     12 C          -2.4846  -19.0846   21.6608 C.ar    1  UNL1        0.0370
     13 C          -1.0832  -18.6998   21.2894 C.ar    1  UNL1        0.0341
     14 C          -0.8265  -17.9277   20.0293 C.ar    1  UNL1        0.1593
     15 F           0.5748  -17.5428   19.6577 F       1  UNL1       -0.2025
     16 C          -1.9712  -17.5404   19.1406 C.ar    1  UNL1        0.1298
     17 N          -3.3726  -17.9252   19.5121 N.ar    1  UNL1       -0.2264
     18 C         -10.6525  -18.6702   24.2788 C.3     1  UNL1        0.2526
     19 O         -11.7511  -17.8041   23.7376 O.3     1  UNL1       -0.4689
     20 C         -11.6165  -17.1841   22.3783 C.ar    1  UNL1        0.1391
     21 C         -10.7992  -15.9391   22.1995 C.ar    1  UNL1        0.0369
     22 C         -10.6645  -15.3191   20.8403 C.ar    1  UNL1        0.0031
     23 C         -11.3472  -15.9440   19.6599 C.ar    1  UNL1        0.0002
     24 C         -12.1646  -17.1889   19.8387 C.ar    1  UNL1        0.0031
     25 C         -12.2992  -17.8090   21.1979 C.ar    1  UNL1        0.0369
@<TRIPOS>BOND
     1     1     2    2
     2     2     3    1
     3     3     4   ar
     4     4     5   ar
     5     5    18    1
     6    18    19    1
     7    19    20    1
     8    20    21   ar
     9    21    22   ar
    10    22    23   ar
    11    23    24   ar
    12    24    25   ar
    13     5     6   ar
    14     6     7   ar
    15     7     8    1
    16     8     9    1
    17     9    10    1
    18    10    11    1
    19    11    12   ar
    20    12    13   ar
    21    13    14   ar
    22    14    15    1
    23    14    16   ar
    24    16    17   ar
    25    10     2   am
    26    17    11   ar
    27     7     3   ar
    28    25    20   ar
@<TRIPOS>MOLECULE
*****
 25 28 0 0 0
SMALL
GASTEIGER

@<TRIPOS>ATOM
      1 O           1.5455    2.5579   32.0359 O.2     1  UNL1       -0.2679
      2 C           2.3291    1.2788   32.0392 C.2     1  UNL1        0.2713
      3 C           3.1877    0.9283   33.2181 C.ar    1  UNL1        0.1330
      4 C           3.4584    1.6410   34.5099 C.ar    1  UNL1        0.0435
      5 C           4.4092    0.8024   35.3116 C.ar    1  UNL1        0.1238
      6 N           4.7262   -0.4286   34.5152 N.ar    1  UNL1       -0.1698
      7 N           3.9713   -0.3508   33.2214 N.ar    1  UNL1       -0.2449
      8 C           3.8961   -1.2794   32.0458 C.3     1  UNL1        0.1495
      9 C           3.0374   -0.9289   30.8669 C.3     1  UNL1        0.1263
     10 N           2.2539    0.3502   30.8636 N.am    1  UNL1       -0.2370
     11 C           1.3952    0.7007   29.6846 C.ar    1  UNL1        0.1379
     12 C           1.8788    1.6990   28.6749 C.ar    1  UNL1        0.0370
     13 C           1.0201    2.0495   27.4960 C.ar    1  UNL1        0.0341
     14 C          -0.3222    1.4017   27.3269 C.ar    1  UNL1        0.1593
     15 F          -1.1809    1.7521   26.1480 F       1  UNL1       -0.2025
     16 C          -0.8058    0.4034   28.3366 C.ar    1  UNL1        0.1298
     17 N           0.0529    0.0529   29.5154 N.ar    1  UNL1       -0.2264
     18 C           4.9484    1.1362   36.6709 C.3     1  UNL1        0.2526
     19 O           4.2515    0.6303   37.8991 O.3     1  UNL1       -0.4689
     20 C           2.9408    1.2278   38.3175 C.ar    1  UNL1        0.1391
     21 C           2.6113    2.6444   37.9507 C.ar    1  UNL1        0.0369
     22 C           1.3006    3.2420   38.3690 C.ar    1  UNL1        0.0031
     23 C           0.3193    2.4229   39.1540 C.ar    1  UNL1        0.0002
     24 C           0.6488    1.0063   39.5208 C.ar    1  UNL1        0.0031
     25 C           1.9595    0.4087   39.1025 C.ar    1  UNL1        0.0369
@<TRIPOS>BOND
     1     1     2    2
     2     2     3    1
     3     3     4   ar
     4     4     5   ar
     5     5    18    1
     6    18    19    1
     7    19    20    1
     8    20    21   ar
     9    21    22   ar
    10    22    23   ar
    11    23    24   ar
    12    24    25   ar
    13     5     6   ar
    14     6     7   ar
    15     7     8    1
    16     8     9    1
    17     9    10    1
    18    10    11    1
    19    11    12   ar
    20    12    13   ar
    21    13    14   ar
    22    14    15    1
    23    14    16   ar
    24    16    17   ar
    25    10     2   am
    26    17    11   ar
    27     7     3   ar
    28    25    20   ar
@<TRIPOS>MOLECULE
*****
 25 28 0 0 0
SMALL
GASTEIGER

@<TRIPOS>ATOM
      1 O         -13.7561   -3.3825   19.1476 O.2     1  UNL1       -0.2679
      2 C         -12.8866   -2.3345   18.5185 C.2     1  UNL1        0.2713
      3 C         -13.3437   -0.9065   18.4772 C.ar    1  UNL1        0.1330
      4 C         -14.5919   -0.2375   18.9715 C.ar    1  UNL1        0.0435
      5 C         -14.4938    1.2239   18.6480 C.ar    1  UNL1        0.1238
      6 N         -13.1850    1.4581   17.9537 N.ar    1  UNL1       -0.1698
      7 N         -12.4742    0.1414   17.8481 N.ar    1  UNL1       -0.2449
      8 C         -11.1475   -0.2387   17.2604 C.3     1  UNL1        0.1495
      9 C         -10.6903   -1.6667   17.3018 C.3     1  UNL1        0.1263
     10 N         -11.5598   -2.7146   17.9308 N.am    1  UNL1       -0.2370
     11 C         -11.1026   -4.1427   17.9722 C.ar    1  UNL1        0.1379
     12 C         -10.0739   -4.5721   18.9758 C.ar    1  UNL1        0.0370
     13 C          -9.6167   -6.0001   19.0172 C.ar    1  UNL1        0.0341
     14 C         -10.1883   -6.9987   18.0550 C.ar    1  UNL1        0.1593
     15 F          -9.7312   -8.4268   18.0963 F       1  UNL1       -0.2025
     16 C         -11.2170   -6.5694   17.0513 C.ar    1  UNL1        0.1298
     17 N         -11.6742   -5.1414   17.0099 N.ar    1  UNL1       -0.2264
     18 C         -15.5237    2.2678   18.9634 C.3     1  UNL1        0.2526
     19 O         -15.1272    3.5155   19.6954 O.3     1  UNL1       -0.4689
     20 C         -15.5402    3.7101   21.1243 C.ar    1  UNL1        0.1391
     21 C         -16.7015    2.9408   21.6806 C.ar    1  UNL1        0.0369
     22 C         -17.1146    3.1353   23.1095 C.ar    1  UNL1        0.0031
     23 C         -16.3663    4.0990   23.9820 C.ar    1  UNL1        0.0002
     24 C         -15.2049    4.8683   23.4256 C.ar    1  UNL1        0.0031
     25 C         -14.7919    4.6738   21.9968 C.ar    1  UNL1        0.0369
@<TRIPOS>BOND
     1     1     2    2
     2     2     3    1
     3     3     4   ar
     4     4     5   ar
     5     5    18    1
     6    18    19    1
     7    19    20    1
     8    20    21   ar
     9    21    22   ar
    10    22    23   ar
    11    23    24   ar
    12    24    25   ar
    13     5     6   ar
    14     6     7   ar
    15     7     8    1
    16     8     9    1
    17     9    10    1
    18    10    11    1
    19    11    12   ar
    20    12    13   ar
    21    13    14   ar
    22    14    15    1
    23    14    16   ar
    24    16    17   ar
    25    10     2   am
    26    17    11   ar
    27     7     3   ar
    28    25    20   ar
@<TRIPOS>MOLECULE
*****
 25 28 0 0 0
SMALL
GASTEIGER

@<TRIPOS>ATOM
      1 O          -4.6736  -17.3421   22.6431 O.2     1  UNL1       -0.2679
      2 C          -5.2389  -18.4796   21.8453 C.2     1  UNL1        0.2713
      3 C          -6.6431  -18.9450   22.0936 C.ar    1  UNL1        0.1330
      4 C          -7.7001  -18.4799   23.0509 C.ar    1  UNL1        0.0435
      5 C          -8.9186  -19.3301   22.8448 C.ar    1  UNL1        0.1238
      6 N          -8.6147  -20.3205   21.7601 N.ar    1  UNL1       -0.1698
      7 N          -7.2084  -20.0826   21.2958 N.ar    1  UNL1       -0.2449
      8 C          -6.3694  -20.7547   20.2497 C.3     1  UNL1        0.1495
      9 C          -4.9653  -20.2893   20.0013 C.3     1  UNL1        0.1263
     10 N          -4.4000  -19.1518   20.7991 N.am    1  UNL1       -0.2370
     11 C          -2.9958  -18.6864   20.5507 C.ar    1  UNL1        0.1379
     12 C          -2.6385  -18.0450   19.2427 C.ar    1  UNL1        0.0370
     13 C          -1.2344  -17.5796   18.9943 C.ar    1  UNL1        0.0341
     14 C          -0.1874  -17.7556   20.0540 C.ar    1  UNL1        0.1593
     15 F           1.2167  -17.2903   19.8057 F       1  UNL1       -0.2025
     16 C          -0.5447  -18.3971   21.3620 C.ar    1  UNL1        0.1298
     17 N          -1.9488  -18.8624   21.6104 N.ar    1  UNL1       -0.2264
     18 C         -10.2137  -19.2107   23.5922 C.3     1  UNL1        0.2526
     19 O         -10.6318  -17.8875   24.1615 O.3     1  UNL1       -0.4689
     20 C          -9.6857  -17.1118   25.0294 C.ar    1  UNL1        0.1391
     21 C          -9.0907  -15.8286   24.5301 C.ar    1  UNL1        0.0369
     22 C          -8.1446  -15.0529   25.3979 C.ar    1  UNL1        0.0031
     23 C          -7.7935  -15.5603   26.7651 C.ar    1  UNL1        0.0002
     24 C          -8.3885  -16.8435   27.2644 C.ar    1  UNL1        0.0031
     25 C          -9.3346  -17.6192   26.3966 C.ar    1  UNL1        0.0369
@<TRIPOS>BOND
     1     1     2    2
     2     2     3    1
     3     3     4   ar
     4     4     5   ar
     5     5    18    1
     6    18    19    1
     7    19    20    1
     8    20    21   ar
     9    21    22   ar
    10    22    23   ar
    11    23    24   ar
    12    24    25   ar
    13     5     6   ar
    14     6     7   ar
    15     7     8    1
    16     8     9    1
    17     9    10    1
    18    10    11    1
    19    11    12   ar
    20    12    13   ar
    21    13    14   ar
    22    14    15    1
    23    14    16   ar
    24    16    17   ar
    25    10     2   am
    26    17    11   ar
    27     7     3   ar
    28    25    20   ar
@<TRIPOS>MOLECULE
*****
 25 28 0 0 0
SMALL
GASTEIGER

@<TRIPOS>ATOM
      1 O          -6.4433  -17.6231   21.9196 O.2     1  UNL1       -0.2679
      2 C          -7.0024  -18.5972   20.9252 C.2     1  UNL1        0.2713
      3 C          -8.4856  -18.7957   20.8221 C.ar    1  UNL1        0.1330
      4 C          -9.6347  -18.1777   21.5620 C.ar    1  UNL1        0.0435
      5 C         -10.9039  -18.7698   21.0250 C.ar    1  UNL1        0.1238
      6 N         -10.5392  -19.7538   19.9531 N.ar    1  UNL1       -0.1698
      7 N          -9.0446  -19.7697   19.8277 N.ar    1  UNL1       -0.2449
      8 C          -8.1204  -20.5454   18.9365 C.3     1  UNL1        0.1495
      9 C          -6.6371  -20.3469   19.0397 C.3     1  UNL1        0.1263
     10 N          -6.0782  -19.3729   20.0340 N.am    1  UNL1       -0.2370
     11 C          -4.5948  -19.1745   20.1372 C.ar    1  UNL1        0.1379
     12 C          -3.8062  -19.9332   21.1630 C.ar    1  UNL1        0.0370
     13 C          -2.3230  -19.7348   21.2662 C.ar    1  UNL1        0.0341
     14 C          -1.6284  -18.7777   20.3436 C.ar    1  UNL1        0.1593
     15 F          -0.1452  -18.5792   20.4467 F       1  UNL1       -0.2025
     16 C          -2.4170  -18.0189   19.3177 C.ar    1  UNL1        0.1298
     17 N          -3.9002  -18.2173   19.2145 N.ar    1  UNL1       -0.2264
     18 C         -12.2939  -18.4366   21.4799 C.3     1  UNL1        0.2526
     19 O         -12.5197  -17.8770   22.8532 O.3     1  UNL1       -0.4689
     20 C         -11.3505  -17.5949   23.7496 C.ar    1  UNL1        0.1391
     21 C         -10.8990  -18.6267   24.7404 C.ar    1  UNL1        0.0369
     22 C          -9.7299  -18.3447   25.6368 C.ar    1  UNL1        0.0031
     23 C          -9.0121  -17.0309   25.5425 C.ar    1  UNL1        0.0002
     24 C          -9.4636  -15.9992   24.5517 C.ar    1  UNL1        0.0031
     25 C         -10.6327  -16.2812   23.6552 C.ar    1  UNL1        0.0369
@<TRIPOS>BOND
     1     1     2    2
     2     2     3    1
     3     3     4   ar
     4     4     5   ar
     5     5    18    1
     6    18    19    1
     7    19    20    1
     8    20    21   ar
     9    21    22   ar
    10    22    23   ar
    11    23    24   ar
    12    24    25   ar
    13     5     6   ar
    14     6     7   ar
    15     7     8    1
    16     8     9    1
    17     9    10    1
    18    10    11    1
    19    11    12   ar
    20    12    13   ar
    21    13    14   ar
    22    14    15    1
    23    14    16   ar
    24    16    17   ar
    25    10     2   am
    26    17    11   ar
    27     7     3   ar
    28    25    20   ar
@<TRIPOS>MOLECULE
*****
 25 28 0 0 0
SMALL
GASTEIGER

@<TRIPOS>ATOM
      1 O         -18.2152   -0.4813   20.8497 O.2     1  UNL1       -0.2679
      2 C         -16.9715   -0.0704   20.1184 C.2     1  UNL1        0.2713
      3 C         -16.1002   -1.1097   19.4777 C.ar    1  UNL1        0.1330
      4 C         -16.2105   -2.6037   19.4015 C.ar    1  UNL1        0.0435
      5 C         -15.0350   -3.1161   18.6232 C.ar    1  UNL1        0.1238
      6 N         -14.1983   -1.9388   18.2183 N.ar    1  UNL1       -0.1698
      7 N         -14.8566   -0.6987   18.7465 N.ar    1  UNL1       -0.2449
      8 C         -14.4844    0.7515   18.6560 C.3     1  UNL1        0.1495
      9 C         -15.3557    1.7908   19.2968 C.3     1  UNL1        0.1263
     10 N         -16.5992    1.3799   20.0279 N.am    1  UNL1       -0.2370
     11 C         -17.4706    2.4193   20.6688 C.ar    1  UNL1        0.1379
     12 C         -18.7434    2.8469   20.0001 C.ar    1  UNL1        0.0370
     13 C         -19.6148    3.8862   20.6408 C.ar    1  UNL1        0.0341
     14 C         -19.2133    4.4979   21.9502 C.ar    1  UNL1        0.1593
     15 F         -20.0846    5.5372   22.5911 F       1  UNL1       -0.2025
     16 C         -17.9405    4.0703   22.6189 C.ar    1  UNL1        0.1298
     17 N         -17.0692    3.0310   21.9782 N.ar    1  UNL1       -0.2264
     18 C         -14.7469   -4.5534   18.3054 C.3     1  UNL1        0.2526
     19 O         -13.9742   -5.3959   19.2766 O.3     1  UNL1       -0.4689
     20 C         -12.4993   -5.5948   19.0888 C.ar    1  UNL1        0.1391
     21 C         -11.5708   -4.4181   19.1444 C.ar    1  UNL1        0.0369
     22 C         -10.0959   -4.6169   18.9567 C.ar    1  UNL1        0.0031
     23 C          -9.5495   -5.9925   18.7133 C.ar    1  UNL1        0.0002
     24 C         -10.4781   -7.1693   18.6577 C.ar    1  UNL1        0.0031
     25 C         -11.9529   -6.9704   18.8455 C.ar    1  UNL1        0.0369
@<TRIPOS>BOND
     1     1     2    2
     2     2     3    1
     3     3     4   ar
     4     4     5   ar
     5     5    18    1
     6    18    19    1
     7    19    20    1
     8    20    21   ar
     9    21    22   ar
    10    22    23   ar
    11    23    24   ar
    12    24    25   ar
    13     5     6   ar
    14     6     7   ar
    15     7     8    1
    16     8     9    1
    17     9    10    1
    18    10    11    1
    19    11    12   ar
    20    12    13   ar
    21    13    14   ar
    22    14    15    1
    23    14    16   ar
    24    16    17   ar
    25    10     2   am
    26    17    11   ar
    27     7     3   ar
    28    25    20   ar
