@<TRIPOS>MOLECULE
*****
 31 32 0 0 0
SMALL
GASTEIGER

@<TRIPOS>ATOM
      1 N          -3.2949  -18.3537   20.7888 N.3     1  UNL1       -0.2712
      2 C          -2.8525  -19.2924   19.7057 C.3     1  UNL1        0.0721
      3 C          -3.6675  -20.5117   19.3909 C.3     1  UNL1        0.0174
      4 C          -4.9249  -20.7923   20.1591 C.3     1  UNL1        0.0045
      5 C          -5.3673  -19.8536   21.2421 C.3     1  UNL1        0.0356
      6 C          -4.5523  -18.6343   21.5570 C.3     1  UNL1        0.0738
      7 C          -2.4800  -17.1344   21.1036 C.3     1  UNL1        0.0937
      8 C          -2.5892  -16.4870   22.4523 C.3     1  UNL1        0.1082
      9 N          -5.8764  -15.0382   24.1393 N.am    1  UNL1       -0.2921
     10 C          -4.7216  -15.9458   23.8343 C.2     1  UNL1        0.3007
     11 O          -4.5446  -17.2196   24.6063 O.2     1  UNL1       -0.2528
     12 N          -3.7439  -15.5794   22.7572 N.am    1  UNL1       -0.2875
     13 H          -5.9925  -14.2022   23.6326 H       1  UNL1        0.1508
     14 H          -3.8601  -14.7434   22.2505 H       1  UNL1        0.1510
     15 C          -5.8608  -14.9871   26.2599 C.3     1  UNL1        0.0197
     16 C          -6.8540  -15.4045   25.2163 C.3     1  UNL1        0.0583
     17 C          -7.8473  -15.8219   24.1726 C.3     1  UNL1        0.0197
     18 C          -7.8318  -15.7708   26.2933 C.3     1  UNL1        0.0197
     19 C          -6.6248  -20.1342   22.0104 C.3     1  UNL1        0.0910
     20 N          -7.8596  -19.3235   21.7498 N.am    1  UNL1       -0.3008
     21 C          -9.0683  -19.4967   22.6211 C.2     1  UNL1        0.2459
     22 O          -9.0421  -20.4807   23.7529 O.2     1  UNL1       -0.2701
     23 H          -7.8767  -18.6776   21.0070 H       1  UNL1        0.1497
     24 C         -10.3031  -18.6860   22.3605 C.ar    1  UNL1        0.0550
     25 C         -11.4622  -18.7586   23.3099 C.ar    1  UNL1        0.0160
     26 C         -12.6970  -17.9479   23.0493 C.ar    1  UNL1        0.0587
     27 CL        -13.8560  -18.0205   23.9986 Cl      1  UNL1       -0.0822
     28 C         -12.7727  -17.0645   21.8393 C.ar    1  UNL1        0.0228
     29 C         -11.6136  -16.9919   20.8900 C.ar    1  UNL1        0.0587
     30 CL        -11.6894  -16.1086   19.6800 Cl      1  UNL1       -0.0822
     31 C         -10.3788  -17.8027   21.1506 C.ar    1  UNL1        0.0160
@<TRIPOS>BOND
     1    15    16    1
     2    16    17    1
     3    16    18    1
     4    16     9    1
     5     9    10   am
     6    10    11    2
     7    10    12   am
     8    12     8    1
     9     8     7    1
    10     7     1    1
    11     1     2    1
    12     2     3    1
    13     3     4    1
    14     4     5    1
    15     5    19    1
    16    19    20    1
    17    20    21   am
    18    21    22    2
    19    21    24    1
    20    24    25   ar
    21    25    26   ar
    22    26    27    1
    23    26    28   ar
    24    28    29   ar
    25    29    30    1
    26    29    31   ar
    27     5     6    1
    28     6     1    1
    29    31    24   ar
    30     9    13    1
    31    12    14    1
    32    20    23    1
@<TRIPOS>MOLECULE
*****
 31 32 0 0 0
SMALL
GASTEIGER

@<TRIPOS>ATOM
      1 N          -3.0366  -17.7656   21.4631 N.3     1  UNL1       -0.2712
      2 C          -2.1684  -17.8137   20.2408 C.3     1  UNL1        0.0721
      3 C          -2.4490  -18.8157   19.1605 C.3     1  UNL1        0.0174
      4 C          -3.5978  -19.7697   19.3024 C.3     1  UNL1        0.0045
      5 C          -4.4659  -19.7217   20.5246 C.3     1  UNL1        0.0356
      6 C          -4.1853  -18.7196   21.6050 C.3     1  UNL1        0.0738
      7 C          -2.7560  -16.7635   22.5434 C.3     1  UNL1        0.0937
      8 C          -3.8450  -15.8478   23.0182 C.3     1  UNL1        0.1082
      9 N          -7.1144  -16.3323   25.2149 N.am    1  UNL1       -0.2921
     10 C          -5.8289  -15.7618   24.6935 C.2     1  UNL1        0.3007
     11 O          -5.2418  -14.5348   25.3258 O.2     1  UNL1       -0.2528
     12 N          -5.1305  -16.4183   23.5396 N.am    1  UNL1       -0.2875
     13 H          -7.4998  -17.1376   24.7999 H       1  UNL1        0.1508
     14 H          -5.5158  -17.2236   23.1246 H       1  UNL1        0.1510
     15 C          -6.7577  -16.1923   27.3013 C.3     1  UNL1        0.0197
     16 C          -7.8129  -15.6759   26.3687 C.3     1  UNL1        0.0583
     17 C          -8.8681  -15.1594   25.4361 C.3     1  UNL1        0.0197
     18 C          -8.5114  -15.0194   27.5225 C.3     1  UNL1        0.0197
     19 C          -5.6147  -20.6757   20.6666 C.3     1  UNL1        0.0910
     20 N          -6.7960  -20.3065   21.5140 N.am    1  UNL1       -0.3008
     21 C          -7.8449  -19.3792   20.9754 C.2     1  UNL1        0.2459
     22 O          -7.7126  -18.8214   19.5893 O.2     1  UNL1       -0.2701
     23 H          -6.8828  -20.6726   22.4238 H       1  UNL1        0.1497
     24 C          -9.0262  -19.0100   21.8229 C.ar    1  UNL1        0.0550
     25 C         -10.3294  -18.6460   21.1753 C.ar    1  UNL1        0.0160
     26 C         -11.5106  -18.2768   22.0228 C.ar    1  UNL1        0.0587
     27 CL        -12.8138  -17.9128   21.3752 Cl      1  UNL1       -0.0822
     28 C         -11.3887  -18.2714   23.5179 C.ar    1  UNL1        0.0228
     29 C         -10.0856  -18.6353   24.1654 C.ar    1  UNL1        0.0587
     30 CL         -9.9636  -18.6299   25.6604 Cl      1  UNL1       -0.0822
     31 C          -8.9043  -19.0046   23.3179 C.ar    1  UNL1        0.0160
@<TRIPOS>BOND
     1    15    16    1
     2    16    17    1
     3    16    18    1
     4    16     9    1
     5     9    10   am
     6    10    11    2
     7    10    12   am
     8    12     8    1
     9     8     7    1
    10     7     1    1
    11     1     2    1
    12     2     3    1
    13     3     4    1
    14     4     5    1
    15     5    19    1
    16    19    20    1
    17    20    21   am
    18    21    22    2
    19    21    24    1
    20    24    25   ar
    21    25    26   ar
    22    26    27    1
    23    26    28   ar
    24    28    29   ar
    25    29    30    1
    26    29    31   ar
    27     5     6    1
    28     6     1    1
    29    31    24   ar
    30     9    13    1
    31    12    14    1
    32    20    23    1
@<TRIPOS>MOLECULE
*****
 31 32 0 0 0
SMALL
GASTEIGER

@<TRIPOS>ATOM
      1 N          -8.7527  -16.9454   25.3452 N.3     1  UNL1       -0.2712
      2 C          -8.7656  -16.8441   26.8417 C.3     1  UNL1        0.0721
      3 C          -7.6573  -16.1276   27.5545 C.3     1  UNL1        0.0174
      4 C          -6.5359  -15.5124   26.7709 C.3     1  UNL1        0.0045
      5 C          -6.5230  -15.6138   25.2744 C.3     1  UNL1        0.0356
      6 C          -7.6314  -16.3303   24.5616 C.3     1  UNL1        0.0738
      7 C          -9.8611  -17.6619   24.6324 C.3     1  UNL1        0.0937
      8 C         -10.6121  -16.9744   23.5309 C.3     1  UNL1        0.1082
      9 N          -9.2604  -18.2749   20.0335 N.am    1  UNL1       -0.2921
     10 C          -9.8092  -18.2743   21.4295 C.2     1  UNL1        0.3007
     11 O         -10.1041  -19.5728   22.1201 O.2     1  UNL1       -0.2528
     12 N         -10.0632  -16.9750   22.1349 N.am    1  UNL1       -0.2875
     13 H          -9.0668  -17.4226   19.5803 H       1  UNL1        0.1508
     14 H          -9.8697  -16.1227   21.6817 H       1  UNL1        0.1510
     15 C          -7.5615  -19.5073   19.7255 C.3     1  UNL1        0.0197
     16 C          -9.0064  -19.5740   19.3281 C.3     1  UNL1        0.0583
     17 C         -10.4512  -19.6407   18.9307 C.3     1  UNL1        0.0197
     18 C          -8.7524  -20.8732   18.6226 C.3     1  UNL1        0.0197
     19 C          -5.4016  -14.9986   24.4906 C.3     1  UNL1        0.0910
     20 N          -4.8171  -15.7291   23.3182 N.am    1  UNL1       -0.3008
     21 C          -4.0737  -17.0146   23.5302 C.2     1  UNL1        0.2459
     22 O          -3.9149  -17.5696   24.9146 O.2     1  UNL1       -0.2701
     23 H          -4.9213  -15.3648   22.4095 H       1  UNL1        0.1497
     24 C          -3.4892  -17.7451   22.3577 C.ar    1  UNL1        0.0550
     25 C          -4.1895  -18.9479   21.7984 C.ar    1  UNL1        0.0160
     26 C          -3.6050  -19.6783   20.6259 C.ar    1  UNL1        0.0587
     27 CL         -4.3054  -20.8811   20.0666 Cl      1  UNL1       -0.0822
     28 C          -2.3200  -19.2061   20.0128 C.ar    1  UNL1        0.0228
     29 C          -1.6197  -18.0033   20.5721 C.ar    1  UNL1        0.0587
     30 CL         -0.3348  -17.5310   19.9590 Cl      1  UNL1       -0.0822
     31 C          -2.2043  -17.2728   21.7446 C.ar    1  UNL1        0.0160
@<TRIPOS>BOND
     1    15    16    1
     2    16    17    1
     3    16    18    1
     4    16     9    1
     5     9    10   am
     6    10    11    2
     7    10    12   am
     8    12     8    1
     9     8     7    1
    10     7     1    1
    11     1     2    1
    12     2     3    1
    13     3     4    1
    14     4     5    1
    15     5    19    1
    16    19    20    1
    17    20    21   am
    18    21    22    2
    19    21    24    1
    20    24    25   ar
    21    25    26   ar
    22    26    27    1
    23    26    28   ar
    24    28    29   ar
    25    29    30    1
    26    29    31   ar
    27     5     6    1
    28     6     1    1
    29    31    24   ar
    30     9    13    1
    31    12    14    1
    32    20    23    1
@<TRIPOS>MOLECULE
*****
 31 32 0 0 0
SMALL
GASTEIGER

@<TRIPOS>ATOM
      1 N          -3.6356  -19.3697   19.9902 N.3     1  UNL1       -0.2712
      2 C          -2.6149  -19.0747   18.9315 C.3     1  UNL1        0.0721
      3 C          -1.5893  -18.0034   19.1562 C.3     1  UNL1        0.0174
      4 C          -1.5845  -17.2271   20.4397 C.3     1  UNL1        0.0045
      5 C          -2.6052  -17.5222   21.4984 C.3     1  UNL1        0.0356
      6 C          -3.6308  -18.5935   21.2737 C.3     1  UNL1        0.0738
      7 C          -4.6612  -20.4410   19.7655 C.3     1  UNL1        0.0937
      8 C          -5.9746  -20.3854   20.4879 C.3     1  UNL1        0.1082
      9 N          -9.5322  -18.6835   20.0440 N.am    1  UNL1       -0.2921
     10 C          -8.3549  -19.3619   20.6794 C.2     1  UNL1        0.3007
     11 O          -8.3806  -19.6953   22.1416 O.2     1  UNL1       -0.2528
     12 N          -7.1519  -19.7069   19.8525 N.am    1  UNL1       -0.2875
     13 H          -9.5153  -18.4646   19.0843 H       1  UNL1        0.1508
     14 H          -7.1350  -19.4881   18.8928 H       1  UNL1        0.1510
     15 C         -11.1371  -19.7834   20.8890 C.3     1  UNL1        0.0197
     16 C         -10.7352  -18.3384   20.8709 C.3     1  UNL1        0.0583
     17 C         -10.3333  -16.8934   20.8527 C.3     1  UNL1        0.0197
     18 C         -11.9382  -17.9933   21.6977 C.3     1  UNL1        0.0197
     19 C          -2.6005  -16.7459   22.7820 C.3     1  UNL1        0.0910
     20 N          -3.8119  -16.7516   23.6665 N.am    1  UNL1       -0.3008
     21 C          -4.7874  -15.6135   23.6098 C.2     1  UNL1        0.2459
     22 O          -4.5513  -14.4696   22.6685 O.2     1  UNL1       -0.2701
     23 H          -3.9668  -17.5024   24.2842 H       1  UNL1        0.1497
     24 C          -5.9988  -15.6192   24.4942 C.ar    1  UNL1        0.0550
     25 C          -5.8841  -15.1870   25.9260 C.ar    1  UNL1        0.0160
     26 C          -7.0956  -15.1927   26.8105 C.ar    1  UNL1        0.0587
     27 CL         -6.9809  -14.7605   28.2423 Cl      1  UNL1       -0.0822
     28 C          -8.4218  -15.6307   26.2632 C.ar    1  UNL1        0.0228
     29 C          -8.5364  -16.0630   24.8314 C.ar    1  UNL1        0.0587
     30 CL         -9.8625  -16.5010   24.2841 Cl      1  UNL1       -0.0822
     31 C          -7.3249  -16.0572   23.9469 C.ar    1  UNL1        0.0160
@<TRIPOS>BOND
     1    15    16    1
     2    16    17    1
     3    16    18    1
     4    16     9    1
     5     9    10   am
     6    10    11    2
     7    10    12   am
     8    12     8    1
     9     8     7    1
    10     7     1    1
    11     1     2    1
    12     2     3    1
    13     3     4    1
    14     4     5    1
    15     5    19    1
    16    19    20    1
    17    20    21   am
    18    21    22    2
    19    21    24    1
    20    24    25   ar
    21    25    26   ar
    22    26    27    1
    23    26    28   ar
    24    28    29   ar
    25    29    30    1
    26    29    31   ar
    27     5     6    1
    28     6     1    1
    29    31    24   ar
    30     9    13    1
    31    12    14    1
    32    20    23    1
@<TRIPOS>MOLECULE
*****
 31 32 0 0 0
SMALL
GASTEIGER

@<TRIPOS>ATOM
      1 N         -11.0978  -19.1737   22.1459 N.3     1  UNL1       -0.2712
      2 C         -12.0221  -18.2161   21.4543 C.3     1  UNL1        0.0721
      3 C         -11.7080  -17.7400   20.0669 C.3     1  UNL1        0.0174
      4 C         -10.4694  -18.2216   19.3713 C.3     1  UNL1        0.0045
      5 C          -9.5450  -19.1793   20.0630 C.3     1  UNL1        0.0356
      6 C          -9.8592  -19.6553   21.4503 C.3     1  UNL1        0.0738
      7 C         -11.4120  -19.6497   23.5333 C.3     1  UNL1        0.0937
      8 C         -11.1069  -18.7753   24.7133 C.3     1  UNL1        0.1082
      9 N          -8.4959  -15.8354   25.2510 N.am    1  UNL1       -0.2921
     10 C          -9.2394  -17.1237   25.4444 C.2     1  UNL1        0.3007
     11 O          -8.8591  -18.0486   26.5623 O.2     1  UNL1       -0.2528
     12 N         -10.3634  -17.4870   24.5199 N.am    1  UNL1       -0.2875
     13 H          -8.7456  -15.2283   24.5173 H       1  UNL1        0.1508
     14 H         -10.6130  -16.8800   23.7861 H       1  UNL1        0.1510
     15 C          -8.3584  -15.2278   27.2788 C.3     1  UNL1        0.0197
     16 C          -7.3720  -15.4720   26.1755 C.3     1  UNL1        0.0583
     17 C          -6.3855  -15.7162   25.0722 C.3     1  UNL1        0.0197
     18 C          -6.2480  -15.1086   27.1000 C.3     1  UNL1        0.0197
     19 C          -8.3064  -19.6609   19.3673 C.3     1  UNL1        0.0910
     20 N          -6.9867  -19.0043   19.6452 N.am    1  UNL1       -0.3008
     21 C          -5.8534  -19.8079   20.2108 C.2     1  UNL1        0.2459
     22 O          -6.0399  -21.2682   20.4986 O.2     1  UNL1       -0.2701
     23 H          -6.8643  -18.0458   19.4563 H       1  UNL1        0.1497
     24 C          -4.5338  -19.1513   20.4887 C.ar    1  UNL1        0.0550
     25 C          -3.5954  -18.8458   19.3590 C.ar    1  UNL1        0.0160
     26 C          -2.2757  -18.1892   19.6369 C.ar    1  UNL1        0.0587
     27 CL         -1.3374  -17.8837   18.5072 Cl      1  UNL1       -0.0822
     28 C          -1.8944  -17.8380   21.0445 C.ar    1  UNL1        0.0228
     29 C          -2.8327  -18.1435   22.1742 C.ar    1  UNL1        0.0587
     30 CL         -2.4514  -17.7923   23.5817 Cl      1  UNL1       -0.0822
     31 C          -4.1525  -18.8001   21.8962 C.ar    1  UNL1        0.0160
@<TRIPOS>BOND
     1    15    16    1
     2    16    17    1
     3    16    18    1
     4    16     9    1
     5     9    10   am
     6    10    11    2
     7    10    12   am
     8    12     8    1
     9     8     7    1
    10     7     1    1
    11     1     2    1
    12     2     3    1
    13     3     4    1
    14     4     5    1
    15     5    19    1
    16    19    20    1
    17    20    21   am
    18    21    22    2
    19    21    24    1
    20    24    25   ar
    21    25    26   ar
    22    26    27    1
    23    26    28   ar
    24    28    29   ar
    25    29    30    1
    26    29    31   ar
    27     5     6    1
    28     6     1    1
    29    31    24   ar
    30     9    13    1
    31    12    14    1
    32    20    23    1
@<TRIPOS>MOLECULE
*****
 31 32 0 0 0
SMALL
GASTEIGER

@<TRIPOS>ATOM
      1 N         -11.2080  -18.6414   22.5106 N.3     1  UNL1       -0.2712
      2 C         -12.1295  -17.6925   21.8034 C.3     1  UNL1        0.0721
      3 C         -11.9001  -17.3608   20.3586 C.3     1  UNL1        0.0174
      4 C         -10.7492  -17.9781   19.6210 C.3     1  UNL1        0.0045
      5 C          -9.8276  -18.9271   20.3282 C.3     1  UNL1        0.0356
      6 C         -10.0570  -19.2587   21.7730 C.3     1  UNL1        0.0738
      7 C         -11.4374  -18.9731   23.9554 C.3     1  UNL1        0.0937
      8 C         -10.2869  -18.9683   24.9178 C.3     1  UNL1        0.1082
      9 N          -7.7448  -15.9218   25.0010 N.am    1  UNL1       -0.2921
     10 C          -8.3914  -17.2180   24.6115 C.2     1  UNL1        0.3007
     11 O          -7.7891  -18.0602   23.5262 O.2     1  UNL1       -0.2528
     12 N          -9.6403  -17.6720   25.3073 N.am    1  UNL1       -0.2875
     13 H          -8.1401  -15.3691   25.7134 H       1  UNL1        0.1508
     14 H         -10.0356  -17.1193   26.0197 H       1  UNL1        0.1510
     15 C          -5.6891  -15.8310   25.5165 C.3     1  UNL1        0.0197
     16 C          -6.4959  -15.4678   24.3053 C.3     1  UNL1        0.0583
     17 C          -7.3027  -15.1046   23.0940 C.3     1  UNL1        0.0197
     18 C          -5.2470  -15.0137   23.6094 C.3     1  UNL1        0.0197
     19 C          -8.6765  -19.5445   19.5906 C.3     1  UNL1        0.0910
     20 N          -7.3024  -18.9567   19.7177 N.am    1  UNL1       -0.3008
     21 C          -6.2804  -19.6211   20.5920 C.2     1  UNL1        0.2459
     22 O          -6.6326  -20.8733   21.3390 O.2     1  UNL1       -0.2701
     23 H          -7.0712  -18.1349   19.2275 H       1  UNL1        0.1497
     24 C          -4.9063  -19.0333   20.7191 C.ar    1  UNL1        0.0550
     25 C          -4.3644  -18.6788   22.0722 C.ar    1  UNL1        0.0160
     26 C          -2.9903  -18.0910   22.1993 C.ar    1  UNL1        0.0587
     27 CL         -2.4485  -17.7365   23.5524 Cl      1  UNL1       -0.0822
     28 C          -2.1579  -17.8578   20.9734 C.ar    1  UNL1        0.0228
     29 C          -2.6997  -18.2123   19.6204 C.ar    1  UNL1        0.0587
     30 CL         -1.8674  -17.9791   18.3945 Cl      1  UNL1       -0.0822
     31 C          -4.0739  -18.8001   19.4933 C.ar    1  UNL1        0.0160
@<TRIPOS>BOND
     1    15    16    1
     2    16    17    1
     3    16    18    1
     4    16     9    1
     5     9    10   am
     6    10    11    2
     7    10    12   am
     8    12     8    1
     9     8     7    1
    10     7     1    1
    11     1     2    1
    12     2     3    1
    13     3     4    1
    14     4     5    1
    15     5    19    1
    16    19    20    1
    17    20    21   am
    18    21    22    2
    19    21    24    1
    20    24    25   ar
    21    25    26   ar
    22    26    27    1
    23    26    28   ar
    24    28    29   ar
    25    29    30    1
    26    29    31   ar
    27     5     6    1
    28     6     1    1
    29    31    24   ar
    30     9    13    1
    31    12    14    1
    32    20    23    1
@<TRIPOS>MOLECULE
*****
 31 32 0 0 0
SMALL
GASTEIGER

@<TRIPOS>ATOM
      1 N          -8.5172  -15.7868   25.3161 N.3     1  UNL1       -0.2712
      2 C          -8.4405  -15.9121   26.8089 C.3     1  UNL1        0.0721
      3 C          -7.1132  -15.8230   27.5019 C.3     1  UNL1        0.0174
      4 C          -5.8625  -15.6086   26.7021 C.3     1  UNL1        0.0045
      5 C          -5.9391  -15.4834   25.2093 C.3     1  UNL1        0.0356
      6 C          -7.2664  -15.5725   24.5163 C.3     1  UNL1        0.0738
      7 C          -9.8445  -15.8759   24.6231 C.3     1  UNL1        0.0937
      8 C         -10.1694  -17.0702   23.7757 C.3     1  UNL1        0.1082
      9 N          -9.4204  -18.2604   20.0646 N.am    1  UNL1       -0.2921
     10 C          -9.6661  -18.3011   21.5438 C.2     1  UNL1        0.3007
     11 O          -9.6542  -19.6134   22.2702 O.2     1  UNL1       -0.2528
     12 N          -9.9237  -17.0295   22.2965 N.am    1  UNL1       -0.2875
     13 H          -9.4282  -17.3991   19.5878 H       1  UNL1        0.1508
     14 H          -9.9316  -16.1682   21.8198 H       1  UNL1        0.1510
     15 C         -10.6366  -19.6977   19.0874 C.3     1  UNL1        0.0197
     16 C          -9.1628  -19.5320   19.3118 C.3     1  UNL1        0.0583
     17 C          -7.6890  -19.3662   19.5363 C.3     1  UNL1        0.0197
     18 C          -8.9051  -20.8036   18.5590 C.3     1  UNL1        0.0197
     19 C          -4.6883  -15.2690   24.4095 C.3     1  UNL1        0.0910
     20 N          -4.4681  -16.0387   23.1410 N.am    1  UNL1       -0.3008
     21 C          -3.9230  -17.4351   23.1961 C.2     1  UNL1        0.2459
     22 O          -3.5981  -18.0617   24.5196 O.2     1  UNL1       -0.2701
     23 H          -4.6813  -15.6274   22.2723 H       1  UNL1        0.1497
     24 C          -3.7028  -18.2048   21.9276 C.ar    1  UNL1        0.0550
     25 C          -2.6703  -17.7454   20.9412 C.ar    1  UNL1        0.0160
     26 C          -2.4501  -18.5151   19.6727 C.ar    1  UNL1        0.0587
     27 CL         -1.4176  -18.0557   18.6863 Cl      1  UNL1       -0.0822
     28 C          -3.2624  -19.7442   19.3906 C.ar    1  UNL1        0.0228
     29 C          -4.2948  -20.2036   20.3770 C.ar    1  UNL1        0.0587
     30 CL         -5.1071  -21.4327   20.0950 Cl      1  UNL1       -0.0822
     31 C          -4.5150  -19.4339   21.6456 C.ar    1  UNL1        0.0160
@<TRIPOS>BOND
     1    15    16    1
     2    16    17    1
     3    16    18    1
     4    16     9    1
     5     9    10   am
     6    10    11    2
     7    10    12   am
     8    12     8    1
     9     8     7    1
    10     7     1    1
    11     1     2    1
    12     2     3    1
    13     3     4    1
    14     4     5    1
    15     5    19    1
    16    19    20    1
    17    20    21   am
    18    21    22    2
    19    21    24    1
    20    24    25   ar
    21    25    26   ar
    22    26    27    1
    23    26    28   ar
    24    28    29   ar
    25    29    30    1
    26    29    31   ar
    27     5     6    1
    28     6     1    1
    29    31    24   ar
    30     9    13    1
    31    12    14    1
    32    20    23    1
@<TRIPOS>MOLECULE
*****
 31 32 0 0 0
SMALL
GASTEIGER

@<TRIPOS>ATOM
      1 N          -8.4752  -16.8302   26.1685 N.3     1  UNL1       -0.2712
      2 C          -8.3881  -16.2484   27.5483 C.3     1  UNL1        0.0721
      3 C          -7.2575  -15.3293   27.9048 C.3     1  UNL1        0.0174
      4 C          -6.2140  -14.9921   26.8816 C.3     1  UNL1        0.0045
      5 C          -6.3010  -15.5739   25.5018 C.3     1  UNL1        0.0356
      6 C          -7.4316  -16.4929   25.1453 C.3     1  UNL1        0.0738
      7 C          -9.6058  -17.7492   25.8120 C.3     1  UNL1        0.0937
      8 C          -9.4344  -18.7591   24.7163 C.3     1  UNL1        0.1082
      9 N         -11.6516  -18.0196   21.5089 N.am    1  UNL1       -0.2921
     10 C         -10.5993  -17.8765   22.5682 C.2     1  UNL1        0.3007
     11 O          -9.6596  -16.7077   22.5389 O.2     1  UNL1       -0.2528
     12 N         -10.4867  -18.9022   23.6569 N.am    1  UNL1       -0.2875
     13 H         -12.2683  -18.7868   21.5281 H       1  UNL1        0.1508
     14 H         -11.1034  -19.6694   23.6762 H       1  UNL1        0.1510
     15 C         -10.9476  -17.8664   19.5137 C.3     1  UNL1        0.0197
     16 C         -11.7642  -16.9939   20.4202 C.3     1  UNL1        0.0583
     17 C         -12.5809  -16.1214   21.3267 C.3     1  UNL1        0.0197
     18 C         -11.8769  -15.9682   19.3315 C.3     1  UNL1        0.0197
     19 C          -5.2574  -15.2366   24.4784 C.3     1  UNL1        0.0910
     20 N          -5.0921  -16.1001   23.2631 N.am    1  UNL1       -0.3008
     21 C          -4.3268  -17.3870   23.3557 C.2     1  UNL1        0.2459
     22 O          -3.7269  -17.8102   24.6637 O.2     1  UNL1       -0.2701
     23 H          -5.4859  -15.8223   22.4046 H       1  UNL1        0.1497
     24 C          -4.1616  -18.2504   22.1404 C.ar    1  UNL1        0.0550
     25 C          -3.0240  -18.0039   21.1942 C.ar    1  UNL1        0.0160
     26 C          -2.8587  -18.8673   19.9789 C.ar    1  UNL1        0.0587
     27 CL         -1.7212  -18.6208   19.0328 Cl      1  UNL1       -0.0822
     28 C          -3.8310  -19.9774   19.7097 C.ar    1  UNL1        0.0228
     29 C          -4.9686  -20.2240   20.6558 C.ar    1  UNL1        0.0587
     30 CL         -5.9408  -21.3340   20.3867 Cl      1  UNL1       -0.0822
     31 C          -5.1338  -19.3604   21.8712 C.ar    1  UNL1        0.0160
@<TRIPOS>BOND
     1    15    16    1
     2    16    17    1
     3    16    18    1
     4    16     9    1
     5     9    10   am
     6    10    11    2
     7    10    12   am
     8    12     8    1
     9     8     7    1
    10     7     1    1
    11     1     2    1
    12     2     3    1
    13     3     4    1
    14     4     5    1
    15     5    19    1
    16    19    20    1
    17    20    21   am
    18    21    22    2
    19    21    24    1
    20    24    25   ar
    21    25    26   ar
    22    26    27    1
    23    26    28   ar
    24    28    29   ar
    25    29    30    1
    26    29    31   ar
    27     5     6    1
    28     6     1    1
    29    31    24   ar
    30     9    13    1
    31    12    14    1
    32    20    23    1
@<TRIPOS>MOLECULE
*****
 31 32 0 0 0
SMALL
GASTEIGER

@<TRIPOS>ATOM
      1 N          -3.5794  -19.3673   20.0426 N.3     1  UNL1       -0.2712
      2 C          -2.6214  -18.9751   18.9571 C.3     1  UNL1        0.0721
      3 C          -1.6306  -17.8739   19.1931 C.3     1  UNL1        0.0174
      4 C          -1.5978  -17.1649   20.5145 C.3     1  UNL1        0.0045
      5 C          -2.5559  -17.5571   21.5999 C.3     1  UNL1        0.0356
      6 C          -3.5467  -18.6583   21.3640 C.3     1  UNL1        0.0738
      7 C          -4.5702  -20.4685   19.8066 C.3     1  UNL1        0.0937
      8 C          -6.0154  -20.1402   19.5751 C.3     1  UNL1        0.1082
      9 N          -9.1695  -18.8748   21.6246 N.am    1  UNL1       -0.2921
     10 C          -8.3095  -19.3229   20.4802 C.2     1  UNL1        0.3007
     11 O          -8.8836  -19.4021   19.0967 O.2     1  UNL1       -0.2528
     12 N          -6.8754  -19.6920   20.7194 N.am    1  UNL1       -0.2875
     13 H          -8.7927  -18.8228   22.5326 H       1  UNL1        0.1508
     14 H          -6.4986  -19.6400   21.6275 H       1  UNL1        0.1510
     15 C         -10.1823  -17.1190   20.9987 C.3     1  UNL1        0.0197
     16 C         -10.6036  -18.5057   21.3854 C.3     1  UNL1        0.0583
     17 C         -11.0249  -19.8924   21.7721 C.3     1  UNL1        0.0197
     18 C         -12.0377  -18.1367   21.1463 C.3     1  UNL1        0.0197
     19 C          -2.5232  -16.8480   22.9214 C.3     1  UNL1        0.0910
     20 N          -3.7482  -16.8170   23.7864 N.am    1  UNL1       -0.3008
     21 C          -4.7245  -15.6847   23.6638 C.2     1  UNL1        0.2459
     22 O          -4.4756  -14.5836   22.6761 O.2     1  UNL1       -0.2701
     23 H          -3.9115  -17.5397   24.4347 H       1  UNL1        0.1497
     24 C          -5.9495  -15.6537   24.5288 C.ar    1  UNL1        0.0550
     25 C          -7.2788  -16.0547   23.9611 C.ar    1  UNL1        0.0160
     26 C          -8.5039  -16.0236   24.8261 C.ar    1  UNL1        0.0587
     27 CL         -9.8331  -16.4247   24.2585 Cl      1  UNL1       -0.0822
     28 C          -8.3997  -15.5915   26.2588 C.ar    1  UNL1        0.0228
     29 C          -7.0704  -15.1905   26.8264 C.ar    1  UNL1        0.0587
     30 CL         -6.9661  -14.7584   28.2590 Cl      1  UNL1       -0.0822
     31 C          -5.8453  -15.2216   25.9613 C.ar    1  UNL1        0.0160
@<TRIPOS>BOND
     1    15    16    1
     2    16    17    1
     3    16    18    1
     4    16     9    1
     5     9    10   am
     6    10    11    2
     7    10    12   am
     8    12     8    1
     9     8     7    1
    10     7     1    1
    11     1     2    1
    12     2     3    1
    13     3     4    1
    14     4     5    1
    15     5    19    1
    16    19    20    1
    17    20    21   am
    18    21    22    2
    19    21    24    1
    20    24    25   ar
    21    25    26   ar
    22    26    27    1
    23    26    28   ar
    24    28    29   ar
    25    29    30    1
    26    29    31   ar
    27     5     6    1
    28     6     1    1
    29    31    24   ar
    30     9    13    1
    31    12    14    1
    32    20    23    1
