@<TRIPOS>MOLECULE
*****
 35 38 0 0 0
SMALL
GASTEIGER

@<TRIPOS>ATOM
      1 N         -12.7134   -4.8778   19.7198 N.pl3   1  UNL1       -0.2138
      2 H         -11.8437   -5.0518   20.1472 H       1  UNL1        0.1738
      3 C         -13.0186   -7.2490   18.7031 C.ar    1  UNL1        0.0591
      4 C         -13.9093   -8.3941   18.3215 C.ar    1  UNL1        0.0111
      5 C         -15.3856   -8.3128   18.5753 C.ar    1  UNL1       -0.0234
      6 C         -15.9709   -7.0866   19.2105 C.ar    1  UNL1       -0.0233
      7 C         -15.0803   -5.9416   19.5920 C.ar    1  UNL1        0.0126
      8 C         -13.6041   -6.0227   19.3383 C.ar    1  UNL1        0.0775
      9 C         -17.4044   -6.8022   19.5489 C.3     1  UNL1        0.0434
     10 C         -18.6064   -7.6739   19.3356 C.3     1  UNL1        0.0768
     11 N         -18.6717   -9.0451   18.7312 N.3     1  UNL1       -0.2709
     12 C         -20.0382   -9.6593   18.6574 C.3     1  UNL1        0.0897
     13 C         -17.5514   -9.8835   18.1909 C.3     1  UNL1        0.0768
     14 C         -16.0889   -9.5576   18.1215 C.3     1  UNL1        0.0434
     15 N         -11.5425   -7.3303   18.4493 N.pl3   1  UNL1       -0.3331
     16 H         -10.9847   -7.9433   18.9806 H       1  UNL1        0.1468
     17 C          -9.6890   -5.6728   17.6962 C.3     1  UNL1        0.0212
     18 C         -10.9163   -6.4775   17.3860 C.3     1  UNL1        0.0692
     19 C         -11.5174   -6.4294   16.0126 C.3     1  UNL1        0.0212
     20 S         -13.1477   -3.4676   19.4501 S.O2    1  UNL1        0.0736
     21 O         -12.8821   -3.6656   17.9871 O.2     1  UNL1       -0.1499
     22 O         -13.4134   -3.2696   20.9131 O.2     1  UNL1       -0.1499
     23 C         -13.5820   -2.0574   19.1804 C.ar    1  UNL1        0.1252
     24 C         -14.9696   -1.6176   19.5429 C.ar    1  UNL1        0.0202
     25 C         -15.4038   -0.2074   19.2731 C.ar    1  UNL1        0.0014
     26 C         -14.4507    0.7630   18.6409 C.ar    1  UNL1        0.0001
     27 C         -13.0631    0.3233   18.2785 C.ar    1  UNL1        0.0014
     28 C         -12.6288   -1.0869   18.5482 C.ar    1  UNL1        0.0202
     29 C         -14.8849    2.1732   18.3712 C.ar    1  UNL1        0.0001
     30 C         -15.9879    2.7864   19.1821 C.ar    1  UNL1        0.0009
     31 C         -16.4222    4.1966   18.9124 C.ar    1  UNL1        0.0114
     32 C         -15.7535    4.9936   17.8318 C.ar    1  UNL1        0.0577
     33 CL        -16.1878    6.4039   17.5621 Cl      1  UNL1       -0.0822
     34 C         -14.6505    4.3804   17.0210 C.ar    1  UNL1        0.0114
     35 C         -14.2163    2.9703   17.2907 C.ar    1  UNL1        0.0009
@<TRIPOS>BOND
     1    17    18    1
     2    18    19    1
     3    18    15    1
     4    15     3    1
     5     3     4   ar
     6     4     5   ar
     7     5     6   ar
     8     6     7   ar
     9     7     8   ar
    10     8     1    1
    11     1    20    1
    12    20    21    2
    13    20    22    2
    14    20    23    1
    15    23    24   ar
    16    24    25   ar
    17    25    26   ar
    18    26    29    1
    19    29    30   ar
    20    30    31   ar
    21    31    32   ar
    22    32    33    1
    23    32    34   ar
    24    34    35   ar
    25    26    27   ar
    26    27    28   ar
    27     6     9    1
    28     9    10    1
    29    10    11    1
    30    11    12    1
    31    11    13    1
    32    13    14    1
    33     8     3   ar
    34    28    23   ar
    35    14     5    1
    36    35    29   ar
    37    15    16    1
    38     1     2    1
@<TRIPOS>MOLECULE
*****
 35 38 0 0 0
SMALL
GASTEIGER

@<TRIPOS>ATOM
      1 N           5.7687   -2.6992   18.6047 N.pl3   1  UNL1       -0.2138
      2 H           6.0367   -3.0876   17.7407 H       1  UNL1        0.1738
      3 C           5.2878   -0.2481   17.8903 C.ar    1  UNL1        0.0591
      4 C           4.4087    0.9668   17.9261 C.ar    1  UNL1        0.0111
      5 C           3.1313    0.9454   18.7123 C.ar    1  UNL1       -0.0234
      6 C           2.7332   -0.2909   19.4625 C.ar    1  UNL1       -0.0233
      7 C           3.6122   -1.5058   19.4267 C.ar    1  UNL1        0.0126
      8 C           4.8896   -1.4844   18.6406 C.ar    1  UNL1        0.0775
      9 C           1.5114   -0.5231   20.3013 C.3     1  UNL1        0.0434
     10 C           0.3862    0.4238   20.5970 C.3     1  UNL1        0.0768
     11 N           0.2049    1.8366   20.1269 N.3     1  UNL1       -0.2709
     12 C          -1.0401    2.5256   20.6014 C.3     1  UNL1        0.0897
     13 C           1.1039    2.6516   19.2450 C.3     1  UNL1        0.0768
     14 C           2.4063    2.2549   18.6155 C.3     1  UNL1        0.0434
     15 N           6.5651   -0.2266   17.1042 N.pl3   1  UNL1       -0.3331
     16 H           6.8075   -0.9944   16.5378 H       1  UNL1        0.1468
     17 C           8.1988    1.2738   18.4572 C.3     1  UNL1        0.0212
     18 C           7.4731    0.9650   17.1812 C.3     1  UNL1        0.0692
     19 C           7.6554    1.8477   15.9822 C.3     1  UNL1        0.0212
     20 S           6.2395   -3.3223   19.8854 S.O2    1  UNL1        0.0736
     21 O           5.3872   -4.5263   19.6129 O.2     1  UNL1       -0.1499
     22 O           7.0917   -2.1184   20.1579 O.2     1  UNL1       -0.1499
     23 C           6.7102   -3.9454   21.1661 C.ar    1  UNL1        0.1252
     24 C           5.9117   -3.7696   22.4236 C.ar    1  UNL1        0.0202
     25 C           6.3825   -4.3927   23.7043 C.ar    1  UNL1        0.0014
     26 C           7.6518   -5.1916   23.7275 C.ar    1  UNL1        0.0001
     27 C           8.4504   -5.3674   22.4699 C.ar    1  UNL1        0.0014
     28 C           7.9796   -4.7444   21.1892 C.ar    1  UNL1        0.0202
     29 C           8.1227   -5.8147   25.0081 C.ar    1  UNL1        0.0001
     30 C           8.1091   -7.3064   25.1656 C.ar    1  UNL1        0.0009
     31 C           8.5799   -7.9296   26.4462 C.ar    1  UNL1        0.0114
     32 C           9.0644   -7.0611   27.5693 C.ar    1  UNL1        0.0577
     33 CL          9.5352   -7.6844   28.8499 Cl      1  UNL1       -0.0822
     34 C           9.0779   -5.5694   27.4116 C.ar    1  UNL1        0.0114
     35 C           8.6071   -4.9464   26.1311 C.ar    1  UNL1        0.0009
@<TRIPOS>BOND
     1    17    18    1
     2    18    19    1
     3    18    15    1
     4    15     3    1
     5     3     4   ar
     6     4     5   ar
     7     5     6   ar
     8     6     7   ar
     9     7     8   ar
    10     8     1    1
    11     1    20    1
    12    20    21    2
    13    20    22    2
    14    20    23    1
    15    23    24   ar
    16    24    25   ar
    17    25    26   ar
    18    26    29    1
    19    29    30   ar
    20    30    31   ar
    21    31    32   ar
    22    32    33    1
    23    32    34   ar
    24    34    35   ar
    25    26    27   ar
    26    27    28   ar
    27     6     9    1
    28     9    10    1
    29    10    11    1
    30    11    12    1
    31    11    13    1
    32    13    14    1
    33     8     3   ar
    34    28    23   ar
    35    14     5    1
    36    35    29   ar
    37    15    16    1
    38     1     2    1
@<TRIPOS>MOLECULE
*****
 35 38 0 0 0
SMALL
GASTEIGER

@<TRIPOS>ATOM
      1 N         -16.4239    1.5619   19.3821 N.pl3   1  UNL1       -0.2138
      2 H         -16.9715    1.8153   18.6041 H       1  UNL1        0.1738
      3 C         -17.5308    2.0754   21.6757 C.ar    1  UNL1        0.0591
      4 C         -17.5942    2.8888   22.9345 C.ar    1  UNL1        0.0111
      5 C         -16.6140    4.0021   23.1582 C.ar    1  UNL1       -0.0234
      6 C         -15.5706    4.3019   22.1232 C.ar    1  UNL1       -0.0233
      7 C         -15.5072    3.4886   20.8645 C.ar    1  UNL1        0.0126
      8 C         -16.4873    2.3753   20.6407 C.ar    1  UNL1        0.0775
      9 C         -14.5062    5.3586   22.1470 C.3     1  UNL1        0.0434
     10 C         -14.2224    6.3764   23.2118 C.3     1  UNL1        0.0768
     11 N         -14.9329    6.5888   24.5156 N.3     1  UNL1       -0.2709
     12 C         -14.4037    7.7012   25.3715 C.3     1  UNL1        0.0897
     13 C         -16.1027    5.8360   25.0768 C.3     1  UNL1        0.0768
     14 C         -16.8509    4.6848   24.4727 C.3     1  UNL1        0.0434
     15 N         -18.5108    0.9622   21.4521 N.pl3   1  UNL1       -0.3331
     16 H         -18.3580    0.0814   21.8646 H       1  UNL1        0.1468
     17 C         -20.3286    2.5606   20.5080 C.3     1  UNL1        0.0212
     18 C         -19.7239    1.1909   20.5999 C.3     1  UNL1        0.0692
     19 C         -20.3324    0.0499   19.8396 C.3     1  UNL1        0.0212
     20 S         -15.5262    0.3624   19.3087 S.O2    1  UNL1        0.0736
     21 O         -14.4126    1.2271   18.7967 O.2     1  UNL1       -0.1499
     22 O         -16.6399   -0.5023   19.8207 O.2     1  UNL1       -0.1499
     23 C         -14.6285   -0.8371   19.2354 C.ar    1  UNL1        0.1252
     24 C         -13.4550   -0.8397   18.3011 C.ar    1  UNL1        0.0202
     25 C         -12.5574   -2.0392   18.2278 C.ar    1  UNL1        0.0014
     26 C         -12.8332   -3.2362   19.0887 C.ar    1  UNL1        0.0001
     27 C         -14.0067   -3.2336   20.0230 C.ar    1  UNL1        0.0014
     28 C         -14.9044   -2.0341   20.0963 C.ar    1  UNL1        0.0202
     29 C         -11.9356   -4.4357   19.0154 C.ar    1  UNL1        0.0001
     30 C         -10.4466   -4.2571   18.9797 C.ar    1  UNL1        0.0009
     31 C          -9.5489   -5.4566   18.9064 C.ar    1  UNL1        0.0114
     32 C         -10.1402   -6.8347   18.8689 C.ar    1  UNL1        0.0577
     33 CL         -9.2425   -8.0342   18.7956 Cl      1  UNL1       -0.0822
     34 C         -11.6291   -7.0132   18.9046 C.ar    1  UNL1        0.0114
     35 C         -12.5267   -5.8138   18.9779 C.ar    1  UNL1        0.0009
@<TRIPOS>BOND
     1    17    18    1
     2    18    19    1
     3    18    15    1
     4    15     3    1
     5     3     4   ar
     6     4     5   ar
     7     5     6   ar
     8     6     7   ar
     9     7     8   ar
    10     8     1    1
    11     1    20    1
    12    20    21    2
    13    20    22    2
    14    20    23    1
    15    23    24   ar
    16    24    25   ar
    17    25    26   ar
    18    26    29    1
    19    29    30   ar
    20    30    31   ar
    21    31    32   ar
    22    32    33    1
    23    32    34   ar
    24    34    35   ar
    25    26    27   ar
    26    27    28   ar
    27     6     9    1
    28     9    10    1
    29    10    11    1
    30    11    12    1
    31    11    13    1
    32    13    14    1
    33     8     3   ar
    34    28    23   ar
    35    14     5    1
    36    35    29   ar
    37    15    16    1
    38     1     2    1
@<TRIPOS>MOLECULE
*****
 35 38 0 0 0
SMALL
GASTEIGER

@<TRIPOS>ATOM
      1 N         -12.5932   -3.8546   18.2231 N.pl3   1  UNL1       -0.2138
      2 H         -11.6419   -3.8345   17.9704 H       1  UNL1        0.1738
      3 C         -12.6165   -6.4368   17.9375 C.ar    1  UNL1        0.0591
      4 C         -13.3416   -7.7470   18.0254 C.ar    1  UNL1        0.0111
      5 C         -14.7684   -7.7851   18.4868 C.ar    1  UNL1       -0.0234
      6 C         -15.4700   -6.5132   18.8602 C.ar    1  UNL1       -0.0233
      7 C         -14.7451   -5.2030   18.7724 C.ar    1  UNL1        0.0126
      8 C         -13.3183   -5.1648   18.3110 C.ar    1  UNL1        0.0775
      9 C         -16.8789   -6.3287   19.3411 C.3     1  UNL1        0.0434
     10 C         -17.9340   -7.3707   19.5671 C.3     1  UNL1        0.0768
     11 N         -17.8407   -8.8545   19.3682 N.3     1  UNL1       -0.2709
     12 C         -19.0831   -9.6329   19.6853 C.3     1  UNL1        0.0897
     13 C         -16.6695   -9.6628   18.8941 C.3     1  UNL1        0.0768
     14 C         -15.3021   -9.1869   18.5018 C.3     1  UNL1        0.0434
     15 N         -11.1898   -6.3987   17.4762 N.pl3   1  UNL1       -0.3331
     16 H         -10.9847   -6.3227   16.5163 H       1  UNL1        0.1468
     17 C          -9.5986   -5.2326   19.1669 C.3     1  UNL1        0.0212
     18 C         -10.0755   -6.4765   18.4774 C.3     1  UNL1        0.0692
     19 C          -9.4382   -7.7981   18.7891 C.3     1  UNL1        0.0212
     20 S         -13.3176   -2.5752   18.5204 S.O2    1  UNL1        0.0736
     21 O         -12.9250   -2.6883   19.9637 O.2     1  UNL1       -0.1499
     22 O         -13.7102   -2.4621   17.0771 O.2     1  UNL1       -0.1499
     23 C         -14.0419   -1.2958   18.8177 C.ar    1  UNL1        0.1252
     24 C         -13.5167    0.0046   18.2855 C.ar    1  UNL1        0.0202
     25 C         -14.2411    1.2840   18.5828 C.ar    1  UNL1        0.0014
     26 C         -15.4907    1.2631   19.4122 C.ar    1  UNL1        0.0001
     27 C         -16.0159   -0.0372   19.9445 C.ar    1  UNL1        0.0014
     28 C         -15.2916   -1.3167   19.6472 C.ar    1  UNL1        0.0202
     29 C         -16.2151    2.5425   19.7096 C.ar    1  UNL1        0.0001
     30 C         -16.2725    3.6291   18.6771 C.ar    1  UNL1        0.0009
     31 C         -16.9969    4.9086   18.9743 C.ar    1  UNL1        0.0114
     32 C         -17.6639    5.1013   20.3040 C.ar    1  UNL1        0.0577
     33 CL        -18.3883    6.3807   20.6013 Cl      1  UNL1       -0.0822
     34 C         -17.6065    4.0146   21.3364 C.ar    1  UNL1        0.0114
     35 C         -16.8821    2.7353   21.0392 C.ar    1  UNL1        0.0009
@<TRIPOS>BOND
     1    17    18    1
     2    18    19    1
     3    18    15    1
     4    15     3    1
     5     3     4   ar
     6     4     5   ar
     7     5     6   ar
     8     6     7   ar
     9     7     8   ar
    10     8     1    1
    11     1    20    1
    12    20    21    2
    13    20    22    2
    14    20    23    1
    15    23    24   ar
    16    24    25   ar
    17    25    26   ar
    18    26    29    1
    19    29    30   ar
    20    30    31   ar
    21    31    32   ar
    22    32    33    1
    23    32    34   ar
    24    34    35   ar
    25    26    27   ar
    26    27    28   ar
    27     6     9    1
    28     9    10    1
    29    10    11    1
    30    11    12    1
    31    11    13    1
    32    13    14    1
    33     8     3   ar
    34    28    23   ar
    35    14     5    1
    36    35    29   ar
    37    15    16    1
    38     1     2    1
@<TRIPOS>MOLECULE
*****
 35 38 0 0 0
SMALL
GASTEIGER

@<TRIPOS>ATOM
      1 N           6.7837   -0.6366   19.0085 N.pl3   1  UNL1       -0.2138
      2 H           7.5204   -0.2959   18.4513 H       1  UNL1        0.1738
      3 C           4.3048   -0.9994   18.3207 C.ar    1  UNL1        0.0591
      4 C           2.9158   -0.4635   18.1372 C.ar    1  UNL1        0.0111
      5 C           2.6169    0.9710   18.4581 C.ar    1  UNL1       -0.0234
      6 C           3.7068    1.8695   18.9624 C.ar    1  UNL1       -0.0233
      7 C           5.0958    1.3337   19.1459 C.ar    1  UNL1        0.0126
      8 C           5.3948   -0.1007   18.8250 C.ar    1  UNL1        0.0775
      9 C           3.6246    3.3192   19.3390 C.3     1  UNL1        0.0434
     10 C           2.4319    4.2283   19.3041 C.3     1  UNL1        0.0768
     11 N           1.0271    3.9123   18.8841 N.3     1  UNL1       -0.2709
     12 C           0.0526    5.0498   18.9635 C.3     1  UNL1        0.0897
     13 C           0.4678    2.6091   18.3953 C.3     1  UNL1        0.0768
     14 C           1.1753    1.3001   18.2057 C.3     1  UNL1        0.0434
     15 N           4.6036   -2.4338   17.9998 N.pl3   1  UNL1       -0.3331
     16 H           5.0088   -2.6705   17.1343 H       1  UNL1        0.1468
     17 C           4.6553   -4.9325   18.7099 C.3     1  UNL1        0.0212
     18 C           4.2851   -3.5076   18.9976 C.3     1  UNL1        0.0692
     19 C           3.5964   -3.1565   20.2831 C.3     1  UNL1        0.0212
     20 S           7.0502   -1.6917   20.0409 S.O2    1  UNL1        0.0736
     21 O           6.5063   -0.7866   21.1062 O.2     1  UNL1       -0.1499
     22 O           7.5941   -2.5968   18.9755 O.2     1  UNL1       -0.1499
     23 C           7.3166   -2.7468   21.0733 C.ar    1  UNL1        0.1252
     24 C           8.3422   -3.8098   20.8119 C.ar    1  UNL1        0.0202
     25 C           8.6086   -4.8648   21.8443 C.ar    1  UNL1        0.0014
     26 C           7.8495   -4.8570   23.1380 C.ar    1  UNL1        0.0001
     27 C           6.8239   -3.7940   23.3994 C.ar    1  UNL1        0.0014
     28 C           6.5575   -2.7389   22.3670 C.ar    1  UNL1        0.0202
     29 C           8.1159   -5.9120   24.1705 C.ar    1  UNL1        0.0001
     30 C           7.3596   -5.9015   25.4659 C.ar    1  UNL1        0.0009
     31 C           7.6260   -6.9565   26.4984 C.ar    1  UNL1        0.0114
     32 C           8.6486   -8.0220   26.2355 C.ar    1  UNL1        0.0577
     33 CL          8.9149   -9.0770   27.2680 Cl      1  UNL1       -0.0822
     34 C           9.4048   -8.0324   24.9401 C.ar    1  UNL1        0.0114
     35 C           9.1385   -6.9775   23.9077 C.ar    1  UNL1        0.0009
@<TRIPOS>BOND
     1    17    18    1
     2    18    19    1
     3    18    15    1
     4    15     3    1
     5     3     4   ar
     6     4     5   ar
     7     5     6   ar
     8     6     7   ar
     9     7     8   ar
    10     8     1    1
    11     1    20    1
    12    20    21    2
    13    20    22    2
    14    20    23    1
    15    23    24   ar
    16    24    25   ar
    17    25    26   ar
    18    26    29    1
    19    29    30   ar
    20    30    31   ar
    21    31    32   ar
    22    32    33    1
    23    32    34   ar
    24    34    35   ar
    25    26    27   ar
    26    27    28   ar
    27     6     9    1
    28     9    10    1
    29    10    11    1
    30    11    12    1
    31    11    13    1
    32    13    14    1
    33     8     3   ar
    34    28    23   ar
    35    14     5    1
    36    35    29   ar
    37    15    16    1
    38     1     2    1
@<TRIPOS>MOLECULE
*****
 35 38 0 0 0
SMALL
GASTEIGER

@<TRIPOS>ATOM
      1 N           3.8015   -0.8767   30.7298 N.pl3   1  UNL1       -0.2138
      2 H           4.3921   -1.5456   30.3140 H       1  UNL1        0.1738
      3 C           4.5269   -1.5835   33.1222 C.ar    1  UNL1        0.0591
      4 C           4.6540   -1.2767   34.5850 C.ar    1  UNL1        0.0111
      5 C           4.1827    0.0439   35.1181 C.ar    1  UNL1       -0.0234
      6 C           3.5843    1.0574   34.1884 C.ar    1  UNL1       -0.0233
      7 C           3.4572    0.7507   32.7256 C.ar    1  UNL1        0.0126
      8 C           3.9285   -0.5698   32.1925 C.ar    1  UNL1        0.0775
      9 C           3.0558    2.4241   34.5096 C.3     1  UNL1        0.0434
     10 C           2.9952    3.1145   35.8399 C.3     1  UNL1        0.0768
     11 N           3.4481    2.6088   37.1774 N.3     1  UNL1       -0.2709
     12 C           3.2493    3.5484   38.3297 C.3     1  UNL1        0.0897
     13 C           4.0735    1.2879   37.5152 C.3     1  UNL1        0.0768
     14 C           4.4004    0.1464   36.5987 C.3     1  UNL1        0.0434
     15 N           4.9983   -2.9040   32.5892 N.pl3   1  UNL1       -0.3331
     16 H           4.3682   -3.6564   32.5107 H       1  UNL1        0.1468
     17 C           7.3794   -1.9197   32.2550 C.3     1  UNL1        0.0212
     18 C           6.4297   -3.0781   32.1759 C.3     1  UNL1        0.0692
     19 C           6.9114   -4.4106   31.6835 C.3     1  UNL1        0.0212
     20 S           2.7744   -0.1643   29.9005 S.O2    1  UNL1        0.0736
     21 O           3.8649    0.5853   29.1940 O.2     1  UNL1       -0.1499
     22 O           1.6840   -0.9138   30.6070 O.2     1  UNL1       -0.1499
     23 C           1.7474    0.5482   29.0712 C.ar    1  UNL1        0.1252
     24 C           0.4311   -0.1095   28.7798 C.ar    1  UNL1        0.0202
     25 C          -0.5958    0.6030   27.9505 C.ar    1  UNL1        0.0014
     26 C          -0.3066    1.9730   27.4126 C.ar    1  UNL1        0.0001
     27 C           1.0096    2.6307   27.7041 C.ar    1  UNL1        0.0014
     28 C           2.0367    1.9183   28.5333 C.ar    1  UNL1        0.0202
     29 C          -1.3336    2.6855   26.5834 C.ar    1  UNL1        0.0001
     30 C          -1.1309    2.8353   25.1046 C.ar    1  UNL1        0.0009
     31 C          -2.1578    3.5478   24.2753 C.ar    1  UNL1        0.0114
     32 C          -3.3874    4.1104   24.9246 C.ar    1  UNL1        0.0577
     33 CL         -4.4143    4.8229   24.0952 Cl      1  UNL1       -0.0822
     34 C          -3.5900    3.9606   26.4034 C.ar    1  UNL1        0.0114
     35 C          -2.5631    3.2482   27.2326 C.ar    1  UNL1        0.0009
@<TRIPOS>BOND
     1    17    18    1
     2    18    19    1
     3    18    15    1
     4    15     3    1
     5     3     4   ar
     6     4     5   ar
     7     5     6   ar
     8     6     7   ar
     9     7     8   ar
    10     8     1    1
    11     1    20    1
    12    20    21    2
    13    20    22    2
    14    20    23    1
    15    23    24   ar
    16    24    25   ar
    17    25    26   ar
    18    26    29    1
    19    29    30   ar
    20    30    31   ar
    21    31    32   ar
    22    32    33    1
    23    32    34   ar
    24    34    35   ar
    25    26    27   ar
    26    27    28   ar
    27     6     9    1
    28     9    10    1
    29    10    11    1
    30    11    12    1
    31    11    13    1
    32    13    14    1
    33     8     3   ar
    34    28    23   ar
    35    14     5    1
    36    35    29   ar
    37    15    16    1
    38     1     2    1
@<TRIPOS>MOLECULE
*****
 35 38 0 0 0
SMALL
GASTEIGER

@<TRIPOS>ATOM
      1 N           8.3844   -4.1091   25.7070 N.pl3   1  UNL1       -0.2138
      2 H           9.2435   -4.4682   25.3871 H       1  UNL1        0.1738
      3 C           8.4347   -5.4337   27.9414 C.ar    1  UNL1        0.0591
      4 C           8.0657   -5.5510   29.3906 C.ar    1  UNL1        0.0111
      5 C           7.2773   -4.4611   30.0544 C.ar    1  UNL1       -0.0234
      6 C           6.8580   -3.2539   29.2691 C.ar    1  UNL1       -0.0233
      7 C           7.2270   -3.1365   27.8200 C.ar    1  UNL1        0.0126
      8 C           8.0154   -4.2264   27.1561 C.ar    1  UNL1        0.0775
      9 C           6.0741   -2.0622   29.7332 C.3     1  UNL1        0.0434
     10 C           5.5160   -1.7834   31.0974 C.3     1  UNL1        0.0768
     11 N           5.6039   -2.6274   32.3341 N.3     1  UNL1       -0.2709
     12 C           4.9357   -2.0660   33.5541 C.3     1  UNL1        0.0897
     13 C           6.2716   -3.9588   32.5124 C.3     1  UNL1        0.0768
     14 C           7.0164   -4.7748   31.4979 C.3     1  UNL1        0.0434
     15 N           9.2231   -6.5236   27.2777 N.pl3   1  UNL1       -0.3331
     16 H          10.2050   -6.4658   27.2366 H       1  UNL1        0.1468
     17 C           8.2339   -8.9145   27.5129 C.3     1  UNL1        0.0212
     18 C           8.5152   -7.7015   26.6765 C.3     1  UNL1        0.0692
     19 C           8.0886   -7.6665   25.2388 C.3     1  UNL1        0.0212
     20 S           7.4445   -3.4447   24.7451 S.O2    1  UNL1        0.0736
     21 O           6.5323   -4.6335   24.8154 O.2     1  UNL1       -0.1499
     22 O           8.3567   -2.2560   24.6749 O.2     1  UNL1       -0.1499
     23 C           6.5046   -2.7803   23.7833 C.ar    1  UNL1        0.1252
     24 C           6.8417   -1.4340   23.2142 C.ar    1  UNL1        0.0202
     25 C           5.9017   -0.7697   22.2524 C.ar    1  UNL1        0.0014
     26 C           4.6247   -1.4515   21.8596 C.ar    1  UNL1        0.0001
     27 C           4.2876   -2.7978   22.4286 C.ar    1  UNL1        0.0014
     28 C           5.2275   -3.4622   23.3905 C.ar    1  UNL1        0.0202
     29 C           3.6848   -0.7872   20.8978 C.ar    1  UNL1        0.0001
     30 C           4.2216   -0.1080   19.6727 C.ar    1  UNL1        0.0009
     31 C           3.2816    0.5563   18.7108 C.ar    1  UNL1        0.0114
     32 C           1.8049    0.5415   18.9740 C.ar    1  UNL1        0.0577
     33 CL          0.8650    1.2059   18.0121 Cl      1  UNL1       -0.0822
     34 C           1.2682   -0.1377   20.1991 C.ar    1  UNL1        0.0114
     35 C           2.2081   -0.8019   21.1608 C.ar    1  UNL1        0.0009
@<TRIPOS>BOND
     1    17    18    1
     2    18    19    1
     3    18    15    1
     4    15     3    1
     5     3     4   ar
     6     4     5   ar
     7     5     6   ar
     8     6     7   ar
     9     7     8   ar
    10     8     1    1
    11     1    20    1
    12    20    21    2
    13    20    22    2
    14    20    23    1
    15    23    24   ar
    16    24    25   ar
    17    25    26   ar
    18    26    29    1
    19    29    30   ar
    20    30    31   ar
    21    31    32   ar
    22    32    33    1
    23    32    34   ar
    24    34    35   ar
    25    26    27   ar
    26    27    28   ar
    27     6     9    1
    28     9    10    1
    29    10    11    1
    30    11    12    1
    31    11    13    1
    32    13    14    1
    33     8     3   ar
    34    28    23   ar
    35    14     5    1
    36    35    29   ar
    37    15    16    1
    38     1     2    1
@<TRIPOS>MOLECULE
*****
 35 38 0 0 0
SMALL
GASTEIGER

@<TRIPOS>ATOM
      1 N         -15.8239    2.6197   18.6053 N.pl3   1  UNL1       -0.2138
      2 H         -16.4922    2.7597   17.8962 H       1  UNL1        0.1738
      3 C         -14.9327    4.9713   19.2578 C.ar    1  UNL1        0.0591
      4 C         -14.7039    6.0326   20.2929 C.ar    1  UNL1        0.0111
      5 C         -15.1374    5.8035   21.7106 C.ar    1  UNL1       -0.0234
      6 C         -15.7996    4.5132   22.0930 C.ar    1  UNL1       -0.0233
      7 C         -16.0285    3.4519   21.0581 C.ar    1  UNL1        0.0126
      8 C         -15.5950    3.6809   19.6404 C.ar    1  UNL1        0.0775
      9 C         -16.3050    4.0842   23.4387 C.3     1  UNL1        0.0434
     10 C         -16.2727    4.8399   24.7342 C.3     1  UNL1        0.0768
     11 N         -15.7273    6.2108   25.0038 N.3     1  UNL1       -0.2709
     12 C         -15.8454    6.6913   26.4199 C.3     1  UNL1        0.0897
     13 C         -15.0793    7.1649   24.0448 C.3     1  UNL1        0.0768
     14 C         -14.8167    6.9837   22.5791 C.3     1  UNL1        0.0434
     15 N         -14.4992    5.2004   17.8403 N.pl3   1  UNL1       -0.3331
     16 H         -14.8272    4.6104   17.1237 H       1  UNL1        0.1468
     17 C         -12.0846    6.1422   17.6593 C.3     1  UNL1        0.0212
     18 C         -13.5659    6.3287   17.5145 C.3     1  UNL1        0.0692
     19 C         -14.1139    7.6433   17.0440 C.3     1  UNL1        0.0212
     20 S         -15.0343    1.3451   18.6508 S.O2    1  UNL1        0.0736
     21 O         -13.7984    2.0966   18.2535 O.2     1  UNL1       -0.1499
     22 O         -16.2702    0.5937   19.0481 O.2     1  UNL1       -0.1499
     23 C         -14.2447    0.0706   18.6962 C.ar    1  UNL1        0.1252
     24 C         -14.8993   -1.2015   19.1472 C.ar    1  UNL1        0.0202
     25 C         -14.1097   -2.4760   19.1926 C.ar    1  UNL1        0.0014
     26 C         -12.6656   -2.4786   18.7871 C.ar    1  UNL1        0.0001
     27 C         -12.0110   -1.2065   18.3362 C.ar    1  UNL1        0.0014
     28 C         -12.8005    0.0681   18.2907 C.ar    1  UNL1        0.0202
     29 C         -11.8760   -3.7531   18.8325 C.ar    1  UNL1        0.0001
     30 C         -10.3774   -3.7090   18.7827 C.ar    1  UNL1        0.0009
     31 C          -9.5877   -4.9835   18.8281 C.ar    1  UNL1        0.0114
     32 C         -10.2965   -6.3021   18.9234 C.ar    1  UNL1        0.0577
     33 CL         -9.5068   -7.5766   18.9688 Cl      1  UNL1       -0.0822
     34 C         -11.7951   -6.3461   18.9732 C.ar    1  UNL1        0.0114
     35 C         -12.5847   -5.0717   18.9278 C.ar    1  UNL1        0.0009
@<TRIPOS>BOND
     1    17    18    1
     2    18    19    1
     3    18    15    1
     4    15     3    1
     5     3     4   ar
     6     4     5   ar
     7     5     6   ar
     8     6     7   ar
     9     7     8   ar
    10     8     1    1
    11     1    20    1
    12    20    21    2
    13    20    22    2
    14    20    23    1
    15    23    24   ar
    16    24    25   ar
    17    25    26   ar
    18    26    29    1
    19    29    30   ar
    20    30    31   ar
    21    31    32   ar
    22    32    33    1
    23    32    34   ar
    24    34    35   ar
    25    26    27   ar
    26    27    28   ar
    27     6     9    1
    28     9    10    1
    29    10    11    1
    30    11    12    1
    31    11    13    1
    32    13    14    1
    33     8     3   ar
    34    28    23   ar
    35    14     5    1
    36    35    29   ar
    37    15    16    1
    38     1     2    1
@<TRIPOS>MOLECULE
*****
 35 38 0 0 0
SMALL
GASTEIGER

@<TRIPOS>ATOM
      1 N           2.8913    1.9291   24.7725 N.pl3   1  UNL1       -0.2138
      2 H           3.5537    2.5159   25.2040 H       1  UNL1        0.1738
      3 C           4.1069   -0.3534   25.0227 C.ar    1  UNL1        0.0591
      4 C           4.5357   -1.6675   24.4403 C.ar    1  UNL1        0.0111
      5 C           4.1776   -2.0133   23.0252 C.ar    1  UNL1       -0.0234
      6 C           3.3908   -1.0450   22.1927 C.ar    1  UNL1       -0.0233
      7 C           2.9620    0.2691   22.7750 C.ar    1  UNL1        0.0126
      8 C           3.3201    0.6150   24.1901 C.ar    1  UNL1        0.0775
      9 C           2.9321   -1.1905   20.7719 C.3     1  UNL1        0.0434
     10 C           3.1471   -2.3404   19.8329 C.3     1  UNL1        0.0768
     11 N           3.8736   -3.6285   20.0827 N.3     1  UNL1       -0.2709
     12 C           3.9145   -4.5869   18.9295 C.3     1  UNL1        0.0897
     13 C           4.5649   -4.0852   21.3332 C.3     1  UNL1        0.0768
     14 C           4.7002   -3.3663   22.6428 C.3     1  UNL1        0.0434
     15 N           4.4650   -0.0076   26.4376 N.pl3   1  UNL1       -0.3331
     16 H           4.9285    0.8381   26.6356 H       1  UNL1        0.1468
     17 C           5.1021   -1.9950   27.9852 C.3     1  UNL1        0.0212
     18 C           4.1168   -0.9505   27.5511 C.3     1  UNL1        0.0692
     19 C           2.7833   -0.8490   28.2305 C.3     1  UNL1        0.0212
     20 S           1.4533    2.3491   24.6976 S.O2    1  UNL1        0.0736
     21 O           1.8285    3.4687   23.7725 O.2     1  UNL1       -0.1499
     22 O           1.0781    1.2295   25.6227 O.2     1  UNL1       -0.1499
     23 C           0.0152    2.7692   24.6227 C.ar    1  UNL1        0.1252
     24 C          -0.5645    3.2301   23.3183 C.ar    1  UNL1        0.0202
     25 C          -2.0025    3.6501   23.2434 C.ar    1  UNL1        0.0014
     26 C          -2.8609    3.6092   24.4729 C.ar    1  UNL1        0.0001
     27 C          -2.2812    3.1483   25.7773 C.ar    1  UNL1        0.0014
     28 C          -0.8431    2.7282   25.8522 C.ar    1  UNL1        0.0202
     29 C          -4.2989    4.0292   24.3980 C.ar    1  UNL1        0.0001
     30 C          -5.1439    3.6067   23.2329 C.ar    1  UNL1        0.0009
     31 C          -6.5820    4.0267   23.1580 C.ar    1  UNL1        0.0114
     32 C          -7.1751    4.8692   24.2482 C.ar    1  UNL1        0.0577
     33 CL         -8.6131    5.2892   24.1733 Cl      1  UNL1       -0.0822
     34 C          -6.3300    5.2917   25.4134 C.ar    1  UNL1        0.0114
     35 C          -4.8920    4.8717   25.4882 C.ar    1  UNL1        0.0009
@<TRIPOS>BOND
     1    17    18    1
     2    18    19    1
     3    18    15    1
     4    15     3    1
     5     3     4   ar
     6     4     5   ar
     7     5     6   ar
     8     6     7   ar
     9     7     8   ar
    10     8     1    1
    11     1    20    1
    12    20    21    2
    13    20    22    2
    14    20    23    1
    15    23    24   ar
    16    24    25   ar
    17    25    26   ar
    18    26    29    1
    19    29    30   ar
    20    30    31   ar
    21    31    32   ar
    22    32    33    1
    23    32    34   ar
    24    34    35   ar
    25    26    27   ar
    26    27    28   ar
    27     6     9    1
    28     9    10    1
    29    10    11    1
    30    11    12    1
    31    11    13    1
    32    13    14    1
    33     8     3   ar
    34    28    23   ar
    35    14     5    1
    36    35    29   ar
    37    15    16    1
    38     1     2    1
