@<TRIPOS>MOLECULE
*****
 28 30 0 0 0
SMALL
GASTEIGER

@<TRIPOS>ATOM
      1 C          -7.4129  -19.2006   20.1961 C.2     1  UNL1        0.2252
      2 O          -7.4518  -17.8487   20.8445 O.2     1  UNL1       -0.2750
      3 N          -8.6407  -19.7494   19.5316 N.am    1  UNL1       -0.3004
      4 H          -8.6152  -20.6367   19.1060 H       1  UNL1        0.1497
      5 C          -6.1462  -20.0040   20.2120 C.3     1  UNL1        0.1154
      6 C          -6.1925  -20.4106   22.1772 C.3     1  UNL1        0.0335
      7 C          -5.1395  -19.7952   21.3041 C.3     1  UNL1        0.1377
      8 C          -4.2969  -19.2235   20.2026 C.3     1  UNL1        0.0613
      9 C          -2.9894  -18.7900   20.7965 C.3     1  UNL1        0.1290
     10 C          -1.7373  -18.4070   21.5284 C.3     1  UNL1        0.0305
     11 C          -0.5958  -17.7799   20.7844 C.3     1  UNL1        0.0025
     12 C          -0.7063  -17.5357   19.3086 C.3     1  UNL1        0.0002
     13 C          -1.9583  -17.9187   18.5767 C.3     1  UNL1        0.0025
     14 C          -3.0999  -18.5459   19.3207 C.3     1  UNL1        0.0305
     15 O          -3.0239  -19.0938   22.2651 O.3     1  UNL1       -0.2256
     16 O          -4.3528  -19.7151   22.5788 O.3     1  UNL1       -0.2251
     17 C          -9.9074  -18.9460   19.5157 C.3     1  UNL1        0.1163
     18 C         -10.6778  -18.7352   20.7854 C.ar    1  UNL1       -0.0024
     19 C         -10.6098  -19.7562   21.8822 C.ar    1  UNL1        0.0005
     20 C         -11.3802  -19.5455   23.1518 C.ar    1  UNL1        0.0369
     21 C         -12.2186  -18.3137   23.3247 C.ar    1  UNL1        0.1468
     22 C         -12.2865  -17.2927   22.2280 C.ar    1  UNL1        0.0369
     23 C         -11.5161  -17.5035   20.9582 C.ar    1  UNL1        0.0005
     24 O         -12.9890  -18.1030   24.5944 O.3     1  UNL1       -0.4045
     25 C         -14.4421  -18.4690   24.6594 C.3     1  UNL1        0.5753
     26 F         -15.8954  -18.8350   24.7246 F       1  UNL1       -0.1328
     27 F         -14.3759  -18.4655   26.1580 F       1  UNL1       -0.1328
     28 F         -14.5084  -18.4724   23.1610 F       1  UNL1       -0.1328
@<TRIPOS>BOND
     1     6     7    1
     2     7     5    1
     3     5     1    1
     4     1     2    2
     5     1     3   am
     6     3    17    1
     7    17    18    1
     8    18    19   ar
     9    19    20   ar
    10    20    21   ar
    11    21    24    1
    12    24    25    1
    13    25    26    1
    14    25    27    1
    15    25    28    1
    16    21    22   ar
    17    22    23   ar
    18     7     8    1
    19     8     9    1
    20     9    10    1
    21    10    11    1
    22    11    12    1
    23    12    13    1
    24    13    14    1
    25     9    15    1
    26    15    16    1
    27    16     7    1
    28    23    18   ar
    29    14     9    1
    30     3     4    1
@<TRIPOS>MOLECULE
*****
 28 30 0 0 0
SMALL
GASTEIGER

@<TRIPOS>ATOM
      1 C          -9.2818  -18.8117   20.8877 C.2     1  UNL1        0.2252
      2 O          -9.5402  -18.6698   19.4170 O.2     1  UNL1       -0.2750
      3 N          -7.9891  -19.4014   21.3686 N.am    1  UNL1       -0.3004
      4 H          -7.8195  -19.4946   22.3339 H       1  UNL1        0.1497
      5 C         -10.3162  -18.3640   21.8776 C.3     1  UNL1        0.1154
      6 C         -10.9586  -20.0899   22.6765 C.3     1  UNL1        0.0335
      7 C         -10.2888  -18.8918   23.2813 C.3     1  UNL1        0.1377
      8 C          -9.6246  -17.5834   23.5927 C.3     1  UNL1        0.0613
      9 C          -9.3267  -17.5530   25.0626 C.3     1  UNL1        0.1290
     10 C          -9.0934  -17.6655   26.5400 C.3     1  UNL1        0.0305
     11 C          -8.4316  -16.5427   27.2824 C.3     1  UNL1        0.0025
     12 C          -8.0032  -15.3072   26.5474 C.3     1  UNL1        0.0002
     13 C          -8.2366  -15.1947   25.0700 C.3     1  UNL1        0.0025
     14 C          -8.8983  -16.3176   24.3276 C.3     1  UNL1        0.0305
     15 O          -9.8068  -18.8426   25.6596 O.3     1  UNL1       -0.2256
     16 O         -10.4014  -19.6701   24.5587 O.3     1  UNL1       -0.2251
     17 C          -6.9548  -19.8490   20.3788 C.3     1  UNL1        0.1163
     18 C          -5.5071  -19.5337   20.6124 C.ar    1  UNL1       -0.0024
     19 C          -4.6217  -19.1743   19.4561 C.ar    1  UNL1        0.0005
     20 C          -3.1740  -18.8590   19.6897 C.ar    1  UNL1        0.0369
     21 C          -2.6116  -18.9031   21.0796 C.ar    1  UNL1        0.1468
     22 C          -3.4969  -19.2625   22.2358 C.ar    1  UNL1        0.0369
     23 C          -4.9447  -19.5779   22.0022 C.ar    1  UNL1        0.0005
     24 O          -1.1638  -18.5877   21.3131 O.3     1  UNL1       -0.4045
     25 C          -0.4966  -17.5000   20.5249 C.3     1  UNL1        0.5753
     26 F           0.1706  -16.4120   19.7366 F       1  UNL1       -0.1328
     27 F          -1.3087  -16.4722   21.2558 F       1  UNL1       -0.1328
     28 F           0.3155  -18.5276   19.7940 F       1  UNL1       -0.1328
@<TRIPOS>BOND
     1     6     7    1
     2     7     5    1
     3     5     1    1
     4     1     2    2
     5     1     3   am
     6     3    17    1
     7    17    18    1
     8    18    19   ar
     9    19    20   ar
    10    20    21   ar
    11    21    24    1
    12    24    25    1
    13    25    26    1
    14    25    27    1
    15    25    28    1
    16    21    22   ar
    17    22    23   ar
    18     7     8    1
    19     8     9    1
    20     9    10    1
    21    10    11    1
    22    11    12    1
    23    12    13    1
    24    13    14    1
    25     9    15    1
    26    15    16    1
    27    16     7    1
    28    23    18   ar
    29    14     9    1
    30     3     4    1
@<TRIPOS>MOLECULE
*****
 28 30 0 0 0
SMALL
GASTEIGER

@<TRIPOS>ATOM
      1 C          -8.2227  -18.5553   21.3780 C.2     1  UNL1        0.2252
      2 O          -7.9501  -18.7717   19.9190 O.2     1  UNL1       -0.2750
      3 N          -7.5320  -19.4039   22.4041 N.am    1  UNL1       -0.3004
      4 H          -7.7110  -19.2618   23.3617 H       1  UNL1        0.1497
      5 C          -9.1862  -17.4901   21.8110 C.3     1  UNL1        0.1154
      6 C         -10.8224  -17.9474   22.8803 C.3     1  UNL1        0.0335
      7 C          -9.5144  -17.3220   23.2649 C.3     1  UNL1        0.1377
      8 C          -8.1378  -16.7317   23.3456 C.3     1  UNL1        0.0613
      9 C          -7.8886  -16.3295   24.7691 C.3     1  UNL1        0.1290
     10 C          -7.7836  -15.9807   26.2241 C.3     1  UNL1        0.0305
     11 C          -6.5317  -15.3479   26.7553 C.3     1  UNL1        0.0025
     12 C          -5.3846  -15.0640   25.8313 C.3     1  UNL1        0.0002
     13 C          -5.4896  -15.4127   24.3762 C.3     1  UNL1        0.0025
     14 C          -6.7415  -16.0455   23.8451 C.3     1  UNL1        0.0305
     15 O          -9.1112  -16.6712   25.5681 O.3     1  UNL1       -0.2256
     16 O         -10.1161  -17.2846   24.6385 O.3     1  UNL1       -0.2251
     17 C          -6.5686  -20.4690   21.9710 C.3     1  UNL1        0.1163
     18 C          -5.1931  -20.0921   21.5066 C.ar    1  UNL1       -0.0024
     19 C          -4.2454  -19.4075   22.4465 C.ar    1  UNL1        0.0005
     20 C          -2.8698  -19.0307   21.9820 C.ar    1  UNL1        0.0369
     21 C          -2.4419  -19.3384   20.5777 C.ar    1  UNL1        0.1468
     22 C          -3.3895  -20.0229   19.6378 C.ar    1  UNL1        0.0369
     23 C          -4.7651  -20.3998   20.1022 C.ar    1  UNL1        0.0005
     24 O          -1.0662  -18.9615   20.1132 O.3     1  UNL1       -0.4045
     25 C          -0.6444  -17.5221   20.1085 C.3     1  UNL1        0.5753
     26 F          -0.2227  -16.0826   20.1038 F       1  UNL1       -0.1328
     27 F          -2.0368  -17.1153   19.7265 F       1  UNL1       -0.1328
     28 F           0.7478  -17.9287   20.4905 F       1  UNL1       -0.1328
@<TRIPOS>BOND
     1     6     7    1
     2     7     5    1
     3     5     1    1
     4     1     2    2
     5     1     3   am
     6     3    17    1
     7    17    18    1
     8    18    19   ar
     9    19    20   ar
    10    20    21   ar
    11    21    24    1
    12    24    25    1
    13    25    26    1
    14    25    27    1
    15    25    28    1
    16    21    22   ar
    17    22    23   ar
    18     7     8    1
    19     8     9    1
    20     9    10    1
    21    10    11    1
    22    11    12    1
    23    12    13    1
    24    13    14    1
    25     9    15    1
    26    15    16    1
    27    16     7    1
    28    23    18   ar
    29    14     9    1
    30     3     4    1
@<TRIPOS>MOLECULE
*****
 28 30 0 0 0
SMALL
GASTEIGER

@<TRIPOS>ATOM
      1 C          -6.9766  -18.9329   21.5237 C.2     1  UNL1        0.2252
      2 O          -7.6750  -18.7072   20.2156 O.2     1  UNL1       -0.2750
      3 N          -7.2960  -18.0642   22.7042 N.am    1  UNL1       -0.3004
      4 H          -6.8376  -18.2124   23.5628 H       1  UNL1        0.1497
      5 C          -5.9588  -20.0275   21.6515 C.3     1  UNL1        0.1154
      6 C          -5.7525  -21.3537   20.1588 C.3     1  UNL1        0.0335
      7 C          -4.9042  -20.1975   20.5986 C.3     1  UNL1        0.1377
      8 C          -4.2763  -19.0057   21.2585 C.3     1  UNL1        0.0613
      9 C          -3.0109  -18.6808   20.5215 C.3     1  UNL1        0.1290
     10 C          -1.7785  -18.4777   19.6909 C.3     1  UNL1        0.0305
     11 C          -0.8333  -17.3584   20.0128 C.3     1  UNL1        0.0025
     12 C          -1.1205  -16.4422   21.1652 C.3     1  UNL1        0.0002
     13 C          -2.3529  -16.6453   21.9958 C.3     1  UNL1        0.0025
     14 C          -3.2981  -17.7646   21.6739 C.3     1  UNL1        0.0305
     15 O          -2.8567  -19.6718   19.4060 O.3     1  UNL1       -0.2256
     16 O          -4.0268  -20.6092   19.4537 O.3     1  UNL1       -0.2251
     17 C          -8.3137  -16.9697   22.5763 C.3     1  UNL1        0.1163
     18 C          -9.7654  -17.2642   22.8126 C.ar    1  UNL1       -0.0024
     19 C         -10.1763  -18.5742   23.4169 C.ar    1  UNL1        0.0005
     20 C         -11.6280  -18.8686   23.6532 C.ar    1  UNL1        0.0369
     21 C         -12.6688  -17.8531   23.2852 C.ar    1  UNL1        0.1468
     22 C         -12.2579  -16.5432   22.6810 C.ar    1  UNL1        0.0369
     23 C         -10.8062  -16.2487   22.4447 C.ar    1  UNL1        0.0005
     24 O         -14.1205  -18.1476   23.5216 O.3     1  UNL1       -0.4045
     25 C         -14.5957  -18.5243   24.8935 C.3     1  UNL1        0.5753
     26 F         -15.0707  -18.9010   26.2656 F       1  UNL1       -0.1328
     27 F         -13.2580  -18.1496   25.4596 F       1  UNL1       -0.1328
     28 F         -15.9332  -18.8990   24.3275 F       1  UNL1       -0.1328
@<TRIPOS>BOND
     1     6     7    1
     2     7     5    1
     3     5     1    1
     4     1     2    2
     5     1     3   am
     6     3    17    1
     7    17    18    1
     8    18    19   ar
     9    19    20   ar
    10    20    21   ar
    11    21    24    1
    12    24    25    1
    13    25    26    1
    14    25    27    1
    15    25    28    1
    16    21    22   ar
    17    22    23   ar
    18     7     8    1
    19     8     9    1
    20     9    10    1
    21    10    11    1
    22    11    12    1
    23    12    13    1
    24    13    14    1
    25     9    15    1
    26    15    16    1
    27    16     7    1
    28    23    18   ar
    29    14     9    1
    30     3     4    1
@<TRIPOS>MOLECULE
*****
 28 30 0 0 0
SMALL
GASTEIGER

@<TRIPOS>ATOM
      1 C          -7.6786  -15.5429   24.4503 C.2     1  UNL1        0.2252
      2 O          -7.6763  -14.8327   23.1292 O.2     1  UNL1       -0.2750
      3 N          -6.3825  -15.8374   25.1459 N.am    1  UNL1       -0.3004
      4 H          -6.3841  -16.3036   26.0130 H       1  UNL1        0.1497
      5 C          -8.9769  -15.9588   25.0760 C.3     1  UNL1        0.1154
      6 C          -8.9402  -17.2471   26.6151 C.3     1  UNL1        0.0335
      7 C          -9.3293  -17.4133   25.1760 C.3     1  UNL1        0.1377
      8 C          -9.6446  -17.2756   23.7160 C.3     1  UNL1        0.0613
      9 C         -10.1106  -18.6103   23.2144 C.3     1  UNL1        0.1290
     10 C         -10.5552  -19.9981   22.8591 C.3     1  UNL1        0.0305
     11 C         -10.9748  -20.3145   21.4542 C.3     1  UNL1        0.0025
     12 C         -10.9500  -19.2431   20.4047 C.3     1  UNL1        0.0002
     13 C         -10.5054  -17.8553   20.7600 C.3     1  UNL1        0.0025
     14 C         -10.0858  -17.5389   22.1649 C.3     1  UNL1        0.0305
     15 O         -10.0832  -19.5730   24.3645 O.3     1  UNL1       -0.2256
     16 O          -9.6003  -18.8332   25.5768 O.3     1  UNL1       -0.2251
     17 C          -5.0843  -15.4216   24.5201 C.3     1  UNL1        0.1163
     18 C          -4.3952  -16.3317   23.5471 C.ar    1  UNL1       -0.0024
     19 C          -4.8579  -17.7498   23.3897 C.ar    1  UNL1        0.0005
     20 C          -4.1688  -18.6599   22.4166 C.ar    1  UNL1        0.0369
     21 C          -3.0171  -18.1519   21.6009 C.ar    1  UNL1        0.1468
     22 C          -2.5544  -16.7338   21.7583 C.ar    1  UNL1        0.0369
     23 C          -3.2435  -15.8236   22.7314 C.ar    1  UNL1        0.0005
     24 O          -2.3280  -19.0621   20.6278 O.3     1  UNL1       -0.4045
     25 C          -1.9223  -18.5482   19.2784 C.3     1  UNL1        0.5753
     26 F          -1.5164  -18.0342   17.9289 F       1  UNL1       -0.1328
     27 F          -0.4782  -18.6806   19.6622 F       1  UNL1       -0.1328
     28 F          -3.3662  -18.4158   18.8946 F       1  UNL1       -0.1328
@<TRIPOS>BOND
     1     6     7    1
     2     7     5    1
     3     5     1    1
     4     1     2    2
     5     1     3   am
     6     3    17    1
     7    17    18    1
     8    18    19   ar
     9    19    20   ar
    10    20    21   ar
    11    21    24    1
    12    24    25    1
    13    25    26    1
    14    25    27    1
    15    25    28    1
    16    21    22   ar
    17    22    23   ar
    18     7     8    1
    19     8     9    1
    20     9    10    1
    21    10    11    1
    22    11    12    1
    23    12    13    1
    24    13    14    1
    25     9    15    1
    26    15    16    1
    27    16     7    1
    28    23    18   ar
    29    14     9    1
    30     3     4    1
@<TRIPOS>MOLECULE
*****
 28 30 0 0 0
SMALL
GASTEIGER

@<TRIPOS>ATOM
      1 C          -3.9362  -15.9361   23.1471 C.2     1  UNL1        0.2252
      2 O          -4.2383  -14.6624   22.4149 O.2     1  UNL1       -0.2750
      3 N          -4.8862  -16.4449   24.1905 N.am    1  UNL1       -0.3004
      4 H          -4.6879  -17.2809   24.6711 H       1  UNL1        0.1497
      5 C          -2.6839  -16.7011   22.8360 C.3     1  UNL1        0.1154
      6 C          -1.3880  -16.4597   21.3220 C.3     1  UNL1        0.0335
      7 C          -2.5404  -17.4000   21.5166 C.3     1  UNL1        0.1377
      8 C          -3.7227  -18.1942   21.9870 C.3     1  UNL1        0.0613
      9 C          -4.0691  -19.1875   20.9176 C.3     1  UNL1        0.1290
     10 C          -4.2953  -20.1217   19.7660 C.3     1  UNL1        0.0305
     11 C          -5.4136  -21.1200   19.8187 C.3     1  UNL1        0.0025
     12 C          -6.3057  -21.1840   21.0229 C.3     1  UNL1        0.0002
     13 C          -6.0795  -20.2498   22.1744 C.3     1  UNL1        0.0025
     14 C          -4.9612  -19.2516   22.1218 C.3     1  UNL1        0.0305
     15 O          -3.1007  -19.0071   19.7863 O.3     1  UNL1       -0.2256
     16 O          -2.1559  -17.9024   20.1565 O.3     1  UNL1       -0.2251
     17 C          -6.1384  -15.6799   24.5016 C.3     1  UNL1        0.1163
     18 C          -7.4494  -16.1187   23.9198 C.ar    1  UNL1       -0.0024
     19 C          -8.7189  -15.9133   24.6919 C.ar    1  UNL1        0.0005
     20 C         -10.0300  -16.3522   24.1101 C.ar    1  UNL1        0.0369
     21 C         -10.0716  -16.9965   22.7562 C.ar    1  UNL1        0.1468
     22 C          -8.8021  -17.2019   21.9841 C.ar    1  UNL1        0.0369
     23 C          -7.4910  -16.7630   22.5658 C.ar    1  UNL1        0.0005
     24 O         -11.3827  -17.4353   22.1744 O.3     1  UNL1       -0.4045
     25 C         -12.6215  -17.4184   23.0199 C.3     1  UNL1        0.5753
     26 F         -13.8604  -17.4016   23.8655 F       1  UNL1       -0.1328
     27 F         -12.3501  -18.8309   23.4458 F       1  UNL1       -0.1328
     28 F         -12.8930  -16.0060   22.5941 F       1  UNL1       -0.1328
@<TRIPOS>BOND
     1     6     7    1
     2     7     5    1
     3     5     1    1
     4     1     2    2
     5     1     3   am
     6     3    17    1
     7    17    18    1
     8    18    19   ar
     9    19    20   ar
    10    20    21   ar
    11    21    24    1
    12    24    25    1
    13    25    26    1
    14    25    27    1
    15    25    28    1
    16    21    22   ar
    17    22    23   ar
    18     7     8    1
    19     8     9    1
    20     9    10    1
    21    10    11    1
    22    11    12    1
    23    12    13    1
    24    13    14    1
    25     9    15    1
    26    15    16    1
    27    16     7    1
    28    23    18   ar
    29    14     9    1
    30     3     4    1
@<TRIPOS>MOLECULE
*****
 28 30 0 0 0
SMALL
GASTEIGER

@<TRIPOS>ATOM
      1 C          -8.0070  -15.9223   23.2556 C.2     1  UNL1        0.2252
      2 O          -7.7191  -15.0166   22.0951 O.2     1  UNL1       -0.2750
      3 N          -6.9246  -16.2429   24.2434 N.am    1  UNL1       -0.3004
      4 H          -7.1136  -16.8373   25.0051 H       1  UNL1        0.1497
      5 C          -9.3774  -16.5074   23.4285 C.3     1  UNL1        0.1154
      6 C         -11.2057  -16.0795   22.7186 C.3     1  UNL1        0.0335
      7 C         -10.1339  -17.0108   22.2351 C.3     1  UNL1        0.1377
      8 C          -8.9039  -17.8369   22.0011 C.3     1  UNL1        0.0613
      9 C          -9.1242  -18.6563   20.7641 C.3     1  UNL1        0.1290
     10 C          -9.4860  -19.4081   19.5176 C.3     1  UNL1        0.0305
     11 C          -8.5113  -20.3770   18.9166 C.3     1  UNL1        0.0025
     12 C          -7.1748  -20.5940   19.5622 C.3     1  UNL1        0.0002
     13 C          -6.8130  -19.8422   20.8086 C.3     1  UNL1        0.0025
     14 C          -7.7877  -18.8733   21.4096 C.3     1  UNL1        0.0305
     15 O         -10.4903  -18.3366   20.2336 O.3     1  UNL1       -0.2256
     16 O         -11.1144  -17.3196   21.1427 O.3     1  UNL1       -0.2251
     17 C          -5.5543  -15.6578   24.0705 C.3     1  UNL1        0.1163
     18 C          -4.5011  -16.4221   23.3244 C.ar    1  UNL1       -0.0024
     19 C          -3.3568  -15.6930   22.6849 C.ar    1  UNL1        0.0005
     20 C          -2.3036  -16.4573   21.9388 C.ar    1  UNL1        0.0369
     21 C          -2.3948  -17.9507   21.8322 C.ar    1  UNL1        0.1468
     22 C          -3.5390  -18.6798   22.4717 C.ar    1  UNL1        0.0369
     23 C          -4.5923  -17.9155   23.2178 C.ar    1  UNL1        0.0005
     24 O          -1.3416  -18.7150   21.0861 O.3     1  UNL1       -0.4045
     25 C          -1.0174  -18.3544   19.6666 C.3     1  UNL1        0.5753
     26 F          -0.6933  -17.9939   18.2471 F       1  UNL1       -0.1328
     27 F          -2.3807  -18.8115   19.2392 F       1  UNL1       -0.1328
     28 F           0.3458  -17.8974   20.0940 F       1  UNL1       -0.1328
@<TRIPOS>BOND
     1     6     7    1
     2     7     5    1
     3     5     1    1
     4     1     2    2
     5     1     3   am
     6     3    17    1
     7    17    18    1
     8    18    19   ar
     9    19    20   ar
    10    20    21   ar
    11    21    24    1
    12    24    25    1
    13    25    26    1
    14    25    27    1
    15    25    28    1
    16    21    22   ar
    17    22    23   ar
    18     7     8    1
    19     8     9    1
    20     9    10    1
    21    10    11    1
    22    11    12    1
    23    12    13    1
    24    13    14    1
    25     9    15    1
    26    15    16    1
    27    16     7    1
    28    23    18   ar
    29    14     9    1
    30     3     4    1
@<TRIPOS>MOLECULE
*****
 28 30 0 0 0
SMALL
GASTEIGER

@<TRIPOS>ATOM
      1 C          -9.6926  -19.2052   19.4081 C.2     1  UNL1        0.2252
      2 O          -9.8554  -20.4579   18.5994 O.2     1  UNL1       -0.2750
      3 N          -8.3698  -18.8870   20.0399 N.am    1  UNL1       -0.3004
      4 H          -8.2629  -18.0647   20.5707 H       1  UNL1        0.1497
      5 C         -10.8525  -18.2706   19.5852 C.3     1  UNL1        0.1154
      6 C         -11.2223  -16.3045   19.7506 C.3     1  UNL1        0.0335
      7 C         -10.9036  -17.3554   20.7724 C.3     1  UNL1        0.1377
      8 C         -10.5742  -18.5975   21.5460 C.3     1  UNL1        0.0613
      9 C         -10.4883  -18.2303   22.9979 C.3     1  UNL1        0.1290
     10 C         -10.4363  -17.7161   24.4060 C.3     1  UNL1        0.0305
     11 C         -10.1282  -18.6534   25.5358 C.3     1  UNL1        0.0025
     12 C          -9.8721  -20.1049   25.2575 C.3     1  UNL1        0.0002
     13 C          -9.9242  -20.6192   23.8494 C.3     1  UNL1        0.0025
     14 C         -10.2323  -19.6818   22.7196 C.3     1  UNL1        0.0305
     15 O         -10.7647  -16.7612   23.1215 O.3     1  UNL1       -0.2256
     16 O         -11.0214  -16.2204   21.7461 O.3     1  UNL1       -0.2251
     17 C          -7.2099  -19.8215   19.8628 C.3     1  UNL1        0.1163
     18 C          -5.8416  -19.4142   20.3229 C.ar    1  UNL1       -0.0024
     19 C          -5.5241  -19.3738   21.7884 C.ar    1  UNL1        0.0005
     20 C          -4.1558  -18.9665   22.2484 C.ar    1  UNL1        0.0369
     21 C          -3.1049  -18.5996   21.2430 C.ar    1  UNL1        0.1468
     22 C          -3.4222  -18.6400   19.7776 C.ar    1  UNL1        0.0369
     23 C          -4.7906  -19.0473   19.3175 C.ar    1  UNL1        0.0005
     24 O          -1.7364  -18.1922   21.7032 O.3     1  UNL1       -0.4045
     25 C          -0.9117  -17.2580   20.8684 C.3     1  UNL1        0.5753
     26 F          -0.0870  -16.3238   20.0335 F       1  UNL1       -0.1328
     27 F          -0.2779  -18.4313   20.1816 F       1  UNL1       -0.1328
     28 F          -1.5456  -16.0848   21.5551 F       1  UNL1       -0.1328
@<TRIPOS>BOND
     1     6     7    1
     2     7     5    1
     3     5     1    1
     4     1     2    2
     5     1     3   am
     6     3    17    1
     7    17    18    1
     8    18    19   ar
     9    19    20   ar
    10    20    21   ar
    11    21    24    1
    12    24    25    1
    13    25    26    1
    14    25    27    1
    15    25    28    1
    16    21    22   ar
    17    22    23   ar
    18     7     8    1
    19     8     9    1
    20     9    10    1
    21    10    11    1
    22    11    12    1
    23    12    13    1
    24    13    14    1
    25     9    15    1
    26    15    16    1
    27    16     7    1
    28    23    18   ar
    29    14     9    1
    30     3     4    1
@<TRIPOS>MOLECULE
*****
 28 30 0 0 0
SMALL
GASTEIGER

@<TRIPOS>ATOM
      1 C          -6.2711  -18.2161   22.6203 C.2     1  UNL1        0.2252
      2 O          -6.3363  -19.6637   22.2329 O.2     1  UNL1       -0.2750
      3 N          -7.3165  -17.2599   22.1273 N.am    1  UNL1       -0.3004
      4 H          -7.2737  -16.3098   22.3816 H       1  UNL1        0.1497
      5 C          -5.1606  -17.7246   23.5008 C.3     1  UNL1        0.1154
      6 C          -5.1709  -15.7514   23.8697 C.3     1  UNL1        0.0335
      7 C          -4.2700  -16.6116   23.0339 C.3     1  UNL1        0.1377
      8 C          -3.5554  -17.7045   22.2957 C.3     1  UNL1        0.0613
      9 C          -2.4114  -17.0871   21.5472 C.3     1  UNL1        0.1290
     10 C          -1.3134  -16.3320   20.8586 C.3     1  UNL1        0.0305
     11 C          -0.3338  -17.0610   19.9875 C.3     1  UNL1        0.0025
     12 C          -0.4522  -18.5452   19.8051 C.3     1  UNL1        0.0002
     13 C          -1.5501  -19.3003   20.4937 C.3     1  UNL1        0.0025
     14 C          -2.5297  -18.5712   21.3648 C.3     1  UNL1        0.0305
     15 O          -2.4190  -15.6126   21.8228 O.3     1  UNL1       -0.2256
     16 O          -3.5678  -15.3187   22.7416 O.3     1  UNL1       -0.2251
     17 C          -8.4270  -17.7514   21.2468 C.3     1  UNL1        0.1163
     18 C          -9.8233  -17.8507   21.7857 C.ar    1  UNL1       -0.0024
     19 C         -10.3242  -19.1534   22.3354 C.ar    1  UNL1        0.0005
     20 C         -11.7205  -19.2526   22.8743 C.ar    1  UNL1        0.0369
     21 C         -12.6159  -18.0493   22.8635 C.ar    1  UNL1        0.1468
     22 C         -12.1150  -16.7467   22.3138 C.ar    1  UNL1        0.0369
     23 C         -10.7187  -16.6473   21.7749 C.ar    1  UNL1        0.0005
     24 O         -14.0123  -18.1486   23.4024 O.3     1  UNL1       -0.4045
     25 C         -14.2363  -18.4697   24.8503 C.3     1  UNL1        0.5753
     26 F         -14.4603  -18.7908   26.2983 F       1  UNL1       -0.1328
     27 F         -15.6956  -18.6838   24.5771 F       1  UNL1       -0.1328
     28 F         -12.7771  -18.2556   25.1236 F       1  UNL1       -0.1328
@<TRIPOS>BOND
     1     6     7    1
     2     7     5    1
     3     5     1    1
     4     1     2    2
     5     1     3   am
     6     3    17    1
     7    17    18    1
     8    18    19   ar
     9    19    20   ar
    10    20    21   ar
    11    21    24    1
    12    24    25    1
    13    25    26    1
    14    25    27    1
    15    25    28    1
    16    21    22   ar
    17    22    23   ar
    18     7     8    1
    19     8     9    1
    20     9    10    1
    21    10    11    1
    22    11    12    1
    23    12    13    1
    24    13    14    1
    25     9    15    1
    26    15    16    1
    27    16     7    1
    28    23    18   ar
    29    14     9    1
    30     3     4    1
