@<TRIPOS>MOLECULE
*****
 29 32 0 0 0
SMALL
GASTEIGER

@<TRIPOS>ATOM
      1 C         -13.6677   -4.9838   18.4955 C.ar    1  UNL1        0.0712
      2 C         -14.1192   -3.5555   18.4171 C.ar    1  UNL1        0.0073
      3 C         -13.1154   -2.4452   18.5146 C.ar    1  UNL1        0.0422
      4 C         -11.6601   -2.7631   18.6904 C.ar    1  UNL1        0.0028
      5 C         -11.2085   -4.1915   18.7688 C.ar    1  UNL1        0.0177
      6 C          -9.7532   -4.5094   18.9446 C.ar    1  UNL1        0.0031
      7 C          -9.3018   -5.9377   19.0229 C.ar    1  UNL1        0.0207
      8 C         -10.3056   -7.0480   18.9255 C.ar    1  UNL1        0.0988
      9 N         -11.7609   -6.7301   18.7496 N.ar    1  UNL1       -0.2437
     10 C         -12.2124   -5.3018   18.6713 C.ar    1  UNL1        0.0856
     11 N         -14.9894   -6.9259   19.6050 N.am    1  UNL1       -0.2606
     12 C         -14.6716   -6.0941   18.3980 C.2     1  UNL1        0.2524
     13 O         -15.3576   -6.3725   17.0934 O.2     1  UNL1       -0.2697
     14 H         -14.5392   -6.7432   20.4612 H       1  UNL1        0.1571
     15 C         -17.1648  -11.6765   18.8431 C.3     1  UNL1        0.0527
     16 C         -16.9932  -10.2199   19.1573 C.ar    1  UNL1        0.0678
     17 C         -18.0828   -9.2699   19.5577 C.ar    1  UNL1        0.0528
     18 S         -17.4648   -7.9204   19.7741 S.2     1  UNL1       -0.0512
     19 C         -15.9932   -8.0362   19.5075 C.ar    1  UNL1        0.1654
     20 N         -15.7018   -9.4574   19.1263 N.ar    1  UNL1       -0.2283
     21 C         -13.5669   -1.0168   18.4363 C.3     1  UNL1        0.3042
     22 F         -14.9882   -1.4740   18.2920 F       1  UNL1       -0.1947
     23 F         -12.1456   -0.5597   18.5806 F       1  UNL1       -0.1947
     24 C         -14.0183    0.4114   18.3579 C.ar    1  UNL1        0.0801
     25 C         -15.2494    0.8503   19.0940 C.ar    1  UNL1        0.1035
     26 N         -15.7009    2.2786   19.0157 N.ar    1  UNL1       -0.2226
     27 C         -14.9213    3.2680   18.2013 C.ar    1  UNL1        0.1989
     28 N         -13.6902    2.8291   17.4651 N.ar    1  UNL1       -0.2226
     29 C         -13.2388    1.4008   17.5435 C.ar    1  UNL1        0.1035
@<TRIPOS>BOND
     1    15    16    1
     2    16    17   ar
     3    17    18   ar
     4    18    19   ar
     5    19    11    1
     6    11    12   am
     7    12    13    2
     8    12     1    1
     9     1     2   ar
    10     2     3   ar
    11     3    21    1
    12    21    22    1
    13    21    23    1
    14    21    24    1
    15    24    25   ar
    16    25    26   ar
    17    26    27   ar
    18    27    28   ar
    19    28    29   ar
    20     3     4   ar
    21     4     5   ar
    22     5     6   ar
    23     6     7   ar
    24     7     8   ar
    25     8     9   ar
    26     9    10   ar
    27    19    20   ar
    28    20    16   ar
    29    10     1   ar
    30    29    24   ar
    31    10     5   ar
    32    11    14    1
@<TRIPOS>MOLECULE
*****
 29 32 0 0 0
SMALL
GASTEIGER

@<TRIPOS>ATOM
      1 C          -7.4597  -17.0925   23.8718 C.ar    1  UNL1        0.0712
      2 C          -6.2834  -17.4167   22.9994 C.ar    1  UNL1        0.0073
      3 C          -4.9164  -16.9223   23.3694 C.ar    1  UNL1        0.0422
      4 C          -4.7257  -16.1039   24.6118 C.ar    1  UNL1        0.0028
      5 C          -5.9021  -15.7797   25.4843 C.ar    1  UNL1        0.0177
      6 C          -5.7114  -14.9613   26.7268 C.ar    1  UNL1        0.0031
      7 C          -6.8877  -14.6371   27.5992 C.ar    1  UNL1        0.0207
      8 C          -8.2547  -15.1314   27.2291 C.ar    1  UNL1        0.0988
      9 N          -8.4454  -15.9499   25.9867 N.ar    1  UNL1       -0.2437
     10 C          -7.2691  -16.2740   25.1143 C.ar    1  UNL1        0.0856
     11 N          -9.9936  -16.6443   23.5131 N.am    1  UNL1       -0.2606
     12 C          -8.8268  -17.5868   23.5017 C.2     1  UNL1        0.2524
     13 O          -9.0269  -19.0237   23.1203 O.2     1  UNL1       -0.2697
     14 H          -9.8622  -15.7013   23.7635 H       1  UNL1        0.1571
     15 C         -14.9199  -18.5143   23.8535 C.3     1  UNL1        0.0527
     16 C         -13.6250  -17.9982   23.2995 C.ar    1  UNL1        0.0678
     17 C         -13.3035  -17.8004   21.8478 C.ar    1  UNL1        0.0528
     18 S         -11.9041  -17.2692   21.7511 S.2     1  UNL1       -0.0512
     19 C         -11.3606  -17.1386   23.1431 C.ar    1  UNL1        0.1654
     20 N         -12.4242  -17.5892   24.1000 N.ar    1  UNL1       -0.2283
     21 C          -3.7400  -17.2465   22.4969 C.3     1  UNL1        0.3042
     22 F          -4.2807  -18.6290   22.2816 F       1  UNL1       -0.1947
     23 F          -3.1994  -15.8641   22.7122 F       1  UNL1       -0.1947
     24 C          -2.5637  -17.5707   21.6245 C.ar    1  UNL1        0.0801
     25 C          -1.6963  -16.4675   21.0948 C.ar    1  UNL1        0.1035
     26 N          -0.5199  -16.7916   20.2223 N.ar    1  UNL1       -0.2226
     27 C          -0.2110  -18.2189   19.8796 C.ar    1  UNL1        0.1989
     28 N          -1.0785  -19.3221   20.4093 N.ar    1  UNL1       -0.2226
     29 C          -2.2548  -18.9979   21.2817 C.ar    1  UNL1        0.1035
@<TRIPOS>BOND
     1    15    16    1
     2    16    17   ar
     3    17    18   ar
     4    18    19   ar
     5    19    11    1
     6    11    12   am
     7    12    13    2
     8    12     1    1
     9     1     2   ar
    10     2     3   ar
    11     3    21    1
    12    21    22    1
    13    21    23    1
    14    21    24    1
    15    24    25   ar
    16    25    26   ar
    17    26    27   ar
    18    27    28   ar
    19    28    29   ar
    20     3     4   ar
    21     4     5   ar
    22     5     6   ar
    23     6     7   ar
    24     7     8   ar
    25     8     9   ar
    26     9    10   ar
    27    19    20   ar
    28    20    16   ar
    29    10     1   ar
    30    29    24   ar
    31    10     5   ar
    32    11    14    1
@<TRIPOS>MOLECULE
*****
 29 32 0 0 0
SMALL
GASTEIGER

@<TRIPOS>ATOM
      1 C         -13.5558   -4.1930   18.7146 C.ar    1  UNL1        0.0712
      2 C         -14.8283   -4.9863   18.7498 C.ar    1  UNL1        0.0073
      3 C         -14.7771   -6.4825   18.8439 C.ar    1  UNL1        0.0422
      4 C         -13.4533   -7.1854   18.9028 C.ar    1  UNL1        0.0028
      5 C         -12.1807   -6.3921   18.8675 C.ar    1  UNL1        0.0177
      6 C         -10.8569   -7.0949   18.9264 C.ar    1  UNL1        0.0031
      7 C          -9.5843   -6.3017   18.8911 C.ar    1  UNL1        0.0207
      8 C          -9.6356   -4.8055   18.7971 C.ar    1  UNL1        0.0988
      9 N         -10.9594   -4.1026   18.7382 N.ar    1  UNL1       -0.2437
     10 C         -12.2319   -4.8959   18.7735 C.ar    1  UNL1        0.0856
     11 N         -13.0279   -2.0003   17.4250 N.am    1  UNL1       -0.2606
     12 C         -13.6070   -2.6969   18.6205 C.2     1  UNL1        0.2524
     13 O         -14.2375   -1.8973   19.7221 O.2     1  UNL1       -0.2697
     14 H         -12.6142   -2.5251   16.7020 H       1  UNL1        0.1571
     15 C         -14.8090    2.9703   17.3756 C.3     1  UNL1        0.0527
     16 C         -13.8978    1.7806   17.3082 C.ar    1  UNL1        0.0678
     17 C         -12.4183    1.8160   17.0640 C.ar    1  UNL1        0.0528
     18 S         -11.9123    0.4039   17.0781 S.2     1  UNL1       -0.0512
     19 C         -13.0792   -0.5041   17.3309 C.ar    1  UNL1        0.1654
     20 N         -14.3063    0.3467   17.4731 N.ar    1  UNL1       -0.2283
     21 C         -16.0497   -7.2758   18.8792 C.3     1  UNL1        0.3042
     22 F         -15.4284   -8.3120   17.9903 F       1  UNL1       -0.1947
     23 F         -16.6710   -6.2396   19.7680 F       1  UNL1       -0.1947
     24 C         -17.3223   -8.0690   18.9144 C.ar    1  UNL1        0.0801
     25 C         -18.2187   -7.9956   20.1148 C.ar    1  UNL1        0.1035
     26 N         -19.4914   -8.7889   20.1501 N.ar    1  UNL1       -0.2226
     27 C         -19.8675   -9.6555   18.9850 C.ar    1  UNL1        0.1989
     28 N         -18.9710   -9.7289   17.7846 N.ar    1  UNL1       -0.2226
     29 C         -17.6984   -8.9356   17.7493 C.ar    1  UNL1        0.1035
@<TRIPOS>BOND
     1    15    16    1
     2    16    17   ar
     3    17    18   ar
     4    18    19   ar
     5    19    11    1
     6    11    12   am
     7    12    13    2
     8    12     1    1
     9     1     2   ar
    10     2     3   ar
    11     3    21    1
    12    21    22    1
    13    21    23    1
    14    21    24    1
    15    24    25   ar
    16    25    26   ar
    17    26    27   ar
    18    27    28   ar
    19    28    29   ar
    20     3     4   ar
    21     4     5   ar
    22     5     6   ar
    23     6     7   ar
    24     7     8   ar
    25     8     9   ar
    26     9    10   ar
    27    19    20   ar
    28    20    16   ar
    29    10     1   ar
    30    29    24   ar
    31    10     5   ar
    32    11    14    1
@<TRIPOS>MOLECULE
*****
 29 32 0 0 0
SMALL
GASTEIGER

@<TRIPOS>ATOM
      1 C           3.1009   -0.4737   23.4418 C.ar    1  UNL1        0.0712
      2 C           2.1854    0.4689   22.7185 C.ar    1  UNL1        0.0073
      3 C           1.8996    0.2658   21.2601 C.ar    1  UNL1        0.0422
      4 C           2.5293   -0.8800   20.5249 C.ar    1  UNL1        0.0028
      5 C           3.4449   -1.8227   21.2482 C.ar    1  UNL1        0.0177
      6 C           4.0747   -2.9685   20.5130 C.ar    1  UNL1        0.0031
      7 C           4.9902   -3.9112   21.2363 C.ar    1  UNL1        0.0207
      8 C           5.2760   -3.7080   22.6947 C.ar    1  UNL1        0.0988
      9 N           4.6462   -2.5623   23.4299 N.ar    1  UNL1       -0.2437
     10 C           3.7307   -1.6196   22.7066 C.ar    1  UNL1        0.0856
     11 N           3.4497   -1.4510   25.8237 N.am    1  UNL1       -0.2606
     12 C           3.3867   -0.2706   24.9003 C.2     1  UNL1        0.2524
     13 O           3.6094    1.1130   25.4353 O.2     1  UNL1       -0.2697
     14 H           3.3036   -2.3590   25.4725 H       1  UNL1        0.1571
     15 C           2.8155   -0.5401   30.9859 C.3     1  UNL1        0.0527
     16 C           3.4440   -0.8292   29.6550 C.ar    1  UNL1        0.0678
     17 C           4.9065   -1.0413   29.3980 C.ar    1  UNL1        0.0528
     18 S           5.0866   -1.3001   27.9315 S.2     1  UNL1       -0.0512
     19 C           3.7355   -1.2478   27.2821 C.ar    1  UNL1        0.1654
     20 N           2.7203   -0.9568   28.3473 N.ar    1  UNL1       -0.2283
     21 C           0.9840    1.2085   20.5368 C.3     1  UNL1        0.3042
     22 F           1.8193    2.3685   20.9914 F       1  UNL1       -0.1947
     23 F           0.1488    0.0485   20.0823 F       1  UNL1       -0.1947
     24 C           0.0684    2.1512   19.8136 C.ar    1  UNL1        0.0801
     25 C          -1.1149    2.7396   20.5231 C.ar    1  UNL1        0.1035
     26 N          -2.0305    3.6823   19.7999 N.ar    1  UNL1       -0.2226
     27 C          -1.7628    4.0365   18.3671 C.ar    1  UNL1        0.1989
     28 N          -0.5793    3.4481   17.6576 N.ar    1  UNL1       -0.2226
     29 C           0.3362    2.5054   18.3808 C.ar    1  UNL1        0.1035
@<TRIPOS>BOND
     1    15    16    1
     2    16    17   ar
     3    17    18   ar
     4    18    19   ar
     5    19    11    1
     6    11    12   am
     7    12    13    2
     8    12     1    1
     9     1     2   ar
    10     2     3   ar
    11     3    21    1
    12    21    22    1
    13    21    23    1
    14    21    24    1
    15    24    25   ar
    16    25    26   ar
    17    26    27   ar
    18    27    28   ar
    19    28    29   ar
    20     3     4   ar
    21     4     5   ar
    22     5     6   ar
    23     6     7   ar
    24     7     8   ar
    25     8     9   ar
    26     9    10   ar
    27    19    20   ar
    28    20    16   ar
    29    10     1   ar
    30    29    24   ar
    31    10     5   ar
    32    11    14    1
@<TRIPOS>MOLECULE
*****
 29 32 0 0 0
SMALL
GASTEIGER

@<TRIPOS>ATOM
      1 C           3.9354   -1.9448   21.6373 C.ar    1  UNL1        0.0712
      2 C           3.0358   -1.1393   22.5271 C.ar    1  UNL1        0.0073
      3 C           2.2699    0.0219   21.9658 C.ar    1  UNL1        0.0422
      4 C           2.4036    0.3776   20.5148 C.ar    1  UNL1        0.0028
      5 C           3.3033   -0.4279   19.6249 C.ar    1  UNL1        0.0177
      6 C           3.4371   -0.0722   18.1739 C.ar    1  UNL1        0.0031
      7 C           4.3367   -0.8777   17.2841 C.ar    1  UNL1        0.0207
      8 C           5.1026   -2.0389   17.8454 C.ar    1  UNL1        0.0988
      9 N           4.9689   -2.3946   19.2964 N.ar    1  UNL1       -0.2437
     10 C           4.0692   -1.5891   20.1862 C.ar    1  UNL1        0.0856
     11 N           5.8683   -2.8648   23.1096 N.am    1  UNL1       -0.2606
     12 C           4.7013   -3.1060   22.1985 C.2     1  UNL1        0.2524
     13 O           4.3002   -4.5084   21.8487 O.2     1  UNL1       -0.2697
     14 H           6.1315   -1.9443   23.3392 H       1  UNL1        0.1571
     15 C           8.8173   -7.2294   23.4764 C.3     1  UNL1        0.0527
     16 C           7.9897   -6.0322   23.8394 C.ar    1  UNL1        0.0678
     17 C           7.6359   -5.5937   25.2296 C.ar    1  UNL1        0.0528
     18 S           6.7981   -4.3538   25.1254 S.2     1  UNL1       -0.0512
     19 C           6.6342   -4.0260   23.6708 C.ar    1  UNL1        0.1654
     20 N           7.3706   -5.0633   22.8761 N.ar    1  UNL1       -0.2283
     21 C           1.3702    0.8275   22.8557 C.3     1  UNL1        0.3042
     22 F           1.9240    0.1195   24.0565 F       1  UNL1       -0.1947
     23 F           0.8164    1.5354   21.6549 F       1  UNL1       -0.1947
     24 C           0.4706    1.6330   23.7455 C.ar    1  UNL1        0.0801
     25 C           0.2122    1.1854   25.1536 C.ar    1  UNL1        0.1035
     26 N          -0.6875    1.9909   26.0435 N.ar    1  UNL1       -0.2226
     27 C          -1.3288    3.2440   25.5251 C.ar    1  UNL1        0.1989
     28 N          -1.0703    3.6915   24.1169 N.ar    1  UNL1       -0.2226
     29 C          -0.1707    2.8860   23.2271 C.ar    1  UNL1        0.1035
@<TRIPOS>BOND
     1    15    16    1
     2    16    17   ar
     3    17    18   ar
     4    18    19   ar
     5    19    11    1
     6    11    12   am
     7    12    13    2
     8    12     1    1
     9     1     2   ar
    10     2     3   ar
    11     3    21    1
    12    21    22    1
    13    21    23    1
    14    21    24    1
    15    24    25   ar
    16    25    26   ar
    17    26    27   ar
    18    27    28   ar
    19    28    29   ar
    20     3     4   ar
    21     4     5   ar
    22     5     6   ar
    23     6     7   ar
    24     7     8   ar
    25     8     9   ar
    26     9    10   ar
    27    19    20   ar
    28    20    16   ar
    29    10     1   ar
    30    29    24   ar
    31    10     5   ar
    32    11    14    1
@<TRIPOS>MOLECULE
*****
 29 32 0 0 0
SMALL
GASTEIGER

@<TRIPOS>ATOM
      1 C           6.8234   -4.1231   24.5270 C.ar    1  UNL1        0.0712
      2 C           6.5274   -3.6270   25.9113 C.ar    1  UNL1        0.0073
      3 C           7.0982   -4.3395   27.1014 C.ar    1  UNL1        0.0422
      4 C           7.9651   -5.5482   26.9073 C.ar    1  UNL1        0.0028
      5 C           8.2611   -6.0443   25.5229 C.ar    1  UNL1        0.0177
      6 C           9.1279   -7.2530   25.3288 C.ar    1  UNL1        0.0031
      7 C           9.4239   -7.7491   23.9446 C.ar    1  UNL1        0.0207
      8 C           8.8530   -7.0365   22.7544 C.ar    1  UNL1        0.0988
      9 N           7.9862   -5.8279   22.9485 N.ar    1  UNL1       -0.2437
     10 C           7.6902   -5.3318   24.3328 C.ar    1  UNL1        0.0856
     11 N           5.0996   -4.0086   22.5865 N.am    1  UNL1       -0.2606
     12 C           6.2525   -3.4105   23.3369 C.2     1  UNL1        0.2524
     13 O           6.8347   -2.0999   22.8971 O.2     1  UNL1       -0.2697
     14 H           4.7175   -4.8688   22.8752 H       1  UNL1        0.1571
     15 C           2.5038   -0.5203   19.5908 C.3     1  UNL1        0.0527
     16 C           3.3356   -1.6926   20.0194 C.ar    1  UNL1        0.0678
     17 C           3.9650   -2.7064   19.1105 C.ar    1  UNL1        0.0528
     18 S           4.7024   -3.6974   19.9616 S.2     1  UNL1       -0.0512
     19 C           4.5287   -3.2960   21.3964 C.ar    1  UNL1        0.1654
     20 N           3.6840   -2.0570   21.4321 N.ar    1  UNL1       -0.2283
     21 C           6.8022   -3.8433   28.4857 C.3     1  UNL1        0.3042
     22 F           7.4676   -2.5390   28.1605 F       1  UNL1       -0.1947
     23 F           6.1368   -5.1477   28.8109 F       1  UNL1       -0.1947
     24 C           6.5062   -3.3472   29.8700 C.ar    1  UNL1        0.0801
     25 C           6.7351   -4.2417   31.0521 C.ar    1  UNL1        0.1035
     26 N           6.4391   -3.7456   32.4365 N.ar    1  UNL1       -0.2226
     27 C           5.9141   -2.3550   32.6386 C.ar    1  UNL1        0.1989
     28 N           5.6852   -1.4606   31.4563 N.ar    1  UNL1       -0.2226
     29 C           5.9812   -1.9567   30.0721 C.ar    1  UNL1        0.1035
@<TRIPOS>BOND
     1    15    16    1
     2    16    17   ar
     3    17    18   ar
     4    18    19   ar
     5    19    11    1
     6    11    12   am
     7    12    13    2
     8    12     1    1
     9     1     2   ar
    10     2     3   ar
    11     3    21    1
    12    21    22    1
    13    21    23    1
    14    21    24    1
    15    24    25   ar
    16    25    26   ar
    17    26    27   ar
    18    27    28   ar
    19    28    29   ar
    20     3     4   ar
    21     4     5   ar
    22     5     6   ar
    23     6     7   ar
    24     7     8   ar
    25     8     9   ar
    26     9    10   ar
    27    19    20   ar
    28    20    16   ar
    29    10     1   ar
    30    29    24   ar
    31    10     5   ar
    32    11    14    1
@<TRIPOS>MOLECULE
*****
 29 32 0 0 0
SMALL
GASTEIGER

@<TRIPOS>ATOM
      1 C           6.9572   -4.0141   27.4413 C.ar    1  UNL1        0.0712
      2 C           6.4951   -3.2641   28.6553 C.ar    1  UNL1        0.0073
      3 C           6.7505   -3.8221   30.0240 C.ar    1  UNL1        0.0422
      4 C           7.4680   -5.1302   30.1787 C.ar    1  UNL1        0.0028
      5 C           7.9301   -5.8804   28.9646 C.ar    1  UNL1        0.0177
      6 C           8.6476   -7.1885   29.1193 C.ar    1  UNL1        0.0031
      7 C           9.1097   -7.9386   27.9053 C.ar    1  UNL1        0.0207
      8 C           8.8542   -7.3805   26.5366 C.ar    1  UNL1        0.0988
      9 N           8.1368   -6.0724   26.3819 N.ar    1  UNL1       -0.2437
     10 C           7.6747   -5.3223   27.5959 C.ar    1  UNL1        0.0856
     11 N           6.2061   -4.3531   24.9774 N.am    1  UNL1       -0.2606
     12 C           6.7017   -3.4560   26.0726 C.2     1  UNL1        0.2524
     13 O           6.9420   -2.0008   25.7991 O.2     1  UNL1       -0.2697
     14 H           6.0484   -5.3082   25.1568 H       1  UNL1        0.1571
     15 C           3.7755   -2.2857   20.7704 C.3     1  UNL1        0.0527
     16 C           4.8334   -2.8447   21.6749 C.ar    1  UNL1        0.0678
     17 C           6.2817   -3.0278   21.3300 C.ar    1  UNL1        0.0528
     18 S           6.9722   -3.6151   22.5251 S.2     1  UNL1       -0.0512
     19 C           5.9506   -3.7950   23.6087 C.ar    1  UNL1        0.1654
     20 N           4.6288   -3.3189   23.0832 N.ar    1  UNL1       -0.2283
     21 C           6.2884   -3.0720   31.2380 C.3     1  UNL1        0.3042
     22 F           6.7278   -4.2112   32.1092 F       1  UNL1       -0.1947
     23 F           5.8491   -1.9327   30.3668 F       1  UNL1       -0.1947
     24 C           5.8263   -2.3218   32.4520 C.ar    1  UNL1        0.0801
     25 C           6.7273   -1.3107   33.0968 C.ar    1  UNL1        0.1035
     26 N           6.2652   -0.5605   34.3108 N.ar    1  UNL1       -0.2226
     27 C           4.9022   -0.8215   34.8799 C.ar    1  UNL1        0.1989
     28 N           4.0012   -1.8327   34.2350 N.ar    1  UNL1       -0.2226
     29 C           4.4632   -2.5828   33.0211 C.ar    1  UNL1        0.1035
@<TRIPOS>BOND
     1    15    16    1
     2    16    17   ar
     3    17    18   ar
     4    18    19   ar
     5    19    11    1
     6    11    12   am
     7    12    13    2
     8    12     1    1
     9     1     2   ar
    10     2     3   ar
    11     3    21    1
    12    21    22    1
    13    21    23    1
    14    21    24    1
    15    24    25   ar
    16    25    26   ar
    17    26    27   ar
    18    27    28   ar
    19    28    29   ar
    20     3     4   ar
    21     4     5   ar
    22     5     6   ar
    23     6     7   ar
    24     7     8   ar
    25     8     9   ar
    26     9    10   ar
    27    19    20   ar
    28    20    16   ar
    29    10     1   ar
    30    29    24   ar
    31    10     5   ar
    32    11    14    1
@<TRIPOS>MOLECULE
*****
 29 32 0 0 0
SMALL
GASTEIGER

@<TRIPOS>ATOM
      1 C         -15.4334   -2.8218   18.9722 C.ar    1  UNL1        0.0712
      2 C         -15.9455   -4.2315   18.9533 C.ar    1  UNL1        0.0073
      3 C         -14.9960   -5.3715   18.7320 C.ar    1  UNL1        0.0422
      4 C         -13.5344   -5.1017   18.5297 C.ar    1  UNL1        0.0028
      5 C         -13.0222   -3.6920   18.5486 C.ar    1  UNL1        0.0177
      6 C         -11.5607   -3.4222   18.3463 C.ar    1  UNL1        0.0031
      7 C         -11.0486   -2.0125   18.3653 C.ar    1  UNL1        0.0207
      8 C         -11.9980   -0.8725   18.5865 C.ar    1  UNL1        0.0988
      9 N         -13.4596   -1.1423   18.7889 N.ar    1  UNL1       -0.2437
     10 C         -13.9717   -2.5520   18.7699 C.ar    1  UNL1        0.0856
     11 N         -16.1572   -0.7273   20.3283 N.am    1  UNL1       -0.2606
     12 C         -16.3828   -1.6818   19.1935 C.2     1  UNL1        0.2524
     13 O         -17.5580   -1.4964   18.2799 O.2     1  UNL1       -0.2697
     14 H         -15.3858   -0.8489   20.9279 H       1  UNL1        0.1571
     15 C         -20.4628    2.0442   21.6171 C.3     1  UNL1        0.0527
     16 C         -19.0857    1.6867   21.1420 C.ar    1  UNL1        0.0678
     17 C         -18.0497    2.6473   20.6383 C.ar    1  UNL1        0.0528
     18 S         -16.8266    1.8600   20.2722 S.2     1  UNL1       -0.0512
     19 C         -17.1066    0.4127   20.5496 C.ar    1  UNL1        0.1654
     20 N         -18.5029    0.3056   21.0872 N.ar    1  UNL1       -0.2283
     21 C         -15.5082   -6.7813   18.7131 C.3     1  UNL1        0.3042
     22 F         -16.3553   -6.4575   17.5183 F       1  UNL1       -0.1947
     23 F         -14.6611   -7.1050   19.9079 F       1  UNL1       -0.1947
     24 C         -16.0203   -8.1910   18.6942 C.ar    1  UNL1        0.0801
     25 C         -15.1546   -9.2964   18.1664 C.ar    1  UNL1        0.1035
     26 N         -15.6667  -10.7062   18.1475 N.ar    1  UNL1       -0.2226
     27 C         -17.0446  -11.0105   18.6563 C.ar    1  UNL1        0.1989
     28 N         -17.9103   -9.9050   19.1841 N.ar    1  UNL1       -0.2226
     29 C         -17.3982   -8.4953   19.2030 C.ar    1  UNL1        0.1035
@<TRIPOS>BOND
     1    15    16    1
     2    16    17   ar
     3    17    18   ar
     4    18    19   ar
     5    19    11    1
     6    11    12   am
     7    12    13    2
     8    12     1    1
     9     1     2   ar
    10     2     3   ar
    11     3    21    1
    12    21    22    1
    13    21    23    1
    14    21    24    1
    15    24    25   ar
    16    25    26   ar
    17    26    27   ar
    18    27    28   ar
    19    28    29   ar
    20     3     4   ar
    21     4     5   ar
    22     5     6   ar
    23     6     7   ar
    24     7     8   ar
    25     8     9   ar
    26     9    10   ar
    27    19    20   ar
    28    20    16   ar
    29    10     1   ar
    30    29    24   ar
    31    10     5   ar
    32    11    14    1
@<TRIPOS>MOLECULE
*****
 29 32 0 0 0
SMALL
GASTEIGER

@<TRIPOS>ATOM
      1 C           6.2934   -3.3319   24.4184 C.ar    1  UNL1        0.0712
      2 C           5.1335   -2.4824   23.9906 C.ar    1  UNL1        0.0073
      3 C           4.8255   -2.3129   22.5323 C.ar    1  UNL1        0.0422
      4 C           5.6773   -2.9931   21.5019 C.ar    1  UNL1        0.0028
      5 C           6.8372   -3.8426   21.9297 C.ar    1  UNL1        0.0177
      6 C           7.6890   -4.5228   20.8993 C.ar    1  UNL1        0.0031
      7 C           8.8489   -5.3723   21.3271 C.ar    1  UNL1        0.0207
      8 C           9.1569   -5.5417   22.7853 C.ar    1  UNL1        0.0988
      9 N           8.3051   -4.8616   23.8157 N.ar    1  UNL1       -0.2437
     10 C           7.1452   -4.0121   23.3879 C.ar    1  UNL1        0.0856
     11 N           6.4740   -4.8511   26.5182 N.am    1  UNL1       -0.2606
     12 C           6.6014   -3.5013   25.8766 C.2     1  UNL1        0.2524
     13 O           7.0368   -2.3208   26.6932 O.2     1  UNL1       -0.2697
     14 H           6.1882   -5.6259   25.9822 H       1  UNL1        0.1571
     15 C           6.6885   -4.0453   31.7321 C.3     1  UNL1        0.0527
     16 C           6.8806   -4.6501   30.3730 C.ar    1  UNL1        0.0678
     17 C           7.6314   -5.9123   30.0678 C.ar    1  UNL1        0.0528
     18 S           7.5705   -6.1412   28.5866 S.2     1  UNL1       -0.0512
     19 C           6.7820   -5.0205   27.9764 C.ar    1  UNL1        0.1654
     20 N           6.3557   -4.0990   29.0805 N.ar    1  UNL1       -0.2283
     21 C           3.6656   -1.4634   22.1045 C.3     1  UNL1        0.3042
     22 F           4.1158   -1.5672   20.6775 F       1  UNL1       -0.1947
     23 F           3.2154   -1.3595   23.5316 F       1  UNL1       -0.1947
     24 C           2.5058   -0.6138   21.6768 C.ar    1  UNL1        0.0801
     25 C           1.8277   -0.8759   20.3648 C.ar    1  UNL1        0.1035
     26 N           0.6678   -0.0264   19.9370 N.ar    1  UNL1       -0.2226
     27 C           0.1860    1.0853   20.8214 C.ar    1  UNL1        0.1989
     28 N           0.8641    1.3473   22.1335 N.ar    1  UNL1       -0.2226
     29 C           2.0239    0.4978   22.5612 C.ar    1  UNL1        0.1035
@<TRIPOS>BOND
     1    15    16    1
     2    16    17   ar
     3    17    18   ar
     4    18    19   ar
     5    19    11    1
     6    11    12   am
     7    12    13    2
     8    12     1    1
     9     1     2   ar
    10     2     3   ar
    11     3    21    1
    12    21    22    1
    13    21    23    1
    14    21    24    1
    15    24    25   ar
    16    25    26   ar
    17    26    27   ar
    18    27    28   ar
    19    28    29   ar
    20     3     4   ar
    21     4     5   ar
    22     5     6   ar
    23     6     7   ar
    24     7     8   ar
    25     8     9   ar
    26     9    10   ar
    27    19    20   ar
    28    20    16   ar
    29    10     1   ar
    30    29    24   ar
    31    10     5   ar
    32    11    14    1
