@<TRIPOS>MOLECULE
*****
 36 40 0 0 0
SMALL
GASTEIGER

@<TRIPOS>ATOM
      1 C           5.4166   -0.9233   34.6683 C.ar    1  UNL1       -0.0025
      2 C           4.3839   -1.8172   34.0483 C.ar    1  UNL1       -0.0014
      3 C           4.7018   -2.5711   32.7911 C.ar    1  UNL1        0.0142
      4 C           6.0525   -2.4311   32.1539 C.ar    1  UNL1        0.0478
      5 C           7.0852   -1.5373   32.7739 C.ar    1  UNL1        0.0142
      6 C           6.7673   -0.7834   34.0311 C.ar    1  UNL1       -0.0014
      7 N           6.3704   -3.1850   30.8967 N.pl3   1  UNL1       -0.3075
      8 C           6.8226   -4.6132   30.9726 C.3     1  UNL1        0.0911
      9 C           7.1405   -5.3671   29.7154 C.3     1  UNL1        0.0258
     10 C           7.0063   -4.6928   28.3823 C.3     1  UNL1        0.0257
     11 C           6.5541   -3.2646   28.3063 C.3     1  UNL1        0.0258
     12 C           6.2362   -2.5107   29.5635 C.3     1  UNL1        0.0911
     13 C           7.3242   -5.4466   27.1251 C.ar    1  UNL1       -0.0222
     14 C           7.6327   -6.9132   27.1876 C.ar    1  UNL1       -0.0020
     15 C           7.9506   -7.6671   25.9304 C.ar    1  UNL1        0.0293
     16 C           7.9601   -6.9544   24.6106 C.ar    1  UNL1        0.1401
     17 F           8.2780   -7.7083   23.3534 F       1  UNL1       -0.2042
     18 C           7.6516   -5.4878   24.5480 C.ar    1  UNL1        0.0293
     19 C           7.3337   -4.7339   25.8052 C.ar    1  UNL1       -0.0020
     20 C           5.0986   -0.1694   35.9255 C.3     1  UNL1        0.1166
     21 C           3.8571    1.8046   37.0708 C.2     1  UNL1        0.2635
     22 O           4.8566    1.7842   38.1892 O.2     1  UNL1       -0.2685
     23 N           3.9782    0.8278   35.9390 N.am    1  UNL1       -0.2957
     24 H           3.3222    0.8411   35.2050 H       1  UNL1        0.1501
     25 C           1.6497    2.8927   38.1140 C.ar    1  UNL1        0.0811
     26 N           0.7477    4.0303   37.7365 N.ar    1  UNL1       -0.2306
     27 C           1.2774    4.6425   36.4737 C.ar    1  UNL1        0.1483
     28 C           0.7991    5.7931   35.6388 C.ar    1  UNL1        0.0488
     29 C           1.5501    6.1846   34.4007 C.ar    1  UNL1        0.0622
     30 CL          1.0718    7.3353   33.5657 Cl      1  UNL1       -0.0821
     31 C           2.7793    5.4253   33.9977 C.ar    1  UNL1        0.0305
     32 C           3.2576    4.2746   34.8326 C.ar    1  UNL1        0.0824
     33 N           2.5066    3.8832   36.0706 N.ar    1  UNL1       -0.2853
     34 C           2.7367    2.8018   37.0843 C.ar    1  UNL1        0.1326
     35 C           0.9154    0.6269   39.1517 C.3     1  UNL1        0.0067
     36 C           1.4922    2.0023   39.3108 C.3     1  UNL1        0.0475
@<TRIPOS>BOND
     1    35    36    1
     2    36    25    1
     3    25    26   ar
     4    26    27   ar
     5    27    28   ar
     6    28    29   ar
     7    29    30    1
     8    29    31   ar
     9    31    32   ar
    10    32    33   ar
    11    33    34   ar
    12    34    21    1
    13    21    22    2
    14    21    23   am
    15    23    20    1
    16    20     1    1
    17     1     2   ar
    18     2     3   ar
    19     3     4   ar
    20     4     7    1
    21     7     8    1
    22     8     9    1
    23     9    10    1
    24    10    13    1
    25    13    14   ar
    26    14    15   ar
    27    15    16   ar
    28    16    17    1
    29    16    18   ar
    30    18    19   ar
    31    10    11    1
    32    11    12    1
    33     4     5   ar
    34     5     6   ar
    35    34    25   ar
    36     6     1   ar
    37    33    27   ar
    38    12     7    1
    39    19    13   ar
    40    23    24    1
@<TRIPOS>MOLECULE
*****
 36 40 0 0 0
SMALL
GASTEIGER

@<TRIPOS>ATOM
      1 C           6.8864   -4.7954   29.4981 C.ar    1  UNL1       -0.0025
      2 C           6.5353   -3.3596   29.2429 C.ar    1  UNL1       -0.0014
      3 C           6.2775   -2.4343   30.3950 C.ar    1  UNL1        0.0142
      4 C           6.3707   -2.9449   31.8024 C.ar    1  UNL1        0.0478
      5 C           6.7218   -4.3807   32.0576 C.ar    1  UNL1        0.0142
      6 C           6.9796   -5.3060   30.9055 C.ar    1  UNL1       -0.0014
      7 N           6.1129   -2.0196   32.9545 N.pl3   1  UNL1       -0.3075
      8 C           7.2110   -1.1353   33.4665 C.3     1  UNL1        0.0911
      9 C           6.9531   -0.2100   34.6186 C.3     1  UNL1        0.0258
     10 C           5.5972   -0.1690   35.2586 C.3     1  UNL1        0.0257
     11 C           4.4990   -1.0532   34.7466 C.3     1  UNL1        0.0258
     12 C           4.7569   -1.9785   33.5945 C.3     1  UNL1        0.0911
     13 C           5.3393    0.7563   36.4107 C.ar    1  UNL1       -0.0222
     14 C           6.3327    1.8281   36.7488 C.ar    1  UNL1       -0.0020
     15 C           6.0749    2.7534   37.9009 C.ar    1  UNL1        0.0293
     16 C           4.8236    2.6069   38.7150 C.ar    1  UNL1        0.1401
     17 F           4.5657    3.5322   39.8671 F       1  UNL1       -0.2042
     18 C           3.8302    1.5351   38.3769 C.ar    1  UNL1        0.0293
     19 C           4.0880    0.6098   37.2248 C.ar    1  UNL1       -0.0020
     20 C           7.1443   -5.7207   28.3460 C.3     1  UNL1        0.1166
     21 C           7.4559   -4.6044   26.0208 C.2     1  UNL1        0.2635
     22 O           8.8296   -4.1541   26.4212 O.2     1  UNL1       -0.2685
     23 N           6.6133   -5.3877   26.9832 N.am    1  UNL1       -0.2957
     24 H           5.7117   -5.6833   26.7204 H       1  UNL1        0.1501
     25 C           7.3696   -4.8863   23.3641 C.ar    1  UNL1        0.0811
     26 N           6.5756   -4.2599   22.2563 N.ar    1  UNL1       -0.2306
     27 C           5.6403   -3.2579   22.8655 C.ar    1  UNL1        0.1483
     28 C           4.6199   -2.3399   22.2605 C.ar    1  UNL1        0.0488
     29 C           3.8154   -1.4291   23.1398 C.ar    1  UNL1        0.0622
     30 CL          2.7950   -0.5111   22.5347 Cl      1  UNL1       -0.0821
     31 C           4.0314   -1.4363   24.6241 C.ar    1  UNL1        0.0305
     32 C           5.0517   -2.3542   25.2292 C.ar    1  UNL1        0.0824
     33 N           5.8562   -3.2650   24.3499 N.ar    1  UNL1       -0.2853
     34 C           6.9250   -4.2714   24.6580 C.ar    1  UNL1        0.1326
     35 C           8.2996   -7.2418   23.9444 C.3     1  UNL1        0.0067
     36 C           8.4232   -5.9421   23.2057 C.3     1  UNL1        0.0475
@<TRIPOS>BOND
     1    35    36    1
     2    36    25    1
     3    25    26   ar
     4    26    27   ar
     5    27    28   ar
     6    28    29   ar
     7    29    30    1
     8    29    31   ar
     9    31    32   ar
    10    32    33   ar
    11    33    34   ar
    12    34    21    1
    13    21    22    2
    14    21    23   am
    15    23    20    1
    16    20     1    1
    17     1     2   ar
    18     2     3   ar
    19     3     4   ar
    20     4     7    1
    21     7     8    1
    22     8     9    1
    23     9    10    1
    24    10    13    1
    25    13    14   ar
    26    14    15   ar
    27    15    16   ar
    28    16    17    1
    29    16    18   ar
    30    18    19   ar
    31    10    11    1
    32    11    12    1
    33     4     5   ar
    34     5     6   ar
    35    34    25   ar
    36     6     1   ar
    37    33    27   ar
    38    12     7    1
    39    19    13   ar
    40    23    24    1
@<TRIPOS>MOLECULE
*****
 36 40 0 0 0
SMALL
GASTEIGER

@<TRIPOS>ATOM
      1 C           5.5884   -3.4204   23.6320 C.ar    1  UNL1       -0.0025
      2 C           5.0477   -2.2505   24.3995 C.ar    1  UNL1       -0.0014
      3 C           4.0976   -1.2953   23.7401 C.ar    1  UNL1        0.0142
      4 C           3.6880   -1.5100   22.3132 C.ar    1  UNL1        0.0478
      5 C           4.2287   -2.6798   21.5457 C.ar    1  UNL1        0.0142
      6 C           5.1788   -3.6350   22.2051 C.ar    1  UNL1       -0.0014
      7 N           2.7379   -0.5548   21.6538 N.pl3   1  UNL1       -0.3075
      8 C           2.5686    0.8318   22.2003 C.3     1  UNL1        0.0911
      9 C           1.6184    1.7870   21.5409 C.3     1  UNL1        0.0258
     10 C           0.8376    1.3556   20.3350 C.3     1  UNL1        0.0257
     11 C           1.0069   -0.0310   19.7885 C.3     1  UNL1        0.0258
     12 C           1.9571   -0.9862   20.4479 C.3     1  UNL1        0.0911
     13 C          -0.1126    2.3108   19.6756 C.ar    1  UNL1       -0.0222
     14 C           0.1171    2.7371   18.2560 C.ar    1  UNL1       -0.0020
     15 C          -0.8330    3.6923   17.5966 C.ar    1  UNL1        0.0293
     16 C          -2.0129    4.2212   18.3569 C.ar    1  UNL1        0.1401
     17 F          -2.9631    5.1764   17.6975 F       1  UNL1       -0.2042
     18 C          -2.2426    3.7950   19.7765 C.ar    1  UNL1        0.0293
     19 C          -1.2924    2.8398   20.4359 C.ar    1  UNL1       -0.0020
     20 C           6.5385   -4.3756   24.2914 C.3     1  UNL1        0.1166
     21 C           7.6145   -4.6470   26.6406 C.2     1  UNL1        0.2635
     22 O           8.9588   -4.3164   26.0630 O.2     1  UNL1       -0.2685
     23 N           6.4044   -4.6766   25.7548 N.am    1  UNL1       -0.2957
     24 H           5.5221   -4.8936   26.1338 H       1  UNL1        0.1501
     25 C           7.8564   -6.2345   28.7775 C.ar    1  UNL1        0.0811
     26 N           7.5551   -6.0969   30.2405 N.ar    1  UNL1       -0.2306
     27 C           6.9929   -4.7255   30.4711 C.ar    1  UNL1        0.1483
     28 C           6.5170   -4.0315   31.7128 C.ar    1  UNL1        0.0488
     29 C           5.9950   -2.6275   31.6340 C.ar    1  UNL1        0.0622
     30 CL          5.5191   -1.9335   32.8758 Cl      1  UNL1       -0.0821
     31 C           5.9488   -1.9175   30.3135 C.ar    1  UNL1        0.0305
     32 C           6.4247   -2.6114   29.0718 C.ar    1  UNL1        0.0824
     33 N           6.9467   -4.0154   29.1506 N.ar    1  UNL1       -0.2853
     34 C           7.4804   -4.9480   28.1039 C.ar    1  UNL1        0.1326
     35 C           7.6820   -8.1142   26.9926 C.3     1  UNL1        0.0067
     36 C           8.4325   -7.4457   28.1061 C.3     1  UNL1        0.0475
@<TRIPOS>BOND
     1    35    36    1
     2    36    25    1
     3    25    26   ar
     4    26    27   ar
     5    27    28   ar
     6    28    29   ar
     7    29    30    1
     8    29    31   ar
     9    31    32   ar
    10    32    33   ar
    11    33    34   ar
    12    34    21    1
    13    21    22    2
    14    21    23   am
    15    23    20    1
    16    20     1    1
    17     1     2   ar
    18     2     3   ar
    19     3     4   ar
    20     4     7    1
    21     7     8    1
    22     8     9    1
    23     9    10    1
    24    10    13    1
    25    13    14   ar
    26    14    15   ar
    27    15    16   ar
    28    16    17    1
    29    16    18   ar
    30    18    19   ar
    31    10    11    1
    32    11    12    1
    33     4     5   ar
    34     5     6   ar
    35    34    25   ar
    36     6     1   ar
    37    33    27   ar
    38    12     7    1
    39    19    13   ar
    40    23    24    1
@<TRIPOS>MOLECULE
*****
 36 40 0 0 0
SMALL
GASTEIGER

@<TRIPOS>ATOM
      1 C           6.2674   -3.5620   24.3925 C.ar    1  UNL1       -0.0025
      2 C           6.8251   -4.4666   25.4511 C.ar    1  UNL1       -0.0014
      3 C           6.7603   -4.0617   26.8940 C.ar    1  UNL1        0.0142
      4 C           6.1377   -2.7523   27.2783 C.ar    1  UNL1        0.0478
      5 C           5.5799   -1.8477   26.2197 C.ar    1  UNL1        0.0142
      6 C           5.6448   -2.2526   24.7768 C.ar    1  UNL1       -0.0014
      7 N           6.0728   -2.3474   28.7212 N.pl3   1  UNL1       -0.3075
      8 C           6.5406   -3.2933   29.7872 C.3     1  UNL1        0.0911
      9 C           6.4757   -2.8884   31.2301 C.3     1  UNL1        0.0258
     10 C           5.9431   -1.5377   31.6069 C.3     1  UNL1        0.0257
     11 C           5.4754   -0.5919   30.5408 C.3     1  UNL1        0.0258
     12 C           5.5402   -0.9967   29.0980 C.3     1  UNL1        0.0911
     13 C           5.8783   -1.1329   33.0498 C.ar    1  UNL1       -0.0222
     14 C           4.6075   -1.3191   33.8246 C.ar    1  UNL1       -0.0020
     15 C           4.5427   -0.9142   35.2675 C.ar    1  UNL1        0.0293
     16 C           5.7487   -0.3231   35.9356 C.ar    1  UNL1        0.1401
     17 F           5.6838    0.0817   37.3784 F       1  UNL1       -0.2042
     18 C           7.0194   -0.1369   35.1607 C.ar    1  UNL1        0.0293
     19 C           7.0842   -0.5418   33.7178 C.ar    1  UNL1       -0.0020
     20 C           6.3323   -3.9669   22.9496 C.3     1  UNL1        0.1166
     21 C           5.1643   -3.2519   20.7418 C.2     1  UNL1        0.2635
     22 O           4.4598   -4.5751   20.6860 O.2     1  UNL1       -0.2685
     23 N           6.1004   -2.9479   21.8736 N.am    1  UNL1       -0.2957
     24 H           6.5628   -2.0795   21.9102 H       1  UNL1        0.1501
     25 C           5.8736   -1.9046   18.5449 C.ar    1  UNL1        0.0811
     26 N           5.2416   -0.8321   17.7081 N.ar    1  UNL1       -0.2306
     27 C           3.9098   -0.4976   18.3118 C.ar    1  UNL1        0.1483
     28 C           2.8464    0.4835   17.9161 C.ar    1  UNL1        0.0488
     29 C           1.5919    0.5988   18.7303 C.ar    1  UNL1        0.0622
     30 CL          0.5284    1.5799   18.3346 Cl      1  UNL1       -0.0821
     31 C           1.4009   -0.2670   19.9403 C.ar    1  UNL1        0.0305
     32 C           2.4643   -1.2481   20.3359 C.ar    1  UNL1        0.0824
     33 N           3.7187   -1.3633   19.5217 N.ar    1  UNL1       -0.2853
     34 C           4.9324   -2.2329   19.6658 C.ar    1  UNL1        0.1326
     35 C           8.3992   -2.1151   19.1167 C.3     1  UNL1        0.0067
     36 C           7.2119   -2.5376   18.3032 C.3     1  UNL1        0.0475
@<TRIPOS>BOND
     1    35    36    1
     2    36    25    1
     3    25    26   ar
     4    26    27   ar
     5    27    28   ar
     6    28    29   ar
     7    29    30    1
     8    29    31   ar
     9    31    32   ar
    10    32    33   ar
    11    33    34   ar
    12    34    21    1
    13    21    22    2
    14    21    23   am
    15    23    20    1
    16    20     1    1
    17     1     2   ar
    18     2     3   ar
    19     3     4   ar
    20     4     7    1
    21     7     8    1
    22     8     9    1
    23     9    10    1
    24    10    13    1
    25    13    14   ar
    26    14    15   ar
    27    15    16   ar
    28    16    17    1
    29    16    18   ar
    30    18    19   ar
    31    10    11    1
    32    11    12    1
    33     4     5   ar
    34     5     6   ar
    35    34    25   ar
    36     6     1   ar
    37    33    27   ar
    38    12     7    1
    39    19    13   ar
    40    23    24    1
@<TRIPOS>MOLECULE
*****
 36 40 0 0 0
SMALL
GASTEIGER

@<TRIPOS>ATOM
      1 C           8.1553   -4.7229   23.7420 C.ar    1  UNL1       -0.0025
      2 C           8.3722   -3.2889   24.1249 C.ar    1  UNL1       -0.0014
      3 C           8.0037   -2.8157   25.4998 C.ar    1  UNL1        0.0142
      4 C           7.4182   -3.7766   26.4918 C.ar    1  UNL1        0.0478
      5 C           7.2014   -5.2105   26.1089 C.ar    1  UNL1        0.0142
      6 C           7.5699   -5.6837   24.7340 C.ar    1  UNL1       -0.0014
      7 N           7.0497   -3.3034   27.8667 N.pl3   1  UNL1       -0.3075
      8 C           7.0130   -4.2745   29.0093 C.3     1  UNL1        0.0911
      9 C           6.6444   -3.8014   30.3842 C.3     1  UNL1        0.0258
     10 C           6.3127   -2.3571   30.6165 C.3     1  UNL1        0.0257
     11 C           6.3495   -1.3859   29.4739 C.3     1  UNL1        0.0258
     12 C           6.7180   -1.8591   28.0990 C.3     1  UNL1        0.0911
     13 C           5.9442   -1.8839   31.9913 C.ar    1  UNL1       -0.0222
     14 C           4.6549   -2.3273   32.6167 C.ar    1  UNL1       -0.0020
     15 C           4.2864   -1.8542   33.9916 C.ar    1  UNL1        0.0293
     16 C           5.2072   -0.9375   34.7412 C.ar    1  UNL1        0.1401
     17 F           4.8387   -0.4643   36.1160 F       1  UNL1       -0.2042
     18 C           6.4965   -0.4941   34.1158 C.ar    1  UNL1        0.0293
     19 C           6.8650   -0.9672   32.7409 C.ar    1  UNL1       -0.0020
     20 C           8.5238   -5.1960   22.3671 C.3     1  UNL1        0.1166
     21 C           6.7788   -3.9379   20.9105 C.2     1  UNL1        0.2635
     22 O           5.6880   -4.3671   21.8465 O.2     1  UNL1       -0.2685
     23 N           8.1966   -4.3524   21.1708 N.am    1  UNL1       -0.2957
     24 H           8.9125   -4.0707   20.5565 H       1  UNL1        0.1501
     25 C           5.4483   -3.4254   18.6495 C.ar    1  UNL1        0.0811
     26 N           5.4469   -2.3071   17.6498 N.ar    1  UNL1       -0.2306
     27 C           6.4494   -1.2847   18.0967 C.ar    1  UNL1        0.1483
     28 C           6.8771    0.0264   17.5067 C.ar    1  UNL1        0.0488
     29 C           7.9256    0.8510   18.1925 C.ar    1  UNL1        0.0622
     30 CL          8.3533    2.1622   17.6025 Cl      1  UNL1       -0.0821
     31 C           8.5466    0.3646   19.4684 C.ar    1  UNL1        0.0305
     32 C           8.1189   -0.9465   20.0584 C.ar    1  UNL1        0.0824
     33 N           7.0704   -1.7711   19.3725 N.ar    1  UNL1       -0.2853
     34 C           6.4516   -3.0942   19.7142 C.ar    1  UNL1        0.1326
     35 C           3.2754   -4.6900   19.3048 C.3     1  UNL1        0.0067
     36 C           4.5960   -4.6585   18.5941 C.3     1  UNL1        0.0475
@<TRIPOS>BOND
     1    35    36    1
     2    36    25    1
     3    25    26   ar
     4    26    27   ar
     5    27    28   ar
     6    28    29   ar
     7    29    30    1
     8    29    31   ar
     9    31    32   ar
    10    32    33   ar
    11    33    34   ar
    12    34    21    1
    13    21    22    2
    14    21    23   am
    15    23    20    1
    16    20     1    1
    17     1     2   ar
    18     2     3   ar
    19     3     4   ar
    20     4     7    1
    21     7     8    1
    22     8     9    1
    23     9    10    1
    24    10    13    1
    25    13    14   ar
    26    14    15   ar
    27    15    16   ar
    28    16    17    1
    29    16    18   ar
    30    18    19   ar
    31    10    11    1
    32    11    12    1
    33     4     5   ar
    34     5     6   ar
    35    34    25   ar
    36     6     1   ar
    37    33    27   ar
    38    12     7    1
    39    19    13   ar
    40    23    24    1
@<TRIPOS>MOLECULE
*****
 36 40 0 0 0
SMALL
GASTEIGER

@<TRIPOS>ATOM
      1 C           0.7975    2.1343   30.1689 C.ar    1  UNL1       -0.0025
      2 C           0.9579    3.2497   29.1790 C.ar    1  UNL1       -0.0014
      3 C           1.2131    2.9392   27.7339 C.ar    1  UNL1        0.0142
      4 C           1.3079    1.5131   27.2786 C.ar    1  UNL1        0.0478
      5 C           1.1475    0.3976   28.2685 C.ar    1  UNL1        0.0142
      6 C           0.8923    0.7082   29.7136 C.ar    1  UNL1       -0.0014
      7 N           1.5632    1.2025   25.8335 N.pl3   1  UNL1       -0.3075
      8 C           2.7745    0.4105   25.4391 C.3     1  UNL1        0.0911
      9 C           3.0297    0.1000   23.9940 C.3     1  UNL1        0.0258
     10 C           2.0736    0.5814   22.9432 C.3     1  UNL1        0.0257
     11 C           0.8623    1.3734   23.3375 C.3     1  UNL1        0.0258
     12 C           0.6071    1.6839   24.7826 C.3     1  UNL1        0.0911
     13 C           2.3289    0.2708   21.4981 C.ar    1  UNL1       -0.0222
     14 C           2.0832    1.3168   20.4514 C.ar    1  UNL1       -0.0020
     15 C           2.3384    1.0062   19.0063 C.ar    1  UNL1        0.0293
     16 C           2.8394   -0.3503   18.6078 C.ar    1  UNL1        0.1401
     17 F           3.0946   -0.6609   17.1627 F       1  UNL1       -0.2042
     18 C           3.0850   -1.3963   19.6545 C.ar    1  UNL1        0.0293
     19 C           2.8298   -1.0857   21.0996 C.ar    1  UNL1       -0.0020
     20 C           0.5422    2.4448   31.6140 C.3     1  UNL1        0.1166
     21 C           2.7629    1.9805   32.8801 C.2     1  UNL1        0.2635
     22 O           3.4684    2.9763   32.0078 O.2     1  UNL1       -0.2685
     23 N           1.2998    1.7148   32.6832 N.am    1  UNL1       -0.2957
     24 H           0.8368    1.0613   33.2557 H       1  UNL1        0.1501
     25 C           4.1034   -0.1267   33.8329 C.ar    1  UNL1        0.0811
     26 N           4.7714   -0.4587   35.1343 N.ar    1  UNL1       -0.2306
     27 C           4.6013    0.7132   36.0549 C.ar    1  UNL1        0.1483
     28 C           5.0505    0.9549   37.4655 C.ar    1  UNL1        0.0488
     29 C           4.7266    2.2530   38.1437 C.ar    1  UNL1        0.0622
     30 CL          5.1758    2.4948   39.5544 Cl      1  UNL1       -0.0821
     31 C           3.9535    3.3094   37.4113 C.ar    1  UNL1        0.0305
     32 C           3.5043    3.0677   36.0008 C.ar    1  UNL1        0.0824
     33 N           3.8282    1.7696   35.3226 N.ar    1  UNL1       -0.2853
     34 C           3.5205    1.2505   33.9493 C.ar    1  UNL1        0.1326
     35 C           4.6565   -2.3786   32.6613 C.3     1  UNL1        0.0067
     36 C           4.0310   -1.0157   32.6269 C.3     1  UNL1        0.0475
@<TRIPOS>BOND
     1    35    36    1
     2    36    25    1
     3    25    26   ar
     4    26    27   ar
     5    27    28   ar
     6    28    29   ar
     7    29    30    1
     8    29    31   ar
     9    31    32   ar
    10    32    33   ar
    11    33    34   ar
    12    34    21    1
    13    21    22    2
    14    21    23   am
    15    23    20    1
    16    20     1    1
    17     1     2   ar
    18     2     3   ar
    19     3     4   ar
    20     4     7    1
    21     7     8    1
    22     8     9    1
    23     9    10    1
    24    10    13    1
    25    13    14   ar
    26    14    15   ar
    27    15    16   ar
    28    16    17    1
    29    16    18   ar
    30    18    19   ar
    31    10    11    1
    32    11    12    1
    33     4     5   ar
    34     5     6   ar
    35    34    25   ar
    36     6     1   ar
    37    33    27   ar
    38    12     7    1
    39    19    13   ar
    40    23    24    1
@<TRIPOS>MOLECULE
*****
 36 40 0 0 0
SMALL
GASTEIGER

@<TRIPOS>ATOM
      1 C           0.7617    3.3185   28.3835 C.ar    1  UNL1       -0.0025
      2 C          -0.2324    2.6548   27.4774 C.ar    1  UNL1       -0.0014
      3 C           0.2430    1.7909   26.3470 C.ar    1  UNL1        0.0142
      4 C           1.7125    1.5907   26.1227 C.ar    1  UNL1        0.0478
      5 C           2.7067    2.2545   27.0288 C.ar    1  UNL1        0.0142
      6 C           2.2313    3.1183   28.1592 C.ar    1  UNL1       -0.0014
      7 N           2.1879    0.7269   24.9924 N.pl3   1  UNL1       -0.3075
      8 C           1.6378    0.9287   23.6116 C.3     1  UNL1        0.0911
      9 C           2.1131    0.0648   22.4812 C.3     1  UNL1        0.0258
     10 C           3.1386   -1.0009   22.7316 C.3     1  UNL1        0.0257
     11 C           3.6887   -1.2027   24.1124 C.3     1  UNL1        0.0258
     12 C           3.2134   -0.3388   25.2428 C.3     1  UNL1        0.0911
     13 C           3.6140   -1.8648   21.6013 C.ar    1  UNL1       -0.0222
     14 C           3.1703   -1.5751   20.1980 C.ar    1  UNL1       -0.0020
     15 C           3.6457   -2.4390   19.0676 C.ar    1  UNL1        0.0293
     16 C           4.5647   -3.5926   19.3405 C.ar    1  UNL1        0.1401
     17 F           5.0401   -4.4565   18.2102 F       1  UNL1       -0.2042
     18 C           5.0084   -3.8823   20.7438 C.ar    1  UNL1        0.0293
     19 C           4.5330   -3.0184   21.8742 C.ar    1  UNL1       -0.0020
     20 C           0.2864    4.1824   29.5139 C.3     1  UNL1        0.1166
     21 C           0.8980    3.0293   31.7602 C.2     1  UNL1        0.2635
     22 O           0.0241    1.8644   31.4002 O.2     1  UNL1       -0.2685
     23 N           1.0291    4.1882   30.8171 N.am    1  UNL1       -0.2957
     24 H           1.6027    4.9527   31.0533 H       1  UNL1        0.1501
     25 C           1.5479    4.0892   34.1265 C.ar    1  UNL1        0.0811
     26 N           2.4565    3.6933   35.2524 N.ar    1  UNL1       -0.2306
     27 C           3.1109    2.3945   34.8852 C.ar    1  UNL1        0.1483
     28 C           4.1007    1.5297   35.6079 C.ar    1  UNL1        0.0488
     29 C           4.5863    0.2581   34.9778 C.ar    1  UNL1        0.0622
     30 CL          5.5762   -0.6068   35.7005 Cl      1  UNL1       -0.0821
     31 C           4.0821   -0.1487   33.6249 C.ar    1  UNL1        0.0305
     32 C           3.0923    0.7160   32.9022 C.ar    1  UNL1        0.0824
     33 N           2.6067    1.9876   33.5323 N.ar    1  UNL1       -0.2853
     34 C           1.6407    3.0351   33.0634 C.ar    1  UNL1        0.1326
     35 C           0.3263    6.0344   35.3406 C.3     1  UNL1        0.0067
     36 C           0.6960    5.3227   34.0730 C.3     1  UNL1        0.0475
@<TRIPOS>BOND
     1    35    36    1
     2    36    25    1
     3    25    26   ar
     4    26    27   ar
     5    27    28   ar
     6    28    29   ar
     7    29    30    1
     8    29    31   ar
     9    31    32   ar
    10    32    33   ar
    11    33    34   ar
    12    34    21    1
    13    21    22    2
    14    21    23   am
    15    23    20    1
    16    20     1    1
    17     1     2   ar
    18     2     3   ar
    19     3     4   ar
    20     4     7    1
    21     7     8    1
    22     8     9    1
    23     9    10    1
    24    10    13    1
    25    13    14   ar
    26    14    15   ar
    27    15    16   ar
    28    16    17    1
    29    16    18   ar
    30    18    19   ar
    31    10    11    1
    32    11    12    1
    33     4     5   ar
    34     5     6   ar
    35    34    25   ar
    36     6     1   ar
    37    33    27   ar
    38    12     7    1
    39    19    13   ar
    40    23    24    1
@<TRIPOS>MOLECULE
*****
 36 40 0 0 0
SMALL
GASTEIGER

@<TRIPOS>ATOM
      1 C           0.3435    1.5207   26.8207 C.ar    1  UNL1       -0.0025
      2 C           1.7468    1.9532   27.1267 C.ar    1  UNL1       -0.0014
      3 C           2.2270    1.9913   28.5472 C.ar    1  UNL1        0.0142
      4 C           1.3039    1.5969   29.6618 C.ar    1  UNL1        0.0478
      5 C          -0.0994    1.1644   29.3558 C.ar    1  UNL1        0.0142
      6 C          -0.5796    1.1263   27.9353 C.ar    1  UNL1       -0.0014
      7 N           1.7841    1.6350   31.0824 N.pl3   1  UNL1       -0.3075
      8 C           2.7844    0.6260   31.5632 C.3     1  UNL1        0.0911
      9 C           3.2646    0.6640   32.9837 C.3     1  UNL1        0.0258
     10 C           2.7445    1.7112   33.9234 C.3     1  UNL1        0.0257
     11 C           1.7442    2.7202   33.4426 C.3     1  UNL1        0.0258
     12 C           1.2640    2.6821   32.0221 C.3     1  UNL1        0.0911
     13 C           3.2247    1.7492   35.3440 C.ar    1  UNL1       -0.0222
     14 C           2.6104    2.7105   36.3179 C.ar    1  UNL1       -0.0020
     15 C           3.0906    2.7486   37.7384 C.ar    1  UNL1        0.0293
     16 C           4.1852    1.8254   38.1851 C.ar    1  UNL1        0.1401
     17 F           4.6654    1.8635   39.6056 F       1  UNL1       -0.2042
     18 C           4.7995    0.8641   37.2112 C.ar    1  UNL1        0.0293
     19 C           4.3193    0.8260   35.7907 C.ar    1  UNL1       -0.0020
     20 C          -0.1367    1.4826   25.4001 C.3     1  UNL1        0.1166
     21 C           1.3304    1.0852   23.2931 C.2     1  UNL1        0.2635
     22 O           1.5253    2.5656   23.1496 O.2     1  UNL1       -0.2685
     23 N           0.4994    0.5438   24.4183 N.am    1  UNL1       -0.2957
     24 H           0.3715   -0.4278   24.5125 H       1  UNL1        0.1501
     25 C           1.6597    0.0629   20.8453 C.ar    1  UNL1        0.0811
     26 N           2.5247   -1.0089   20.2511 N.ar    1  UNL1       -0.2306
     27 C           3.3661   -1.5878   21.3498 C.ar    1  UNL1        0.1483
     28 C           4.4017   -2.6728   21.3553 C.ar    1  UNL1        0.0488
     29 C           5.0924   -3.0438   22.6340 C.ar    1  UNL1        0.0622
     30 CL          6.1282   -4.1289   22.6396 Cl      1  UNL1       -0.0821
     31 C           4.7474   -2.3298   23.9073 C.ar    1  UNL1        0.0305
     32 C           3.7117   -1.2448   23.9018 C.ar    1  UNL1        0.0824
     33 N           3.0211   -0.8738   22.6230 N.ar    1  UNL1       -0.2853
     34 C           1.9665    0.1464   22.3113 C.ar    1  UNL1        0.1326
     35 C           0.9108    1.2719   18.6711 C.3     1  UNL1        0.0067
     36 C           0.6630    0.9035   20.1038 C.3     1  UNL1        0.0475
@<TRIPOS>BOND
     1    35    36    1
     2    36    25    1
     3    25    26   ar
     4    26    27   ar
     5    27    28   ar
     6    28    29   ar
     7    29    30    1
     8    29    31   ar
     9    31    32   ar
    10    32    33   ar
    11    33    34   ar
    12    34    21    1
    13    21    22    2
    14    21    23   am
    15    23    20    1
    16    20     1    1
    17     1     2   ar
    18     2     3   ar
    19     3     4   ar
    20     4     7    1
    21     7     8    1
    22     8     9    1
    23     9    10    1
    24    10    13    1
    25    13    14   ar
    26    14    15   ar
    27    15    16   ar
    28    16    17    1
    29    16    18   ar
    30    18    19   ar
    31    10    11    1
    32    11    12    1
    33     4     5   ar
    34     5     6   ar
    35    34    25   ar
    36     6     1   ar
    37    33    27   ar
    38    12     7    1
    39    19    13   ar
    40    23    24    1
@<TRIPOS>MOLECULE
*****
 36 40 0 0 0
SMALL
GASTEIGER

@<TRIPOS>ATOM
      1 C           0.8151    1.4325   24.9346 C.ar    1  UNL1       -0.0025
      2 C           2.2778    1.4116   25.2659 C.ar    1  UNL1       -0.0014
      3 C           2.7219    1.2943   26.6939 C.ar    1  UNL1        0.0142
      4 C           1.7031    1.1977   27.7906 C.ar    1  UNL1        0.0478
      5 C           0.2404    1.2186   27.4593 C.ar    1  UNL1        0.0142
      6 C          -0.2037    1.3360   26.0314 C.ar    1  UNL1       -0.0014
      7 N           2.1472    1.0803   29.2185 N.pl3   1  UNL1       -0.3075
      8 C           3.0351   -0.0539   29.6370 C.3     1  UNL1        0.0911
      9 C           3.4792   -0.1712   31.0649 C.3     1  UNL1        0.0258
     10 C           3.0353    0.8456   32.0744 C.3     1  UNL1        0.0257
     11 C           2.1474    1.9798   31.6560 C.3     1  UNL1        0.0258
     12 C           1.7033    2.0972   30.2280 C.3     1  UNL1        0.0911
     13 C           3.4793    0.7282   33.5024 C.ar    1  UNL1       -0.0222
     14 C           4.2687   -0.4674   33.9465 C.ar    1  UNL1       -0.0020
     15 C           4.7128   -0.5848   35.3744 C.ar    1  UNL1        0.0293
     16 C           4.3674    0.4935   36.3583 C.ar    1  UNL1        0.1401
     17 F           4.8115    0.3762   37.7863 F       1  UNL1       -0.2042
     18 C           3.5781    1.6892   35.9142 C.ar    1  UNL1        0.0293
     19 C           3.1340    1.8065   34.4862 C.ar    1  UNL1       -0.0020
     20 C           0.3710    1.5499   23.5067 C.3     1  UNL1        0.1166
     21 C           0.8701    1.2298   20.9772 C.2     1  UNL1        0.2635
     22 O          -0.5916    1.3715   20.6709 O.2     1  UNL1       -0.2685
     23 N           1.3513    1.3190   22.3950 N.am    1  UNL1       -0.2957
     24 H           2.3105    1.2261   22.5960 H       1  UNL1        0.1501
     25 C           2.2175    1.9836   18.7951 C.ar    1  UNL1        0.0811
     26 N           3.2296    1.3361   17.8972 N.ar    1  UNL1       -0.2306
     27 C           3.4880   -0.0487   18.4126 C.ar    1  UNL1        0.1483
     28 C           4.3894   -1.1468   17.9313 C.ar    1  UNL1        0.0488
     29 C           4.4383   -2.4533   18.6666 C.ar    1  UNL1        0.0622
     30 CL          5.3397   -3.5515   18.1854 Cl      1  UNL1       -0.0821
     31 C           3.5858   -2.6616   19.8831 C.ar    1  UNL1        0.0305
     32 C           2.6845   -1.5635   20.3644 C.ar    1  UNL1        0.0824
     33 N           2.6356   -0.2570   19.6291 N.ar    1  UNL1       -0.2853
     34 C           1.8503    0.9990   19.8655 C.ar    1  UNL1        0.1326
     35 C           2.4790    4.4296   17.9593 C.3     1  UNL1        0.0067
     36 C           1.6688    3.3719   18.6485 C.3     1  UNL1        0.0475
@<TRIPOS>BOND
     1    35    36    1
     2    36    25    1
     3    25    26   ar
     4    26    27   ar
     5    27    28   ar
     6    28    29   ar
     7    29    30    1
     8    29    31   ar
     9    31    32   ar
    10    32    33   ar
    11    33    34   ar
    12    34    21    1
    13    21    22    2
    14    21    23   am
    15    23    20    1
    16    20     1    1
    17     1     2   ar
    18     2     3   ar
    19     3     4   ar
    20     4     7    1
    21     7     8    1
    22     8     9    1
    23     9    10    1
    24    10    13    1
    25    13    14   ar
    26    14    15   ar
    27    15    16   ar
    28    16    17    1
    29    16    18   ar
    30    18    19   ar
    31    10    11    1
    32    11    12    1
    33     4     5   ar
    34     5     6   ar
    35    34    25   ar
    36     6     1   ar
    37    33    27   ar
    38    12     7    1
    39    19    13   ar
    40    23    24    1
