@<TRIPOS>MOLECULE
*****
 23 24 0 0 0
SMALL
GASTEIGER

@<TRIPOS>ATOM
      1 C          -8.4317  -18.7914   21.3177 C.2     1  UNL1        0.1879
      2 O          -9.1798  -18.7550   20.0181 O.2     1  UNL1       -0.2899
      3 C          -6.9655  -19.1081   21.3304 C.ar    1  UNL1        0.0370
      4 C          -6.3997  -20.0808   20.3386 C.ar    1  UNL1        0.0042
      5 C          -4.9336  -20.3974   20.3514 C.ar    1  UNL1        0.0150
      6 C          -4.0333  -19.7413   21.3559 C.ar    1  UNL1        0.0522
      7 N          -2.5671  -20.0580   21.3687 N.pl3   1  UNL1       -0.3563
      8 C          -4.5991  -18.7686   22.3477 C.ar    1  UNL1        0.0706
      9 CL         -3.6988  -18.1126   23.3523 Cl      1  UNL1       -0.0810
     10 C          -6.0652  -18.4520   22.3350 C.ar    1  UNL1        0.0155
     11 H          -2.1957  -20.6964   20.7177 H       1  UNL1        0.1424
     12 H          -1.9762  -19.6274   22.0280 H       1  UNL1        0.1424
     13 C          -9.1497  -18.5112   22.6045 C.3     1  UNL1        0.1256
     14 C          -9.8832  -17.9380   23.7807 C.3     1  UNL1        0.0259
     15 C         -10.1121  -19.0438   24.7681 C.3     1  UNL1        0.0189
     16 C          -9.5200  -20.3004   24.2021 C.3     1  UNL1        0.0689
     17 N          -8.9252  -19.9712   22.8649 N.3     1  UNL1       -0.2918
     18 H          -9.3780  -20.5260   22.1386 H       1  UNL1        0.1236
     19 C          -9.2240  -17.1097   22.0751 C.3     1  UNL1        0.1637
     20 O         -10.5252  -16.3642   22.1065 O.3     1  UNL1       -0.3544
     21 C         -12.6792  -17.6274   21.3891 C.3     1  UNL1        0.0320
     22 C         -11.5806  -16.6538   21.0807 C.3     1  UNL1        0.1155
     23 C         -11.5374  -15.9697   19.7465 C.3     1  UNL1        0.0320
@<TRIPOS>BOND
     1    21    22    1
     2    22    23    1
     3    22    20    1
     4    20    19    1
     5    19    13    1
     6    13     1    1
     7     1     2    2
     8     1     3    1
     9     3     4   ar
    10     4     5   ar
    11     5     6   ar
    12     6     7    1
    13     6     8   ar
    14     8     9    1
    15     8    10   ar
    16    13    14    1
    17    14    15    1
    18    15    16    1
    19    16    17    1
    20    17    13    1
    21    10     3   ar
    22     7    11    1
    23     7    12    1
    24    17    18    1
@<TRIPOS>MOLECULE
*****
 23 24 0 0 0
SMALL
GASTEIGER

@<TRIPOS>ATOM
      1 C          -8.3853  -18.1966   22.0161 C.2     1  UNL1        0.1879
      2 O          -9.0965  -17.5411   20.8696 O.2     1  UNL1       -0.2899
      3 C          -6.9686  -18.6616   21.8526 C.ar    1  UNL1        0.0370
      4 C          -6.6349  -19.7037   20.8266 C.ar    1  UNL1        0.0042
      5 C          -5.2183  -20.1686   20.6631 C.ar    1  UNL1        0.0150
      6 C          -4.1352  -19.5916   21.5257 C.ar    1  UNL1        0.0522
      7 N          -2.7185  -20.0566   21.3622 N.pl3   1  UNL1       -0.3563
      8 C          -4.4689  -18.5496   22.5517 C.ar    1  UNL1        0.0706
      9 CL         -3.3858  -17.9725   23.4143 Cl      1  UNL1       -0.0810
     10 C          -5.8855  -18.0846   22.7152 C.ar    1  UNL1        0.0155
     11 H          -2.4995  -20.7406   20.6887 H       1  UNL1        0.1424
     12 H          -2.0076  -19.6779   21.9283 H       1  UNL1        0.1424
     13 C          -9.0908  -18.3871   23.3261 C.3     1  UNL1        0.1256
     14 C          -9.7919  -18.2642   24.6464 C.3     1  UNL1        0.0259
     15 C         -10.0986  -19.6475   25.1389 C.3     1  UNL1        0.0189
     16 C          -9.5870  -20.6253   24.1229 C.3     1  UNL1        0.0689
     17 N          -8.9641  -19.8463   23.0025 N.3     1  UNL1       -0.2918
     18 H          -9.4482  -20.0502   22.1282 H       1  UNL1        0.1236
     19 C          -9.0699  -16.8881   23.3757 C.3     1  UNL1        0.1637
     20 O          -9.2909  -16.1777   24.6782 O.3     1  UNL1       -0.3544
     21 C          -8.1798  -15.3847   26.8889 C.3     1  UNL1        0.0320
     22 C          -8.1320  -15.5557   25.3994 C.3     1  UNL1        0.1155
     23 C          -6.9252  -15.1048   24.6311 C.3     1  UNL1        0.0320
@<TRIPOS>BOND
     1    21    22    1
     2    22    23    1
     3    22    20    1
     4    20    19    1
     5    19    13    1
     6    13     1    1
     7     1     2    2
     8     1     3    1
     9     3     4   ar
    10     4     5   ar
    11     5     6   ar
    12     6     7    1
    13     6     8   ar
    14     8     9    1
    15     8    10   ar
    16    13    14    1
    17    14    15    1
    18    15    16    1
    19    16    17    1
    20    17    13    1
    21    10     3   ar
    22     7    11    1
    23     7    12    1
    24    17    18    1
@<TRIPOS>MOLECULE
*****
 23 24 0 0 0
SMALL
GASTEIGER

@<TRIPOS>ATOM
      1 C          -8.5211  -17.3364   22.7077 C.2     1  UNL1        0.1879
      2 O          -8.0487  -17.2367   21.2875 O.2     1  UNL1       -0.2899
      3 C          -7.8117  -16.5766   23.7892 C.ar    1  UNL1        0.0370
      4 C          -6.3918  -16.1365   23.5889 C.ar    1  UNL1        0.0042
      5 C          -5.6824  -15.3768   24.6703 C.ar    1  UNL1        0.0150
      6 C          -6.3930  -15.0572   25.9521 C.ar    1  UNL1        0.0522
      7 N          -5.6835  -14.2975   27.0336 N.pl3   1  UNL1       -0.3563
      8 C          -7.8129  -15.4973   26.1525 C.ar    1  UNL1        0.0706
      9 CL         -8.5234  -15.1777   27.4343 Cl      1  UNL1       -0.0810
     10 C          -8.5222  -16.2570   25.0710 C.ar    1  UNL1        0.0155
     11 H          -4.7516  -14.0086   26.9021 H       1  UNL1        0.1424
     12 H          -6.1499  -14.0877   27.8749 H       1  UNL1        0.1424
     13 C          -9.7029  -18.1958   23.0464 C.3     1  UNL1        0.1256
     14 C         -11.0505  -18.8011   23.3061 C.3     1  UNL1        0.0259
     15 C         -10.8430  -20.2112   23.7738 C.3     1  UNL1        0.0189
     16 C          -9.3671  -20.4773   23.8032 C.3     1  UNL1        0.0689
     17 N          -8.6625  -19.2317   23.3536 N.3     1  UNL1       -0.2918
     18 H          -8.1120  -19.4280   22.5176 H       1  UNL1        0.1236
     19 C         -10.4962  -16.9802   22.6684 C.3     1  UNL1        0.1637
     20 O         -11.6536  -17.1043   21.7224 O.3     1  UNL1       -0.3544
     21 C         -10.9328  -18.3491   19.5588 C.3     1  UNL1        0.0320
     22 C         -11.4153  -17.1037   20.2414 C.3     1  UNL1        0.1155
     23 C         -11.6596  -15.8574   19.4431 C.3     1  UNL1        0.0320
@<TRIPOS>BOND
     1    21    22    1
     2    22    23    1
     3    22    20    1
     4    20    19    1
     5    19    13    1
     6    13     1    1
     7     1     2    2
     8     1     3    1
     9     3     4   ar
    10     4     5   ar
    11     5     6   ar
    12     6     7    1
    13     6     8   ar
    14     8     9    1
    15     8    10   ar
    16    13    14    1
    17    14    15    1
    18    15    16    1
    19    16    17    1
    20    17    13    1
    21    10     3   ar
    22     7    11    1
    23     7    12    1
    24    17    18    1
@<TRIPOS>MOLECULE
*****
 23 24 0 0 0
SMALL
GASTEIGER

@<TRIPOS>ATOM
      1 C          -7.4233  -15.7654   23.3841 C.2     1  UNL1        0.1879
      2 O          -7.1699  -14.7317   22.3270 O.2     1  UNL1       -0.2899
      3 C          -8.3484  -16.9127   23.1048 C.ar    1  UNL1        0.0370
      4 C          -7.7886  -18.2574   22.7465 C.ar    1  UNL1        0.0042
      5 C          -8.7137  -19.4046   22.4672 C.ar    1  UNL1        0.0150
      6 C         -10.1986  -19.2071   22.5463 C.ar    1  UNL1        0.0522
      7 N         -11.1237  -20.3544   22.2670 N.pl3   1  UNL1       -0.3563
      8 C         -10.7583  -17.8624   22.9046 C.ar    1  UNL1        0.0706
      9 CL        -12.2432  -17.6649   22.9836 Cl      1  UNL1       -0.0810
     10 C          -9.8332  -16.7152   23.1838 C.ar    1  UNL1        0.0155
     11 H         -10.7563  -21.2370   22.0318 H       1  UNL1        0.1424
     12 H         -12.0982  -20.2248   22.3189 H       1  UNL1        0.1424
     13 C          -6.7516  -15.6517   24.7204 C.3     1  UNL1        0.1256
     14 C          -5.8157  -15.5578   25.8889 C.3     1  UNL1        0.0259
     15 C          -6.6412  -15.4289   27.1347 C.3     1  UNL1        0.0189
     16 C          -8.0872  -15.4431   26.7361 C.3     1  UNL1        0.0689
     17 N          -8.1554  -15.5808   25.2440 N.3     1  UNL1       -0.2918
     18 H          -8.6339  -14.7739   24.8435 H       1  UNL1        0.1236
     19 C          -5.4882  -15.7464   23.9174 C.3     1  UNL1        0.1637
     20 O          -4.4877  -16.8230   24.2174 O.3     1  UNL1       -0.3544
     21 C          -2.6586  -16.8272   22.3723 C.3     1  UNL1        0.0320
     22 C          -3.7757  -17.5191   23.0956 C.3     1  UNL1        0.1155
     23 C          -4.1810  -18.9073   22.6970 C.3     1  UNL1        0.0320
@<TRIPOS>BOND
     1    21    22    1
     2    22    23    1
     3    22    20    1
     4    20    19    1
     5    19    13    1
     6    13     1    1
     7     1     2    2
     8     1     3    1
     9     3     4   ar
    10     4     5   ar
    11     5     6   ar
    12     6     7    1
    13     6     8   ar
    14     8     9    1
    15     8    10   ar
    16    13    14    1
    17    14    15    1
    18    15    16    1
    19    16    17    1
    20    17    13    1
    21    10     3   ar
    22     7    11    1
    23     7    12    1
    24    17    18    1
@<TRIPOS>MOLECULE
*****
 23 24 0 0 0
SMALL
GASTEIGER

@<TRIPOS>ATOM
      1 C          -7.0959  -16.0506   23.5849 C.2     1  UNL1        0.1879
      2 O          -7.5998  -15.0330   22.6049 O.2     1  UNL1       -0.2899
      3 C          -6.0606  -17.0504   23.1623 C.ar    1  UNL1        0.0370
      4 C          -4.6243  -16.8504   23.5457 C.ar    1  UNL1        0.0042
      5 C          -3.5890  -17.8502   23.1231 C.ar    1  UNL1        0.0150
      6 C          -3.9901  -19.0500   22.3171 C.ar    1  UNL1        0.0522
      7 N          -2.9547  -20.0498   21.8944 N.pl3   1  UNL1       -0.3563
      8 C          -5.4264  -19.2500   21.9337 C.ar    1  UNL1        0.0706
      9 CL         -5.8274  -20.4498   21.1276 Cl      1  UNL1       -0.0810
     10 C          -6.4616  -18.2502   22.3563 C.ar    1  UNL1        0.0155
     11 H          -2.0120  -19.9185   22.1461 H       1  UNL1        0.1424
     12 H          -3.2179  -20.8373   21.3654 H       1  UNL1        0.1424
     13 C          -7.6272  -16.0685   24.9875 C.3     1  UNL1        0.1256
     14 C          -8.4079  -16.2240   26.2589 C.3     1  UNL1        0.0259
     15 C          -7.5867  -15.6580   27.3793 C.3     1  UNL1        0.0189
     16 C          -6.2985  -15.1527   26.8004 C.3     1  UNL1        0.0689
     17 N          -6.3236  -15.4064   25.3222 N.3     1  UNL1       -0.2918
     18 H          -5.5487  -16.0168   25.0625 H       1  UNL1        0.1236
     19 C          -8.8198  -16.7268   24.3596 C.3     1  UNL1        0.1637
     20 O          -9.5572  -17.8042   25.0982 O.3     1  UNL1       -0.3544
     21 C         -11.7984  -18.5154   23.9930 C.3     1  UNL1        0.0320
     22 C         -10.3697  -18.8120   24.3404 C.3     1  UNL1        0.1155
     23 C          -9.7533  -20.1165   23.9299 C.3     1  UNL1        0.0320
@<TRIPOS>BOND
     1    21    22    1
     2    22    23    1
     3    22    20    1
     4    20    19    1
     5    19    13    1
     6    13     1    1
     7     1     2    2
     8     1     3    1
     9     3     4   ar
    10     4     5   ar
    11     5     6   ar
    12     6     7    1
    13     6     8   ar
    14     8     9    1
    15     8    10   ar
    16    13    14    1
    17    14    15    1
    18    15    16    1
    19    16    17    1
    20    17    13    1
    21    10     3   ar
    22     7    11    1
    23     7    12    1
    24    17    18    1
@<TRIPOS>MOLECULE
*****
 23 24 0 0 0
SMALL
GASTEIGER

@<TRIPOS>ATOM
      1 C          -8.1529  -19.0008   21.0063 C.2     1  UNL1        0.1879
      2 O          -8.5042  -19.0132   19.5481 O.2     1  UNL1       -0.2899
      3 C          -9.2400  -18.9655   22.0394 C.ar    1  UNL1        0.0370
      4 C          -9.2021  -19.9142   23.2006 C.ar    1  UNL1        0.0042
      5 C         -10.2892  -19.8789   24.2336 C.ar    1  UNL1        0.0150
      6 C         -11.4141  -18.8950   24.1053 C.ar    1  UNL1        0.0522
      7 N         -12.5011  -18.8598   25.1384 N.pl3   1  UNL1       -0.3563
      8 C         -11.4520  -17.9464   22.9441 C.ar    1  UNL1        0.0706
      9 CL        -12.5769  -16.9624   22.8158 Cl      1  UNL1       -0.0810
     10 C         -10.3649  -17.9816   21.9111 C.ar    1  UNL1        0.0155
     11 H         -12.4763  -19.4824   25.9006 H       1  UNL1        0.1424
     12 H         -13.2395  -18.2140   25.0542 H       1  UNL1        0.1424
     13 C          -6.7147  -19.0235   21.4315 C.3     1  UNL1        0.1256
     14 C          -5.3626  -18.8109   22.0451 C.3     1  UNL1        0.0259
     15 C          -4.4154  -19.8008   21.4342 C.3     1  UNL1        0.0189
     16 C          -5.1822  -20.6251   20.4431 C.3     1  UNL1        0.0689
     17 N          -6.6033  -20.1448   20.4414 N.3     1  UNL1       -0.2918
     18 H          -7.2264  -20.9065   20.7094 H       1  UNL1        0.1236
     19 C          -7.1268  -17.8975   22.3328 C.3     1  UNL1        0.1637
     20 O          -6.0845  -17.0298   22.9735 O.3     1  UNL1       -0.3544
     21 C          -5.4508  -15.4073   24.9012 C.3     1  UNL1        0.0320
     22 C          -6.4847  -16.0064   23.9946 C.3     1  UNL1        0.1155
     23 C          -7.9189  -15.5822   24.1090 C.3     1  UNL1        0.0320
@<TRIPOS>BOND
     1    21    22    1
     2    22    23    1
     3    22    20    1
     4    20    19    1
     5    19    13    1
     6    13     1    1
     7     1     2    2
     8     1     3    1
     9     3     4   ar
    10     4     5   ar
    11     5     6   ar
    12     6     7    1
    13     6     8   ar
    14     8     9    1
    15     8    10   ar
    16    13    14    1
    17    14    15    1
    18    15    16    1
    19    16    17    1
    20    17    13    1
    21    10     3   ar
    22     7    11    1
    23     7    12    1
    24    17    18    1
@<TRIPOS>MOLECULE
*****
 23 24 0 0 0
SMALL
GASTEIGER

@<TRIPOS>ATOM
      1 C          -7.9040  -17.8236   22.0370 C.2     1  UNL1        0.1879
      2 O          -7.0800  -16.6018   22.3170 O.2     1  UNL1       -0.2899
      3 C          -9.3107  -17.9132   22.5500 C.ar    1  UNL1        0.0370
      4 C          -9.7551  -19.1260   23.3126 C.ar    1  UNL1        0.0042
      5 C         -11.1618  -19.2156   23.8256 C.ar    1  UNL1        0.0150
      6 C         -12.1241  -18.0924   23.5760 C.ar    1  UNL1        0.0522
      7 N         -13.5308  -18.1821   24.0890 N.pl3   1  UNL1       -0.3563
      8 C         -11.6797  -16.8796   22.8134 C.ar    1  UNL1        0.0706
      9 CL        -12.6420  -15.7564   22.5638 Cl      1  UNL1       -0.0810
     10 C         -10.2730  -16.7900   22.3004 C.ar    1  UNL1        0.0155
     11 H         -13.8225  -18.9781   24.5895 H       1  UNL1        0.1424
     12 H         -14.1624  -17.4449   23.9252 H       1  UNL1        0.1424
     13 C          -7.3213  -18.9556   21.2441 C.3     1  UNL1        0.1256
     14 C          -6.5189  -20.0880   20.6749 C.3     1  UNL1        0.0259
     15 C          -7.1956  -20.5500   19.4185 C.3     1  UNL1        0.0189
     16 C          -8.4162  -19.7032   19.2111 C.3     1  UNL1        0.0689
     17 N          -8.4939  -18.7178   20.3394 N.3     1  UNL1       -0.2918
     18 H          -9.3628  -18.8516   20.8566 H       1  UNL1        0.1236
     19 C          -6.2705  -18.9568   22.3145 C.3     1  UNL1        0.1637
     20 O          -5.0006  -19.7306   22.1181 O.3     1  UNL1       -0.3544
     21 C          -3.5747  -17.8525   23.2089 C.3     1  UNL1        0.0320
     22 C          -3.6745  -19.0612   22.3263 C.3     1  UNL1        0.1155
     23 C          -2.4481  -19.6006   21.6517 C.3     1  UNL1        0.0320
@<TRIPOS>BOND
     1    21    22    1
     2    22    23    1
     3    22    20    1
     4    20    19    1
     5    19    13    1
     6    13     1    1
     7     1     2    2
     8     1     3    1
     9     3     4   ar
    10     4     5   ar
    11     5     6   ar
    12     6     7    1
    13     6     8   ar
    14     8     9    1
    15     8    10   ar
    16    13    14    1
    17    14    15    1
    18    15    16    1
    19    16    17    1
    20    17    13    1
    21    10     3   ar
    22     7    11    1
    23     7    12    1
    24    17    18    1
@<TRIPOS>MOLECULE
*****
 23 24 0 0 0
SMALL
GASTEIGER

@<TRIPOS>ATOM
      1 C          -7.6679  -17.1040   22.5487 C.2     1  UNL1        0.1879
      2 O          -7.0999  -15.7211   22.6716 O.2     1  UNL1       -0.2899
      3 C          -9.1148  -17.3507   22.8578 C.ar    1  UNL1        0.0370
      4 C          -9.4958  -18.2541   23.9930 C.ar    1  UNL1        0.0042
      5 C         -10.9427  -18.5008   24.3020 C.ar    1  UNL1        0.0150
      6 C         -12.0086  -17.8441   23.4759 C.ar    1  UNL1        0.0522
      7 N         -13.4556  -18.0909   23.7850 N.pl3   1  UNL1       -0.3563
      8 C         -11.6277  -16.9407   22.3407 C.ar    1  UNL1        0.0706
      9 CL        -12.6936  -16.2840   21.5146 Cl      1  UNL1       -0.0810
     10 C         -10.1808  -16.6940   22.0317 C.ar    1  UNL1        0.0155
     11 H         -13.7056  -18.6838   24.5301 H       1  UNL1        0.1424
     12 H         -14.1552  -17.6599   23.2428 H       1  UNL1        0.1424
     13 C          -6.7889  -18.2400   22.1166 C.3     1  UNL1        0.1256
     14 C          -6.1675  -19.4755   21.5358 C.3     1  UNL1        0.0259
     15 C          -4.7352  -19.5261   21.9786 C.3     1  UNL1        0.0189
     16 C          -4.4715  -18.3218   22.8331 C.3     1  UNL1        0.0689
     17 N          -5.7407  -17.5270   22.9184 N.3     1  UNL1       -0.2918
     18 H          -5.5902  -16.5926   22.5382 H       1  UNL1        0.1236
     19 C          -8.0209  -18.7155   21.4051 C.3     1  UNL1        0.1637
     20 O          -7.9731  -19.0037   19.9339 O.3     1  UNL1       -0.3544
     21 C         -10.5361  -19.2954   19.6235 C.3     1  UNL1        0.0320
     22 C          -9.1318  -19.6813   19.2642 C.3     1  UNL1        0.1155
     23 C          -8.8861  -20.7447   18.2353 C.3     1  UNL1        0.0320
@<TRIPOS>BOND
     1    21    22    1
     2    22    23    1
     3    22    20    1
     4    20    19    1
     5    19    13    1
     6    13     1    1
     7     1     2    2
     8     1     3    1
     9     3     4   ar
    10     4     5   ar
    11     5     6   ar
    12     6     7    1
    13     6     8   ar
    14     8     9    1
    15     8    10   ar
    16    13    14    1
    17    14    15    1
    18    15    16    1
    19    16    17    1
    20    17    13    1
    21    10     3   ar
    22     7    11    1
    23     7    12    1
    24    17    18    1
@<TRIPOS>MOLECULE
*****
 23 24 0 0 0
SMALL
GASTEIGER

@<TRIPOS>ATOM
      1 C          -5.7613  -19.3435   21.6901 C.2     1  UNL1        0.1879
      2 O          -6.3160  -20.7362   21.7425 O.2     1  UNL1       -0.2899
      3 C          -4.3818  -19.1054   21.1512 C.ar    1  UNL1        0.0370
      4 C          -3.1884  -19.6524   21.8769 C.ar    1  UNL1        0.0042
      5 C          -1.8090  -19.4143   21.3379 C.ar    1  UNL1        0.0150
      6 C          -1.6229  -18.6293   20.0734 C.ar    1  UNL1        0.0522
      7 N          -0.2434  -18.3912   19.5345 N.pl3   1  UNL1       -0.3563
      8 C          -2.8163  -18.0823   19.3478 C.ar    1  UNL1        0.0706
      9 CL         -2.6303  -17.2972   18.0832 Cl      1  UNL1       -0.0810
     10 C          -4.1957  -18.3204   19.8867 C.ar    1  UNL1        0.0155
     11 H           0.5399  -18.7502   20.0108 H       1  UNL1        0.1424
     12 H          -0.1213  -17.8759   18.7045 H       1  UNL1        0.1424
     13 C          -6.5860  -18.1889   22.1766 C.3     1  UNL1        0.1256
     14 C          -7.6370  -17.1656   22.4900 C.3     1  UNL1        0.0259
     15 C          -7.0321  -16.1466   23.4097 C.3     1  UNL1        0.0189
     16 C          -5.6073  -16.5402   23.6646 C.3     1  UNL1        0.0689
     17 N          -5.3316  -17.8024   22.9025 N.3     1  UNL1       -0.2918
     18 H          -5.0626  -18.5448   23.5481 H       1  UNL1        0.1236
     19 C          -7.6680  -18.8168   21.3489 C.3     1  UNL1        0.1637
     20 O          -9.0987  -18.4166   21.5563 O.3     1  UNL1       -0.3544
     21 C         -11.0374  -20.0843   22.0152 C.3     1  UNL1        0.0320
     22 C         -10.2043  -19.2946   21.0496 C.3     1  UNL1        0.1155
     23 C         -10.4767  -19.3829   19.5772 C.3     1  UNL1        0.0320
@<TRIPOS>BOND
     1    21    22    1
     2    22    23    1
     3    22    20    1
     4    20    19    1
     5    19    13    1
     6    13     1    1
     7     1     2    2
     8     1     3    1
     9     3     4   ar
    10     4     5   ar
    11     5     6   ar
    12     6     7    1
    13     6     8   ar
    14     8     9    1
    15     8    10   ar
    16    13    14    1
    17    14    15    1
    18    15    16    1
    19    16    17    1
    20    17    13    1
    21    10     3   ar
    22     7    11    1
    23     7    12    1
    24    17    18    1
