@<TRIPOS>MOLECULE
*****
 21 23 0 0 0
SMALL
GASTEIGER

@<TRIPOS>ATOM
      1 C          -5.9892  -19.6277   21.5503 C.3     1  UNL1        0.0591
      2 C          -5.0427  -18.6284   22.1467 C.3     1  UNL1        0.0418
      3 C          -5.5687  -17.5178   23.0070 C.ar    1  UNL1       -0.0245
      4 C          -4.6223  -16.5186   23.6033 C.ar    1  UNL1       -0.0045
      5 C          -5.1482  -15.4081   24.4636 C.ar    1  UNL1       -0.0003
      6 C          -6.6206  -15.2968   24.7275 C.ar    1  UNL1       -0.0003
      7 C          -7.5671  -16.2961   24.1312 C.ar    1  UNL1       -0.0043
      8 C          -7.0411  -17.4066   23.2709 C.ar    1  UNL1       -0.0223
      9 C          -7.9876  -18.4060   22.6745 C.3     1  UNL1        0.0456
     10 C          -7.4616  -19.5165   21.8142 C.3     1  UNL1        0.0248
     11 C          -9.4600  -18.2947   22.9384 C.ar    1  UNL1       -0.0175
     12 C         -10.0432  -18.8759   24.1923 C.ar    1  UNL1       -0.0030
     13 C         -11.5156  -18.7646   24.4562 C.ar    1  UNL1        0.0119
     14 C         -12.4048  -18.0723   23.4662 C.ar    1  UNL1        0.0682
     15 CL        -13.8772  -17.9610   23.7301 Cl      1  UNL1       -0.0814
     16 C         -11.8216  -17.4912   22.2124 C.ar    1  UNL1        0.0679
     17 CL        -12.7108  -16.7988   21.2224 Cl      1  UNL1       -0.0814
     18 C         -10.3491  -17.6024   21.9485 C.ar    1  UNL1        0.0083
     19 C          -4.1404  -20.5893   19.9988 C.3     1  UNL1        0.0859
     20 N          -5.4632  -20.7383   20.6900 N.3     1  UNL1       -0.2971
     21 H          -5.3932  -21.5638   21.2850 H       1  UNL1        0.1233
@<TRIPOS>BOND
     1    19    20    1
     2     1    20    1
     3     1     2    1
     4     2     3    1
     5     3     4   ar
     6     4     5   ar
     7     5     6   ar
     8     6     7   ar
     9     7     8   ar
    10     8     9    1
    11     9    11    1
    12    11    12   ar
    13    12    13   ar
    14    13    14   ar
    15    14    15    1
    16    14    16   ar
    17    16    17    1
    18    16    18   ar
    19     9    10    1
    20    10     1    1
    21     8     3   ar
    22    18    11   ar
    23    20    21    1
@<TRIPOS>MOLECULE
*****
 21 23 0 0 0
SMALL
GASTEIGER

@<TRIPOS>ATOM
      1 C         -12.0909  -17.9338   22.4595 C.3     1  UNL1        0.0591
      2 C         -11.7110  -18.7322   21.2478 C.3     1  UNL1        0.0418
      3 C         -10.2669  -18.8799   20.8695 C.ar    1  UNL1       -0.0245
      4 C          -9.8870  -19.6783   19.6578 C.ar    1  UNL1       -0.0045
      5 C          -8.4431  -19.8260   19.2795 C.ar    1  UNL1       -0.0003
      6 C          -7.3791  -19.1753   20.1129 C.ar    1  UNL1       -0.0003
      7 C          -7.7590  -18.3770   21.3246 C.ar    1  UNL1       -0.0043
      8 C          -9.2029  -18.2293   21.7028 C.ar    1  UNL1       -0.0223
      9 C          -9.5830  -17.4308   22.9146 C.3     1  UNL1        0.0456
     10 C         -11.0269  -17.2831   23.2929 C.3     1  UNL1        0.0248
     11 C          -8.5189  -16.7802   23.7480 C.ar    1  UNL1       -0.0175
     12 C          -7.2111  -16.3916   23.1246 C.ar    1  UNL1       -0.0030
     13 C          -6.1470  -15.7409   23.9580 C.ar    1  UNL1        0.0119
     14 C          -6.3909  -15.4789   25.4147 C.ar    1  UNL1        0.0682
     15 CL         -5.3269  -14.8282   26.2481 Cl      1  UNL1       -0.0814
     16 C          -7.6988  -15.8675   26.0380 C.ar    1  UNL1        0.0679
     17 CL         -7.9427  -15.6054   27.4947 Cl      1  UNL1       -0.0814
     18 C          -8.7628  -16.5181   25.2046 C.ar    1  UNL1        0.0083
     19 C         -13.9848  -18.1270   24.2275 C.3     1  UNL1        0.0859
     20 N         -13.5349  -17.7860   22.8378 N.3     1  UNL1       -0.2971
     21 H         -13.7823  -16.8092   22.6796 H       1  UNL1        0.1233
@<TRIPOS>BOND
     1    19    20    1
     2     1    20    1
     3     1     2    1
     4     2     3    1
     5     3     4   ar
     6     4     5   ar
     7     5     6   ar
     8     6     7   ar
     9     7     8   ar
    10     8     9    1
    11     9    11    1
    12    11    12   ar
    13    12    13   ar
    14    13    14   ar
    15    14    15    1
    16    14    16   ar
    17    16    17    1
    18    16    18   ar
    19     9    10    1
    20    10     1    1
    21     8     3   ar
    22    18    11   ar
    23    20    21    1
@<TRIPOS>MOLECULE
*****
 21 23 0 0 0
SMALL
GASTEIGER

@<TRIPOS>ATOM
      1 C          -5.6062  -16.2476   23.9195 C.3     1  UNL1        0.0591
      2 C          -4.6550  -17.2130   23.2769 C.3     1  UNL1        0.0418
      3 C          -5.1787  -18.3064   22.3935 C.ar    1  UNL1       -0.0245
      4 C          -4.2275  -19.2718   21.7509 C.ar    1  UNL1       -0.0045
      5 C          -4.7512  -20.3651   20.8676 C.ar    1  UNL1       -0.0003
      6 C          -6.2263  -20.4929   20.6268 C.ar    1  UNL1       -0.0003
      7 C          -7.1775  -19.5275   21.2694 C.ar    1  UNL1       -0.0043
      8 C          -6.6537  -18.4342   22.1527 C.ar    1  UNL1       -0.0223
      9 C          -7.6050  -17.4686   22.7953 C.3     1  UNL1        0.0456
     10 C          -7.0812  -16.3754   23.6787 C.3     1  UNL1        0.0248
     11 C          -9.0800  -17.5965   22.5546 C.ar    1  UNL1       -0.0175
     12 C          -9.8989  -18.5310   23.3950 C.ar    1  UNL1       -0.0030
     13 C         -11.3740  -18.6588   23.1542 C.ar    1  UNL1        0.0119
     14 C         -12.0301  -17.8521   22.0730 C.ar    1  UNL1        0.0682
     15 CL        -13.5051  -17.9799   21.8322 Cl      1  UNL1       -0.0814
     16 C         -11.2112  -16.9176   21.2327 C.ar    1  UNL1        0.0679
     17 CL        -11.8673  -16.1109   20.1515 Cl      1  UNL1       -0.0814
     18 C          -9.7361  -16.7898   21.4735 C.ar    1  UNL1        0.0083
     19 C          -5.5309  -15.0647   26.2315 C.3     1  UNL1        0.0859
     20 N          -5.0825  -15.1542   24.8029 N.3     1  UNL1       -0.2971
     21 H          -4.0670  -15.2493   24.8185 H       1  UNL1        0.1233
@<TRIPOS>BOND
     1    19    20    1
     2     1    20    1
     3     1     2    1
     4     2     3    1
     5     3     4   ar
     6     4     5   ar
     7     5     6   ar
     8     6     7   ar
     9     7     8   ar
    10     8     9    1
    11     9    11    1
    12    11    12   ar
    13    12    13   ar
    14    13    14   ar
    15    14    15    1
    16    14    16   ar
    17    16    17    1
    18    16    18   ar
    19     9    10    1
    20    10     1    1
    21     8     3   ar
    22    18    11   ar
    23    20    21    1
@<TRIPOS>MOLECULE
*****
 21 23 0 0 0
SMALL
GASTEIGER

@<TRIPOS>ATOM
      1 C         -10.4999  -17.8201   20.5357 C.3     1  UNL1        0.0591
      2 C          -9.6781  -18.8821   19.8675 C.3     1  UNL1        0.0418
      3 C          -8.3426  -19.2642   20.4336 C.ar    1  UNL1       -0.0245
      4 C          -7.5207  -20.3262   19.7654 C.ar    1  UNL1       -0.0045
      5 C          -6.1853  -20.7082   20.3316 C.ar    1  UNL1       -0.0003
      6 C          -5.6716  -20.0281   21.5659 C.ar    1  UNL1       -0.0003
      7 C          -6.4934  -18.9660   22.2341 C.ar    1  UNL1       -0.0043
      8 C          -7.8289  -18.5841   21.6680 C.ar    1  UNL1       -0.0223
      9 C          -8.6508  -17.5219   22.3362 C.3     1  UNL1        0.0456
     10 C          -9.9863  -17.1400   21.7700 C.3     1  UNL1        0.0248
     11 C          -8.1372  -16.8418   23.5705 C.ar    1  UNL1       -0.0175
     12 C          -7.0158  -15.8507   23.4692 C.ar    1  UNL1       -0.0030
     13 C          -6.5021  -15.1706   24.7036 C.ar    1  UNL1        0.0119
     14 C          -7.1099  -15.4816   26.0392 C.ar    1  UNL1        0.0682
     15 CL         -6.5963  -14.8015   27.2736 Cl      1  UNL1       -0.0814
     16 C          -8.2313  -16.4726   26.1405 C.ar    1  UNL1        0.0679
     17 CL         -8.8390  -16.7836   27.4762 Cl      1  UNL1       -0.0814
     18 C          -8.7449  -17.1528   24.9062 C.ar    1  UNL1        0.0083
     19 C         -12.5970  -16.2864   20.5559 C.3     1  UNL1        0.0859
     20 N         -11.8355  -17.4380   19.9695 N.3     1  UNL1       -0.2971
     21 H         -11.6864  -17.2213   18.9840 H       1  UNL1        0.1233
@<TRIPOS>BOND
     1    19    20    1
     2     1    20    1
     3     1     2    1
     4     2     3    1
     5     3     4   ar
     6     4     5   ar
     7     5     6   ar
     8     6     7   ar
     9     7     8   ar
    10     8     9    1
    11     9    11    1
    12    11    12   ar
    13    12    13   ar
    14    13    14   ar
    15    14    15    1
    16    14    16   ar
    17    16    17    1
    18    16    18   ar
    19     9    10    1
    20    10     1    1
    21     8     3   ar
    22    18    11   ar
    23    20    21    1
@<TRIPOS>MOLECULE
*****
 21 23 0 0 0
SMALL
GASTEIGER

@<TRIPOS>ATOM
      1 C          -7.7869  -15.9009   24.5922 C.3     1  UNL1        0.0591
      2 C          -9.2383  -16.2784   24.6230 C.3     1  UNL1        0.0418
      3 C          -9.7409  -17.3966   23.7586 C.ar    1  UNL1       -0.0245
      4 C         -11.1923  -17.7742   23.7895 C.ar    1  UNL1       -0.0045
      5 C         -11.6948  -18.8922   22.9251 C.ar    1  UNL1       -0.0003
      6 C         -10.7461  -19.6328   22.0298 C.ar    1  UNL1       -0.0003
      7 C          -9.2947  -19.2552   21.9990 C.ar    1  UNL1       -0.0043
      8 C          -8.7922  -18.1371   22.8634 C.ar    1  UNL1       -0.0223
      9 C          -7.3407  -17.7595   22.8325 C.3     1  UNL1        0.0456
     10 C          -6.8381  -16.6414   23.6969 C.3     1  UNL1        0.0248
     11 C          -6.3920  -18.5000   21.9373 C.ar    1  UNL1       -0.0175
     12 C          -6.8616  -19.0151   20.6090 C.ar    1  UNL1       -0.0030
     13 C          -5.9128  -19.7556   19.7138 C.ar    1  UNL1        0.0119
     14 C          -4.4945  -19.9811   20.1468 C.ar    1  UNL1        0.0682
     15 CL         -3.5457  -20.7216   19.2515 Cl      1  UNL1       -0.0814
     16 C          -4.0249  -19.4661   21.4750 C.ar    1  UNL1        0.0679
     17 CL         -2.6065  -19.6916   21.9081 Cl      1  UNL1       -0.0814
     18 C          -4.9737  -18.7255   22.3703 C.ar    1  UNL1        0.0083
     19 C          -6.2716  -15.0600   26.5279 C.3     1  UNL1        0.0859
     20 N          -7.2843  -14.7827   25.4566 N.3     1  UNL1       -0.2971
     21 H          -6.8701  -14.0909   24.8319 H       1  UNL1        0.1233
@<TRIPOS>BOND
     1    19    20    1
     2     1    20    1
     3     1     2    1
     4     2     3    1
     5     3     4   ar
     6     4     5   ar
     7     5     6   ar
     8     6     7   ar
     9     7     8   ar
    10     8     9    1
    11     9    11    1
    12    11    12   ar
    13    12    13   ar
    14    13    14   ar
    15    14    15    1
    16    14    16   ar
    17    16    17    1
    18    16    18   ar
    19     9    10    1
    20    10     1    1
    21     8     3   ar
    22    18    11   ar
    23    20    21    1
@<TRIPOS>MOLECULE
*****
 21 23 0 0 0
SMALL
GASTEIGER

@<TRIPOS>ATOM
      1 C          -9.0335  -16.2858   23.8083 C.3     1  UNL1        0.0591
      2 C         -10.2394  -16.7017   23.0192 C.3     1  UNL1        0.0418
      3 C         -10.0987  -17.6892   21.8989 C.ar    1  UNL1       -0.0245
      4 C         -11.3046  -18.1052   21.1098 C.ar    1  UNL1       -0.0045
      5 C         -11.1638  -19.0927   19.9896 C.ar    1  UNL1       -0.0003
      6 C          -9.8171  -19.6642   19.6584 C.ar    1  UNL1       -0.0003
      7 C          -8.6111  -19.2483   20.4476 C.ar    1  UNL1       -0.0043
      8 C          -8.7519  -18.2608   21.5678 C.ar    1  UNL1       -0.0223
      9 C          -7.5460  -17.8449   22.3570 C.3     1  UNL1        0.0456
     10 C          -7.6868  -16.8573   23.4772 C.3     1  UNL1        0.0248
     11 C          -6.1993  -18.4164   22.0258 C.ar    1  UNL1       -0.0175
     12 C          -6.0792  -19.5125   21.0087 C.ar    1  UNL1       -0.0030
     13 C          -4.7325  -20.0840   20.6776 C.ar    1  UNL1        0.0119
     14 C          -3.5058  -19.5596   21.3636 C.ar    1  UNL1        0.0682
     15 CL         -2.1591  -20.1312   21.0325 Cl      1  UNL1       -0.0814
     16 C          -3.6260  -18.4637   22.3806 C.ar    1  UNL1        0.0679
     17 CL         -2.3994  -17.9393   23.0666 Cl      1  UNL1       -0.0814
     18 C          -4.9727  -17.8921   22.7117 C.ar    1  UNL1        0.0083
     19 C          -8.3861  -15.4797   26.1919 C.3     1  UNL1        0.0859
     20 N          -9.1743  -15.2982   24.9286 N.3     1  UNL1       -0.2971
     21 H          -8.9188  -14.3859   24.5507 H       1  UNL1        0.1233
@<TRIPOS>BOND
     1    19    20    1
     2     1    20    1
     3     1     2    1
     4     2     3    1
     5     3     4   ar
     6     4     5   ar
     7     5     6   ar
     8     6     7   ar
     9     7     8   ar
    10     8     9    1
    11     9    11    1
    12    11    12   ar
    13    12    13   ar
    14    13    14   ar
    15    14    15    1
    16    14    16   ar
    17    16    17    1
    18    16    18   ar
    19     9    10    1
    20    10     1    1
    21     8     3   ar
    22    18    11   ar
    23    20    21    1
@<TRIPOS>MOLECULE
*****
 21 23 0 0 0
SMALL
GASTEIGER

@<TRIPOS>ATOM
      1 C         -11.9354   -7.2292   18.4429 C.3     1  UNL1        0.0591
      2 C         -11.8692   -5.8245   18.9645 C.3     1  UNL1        0.0418
      3 C         -13.1251   -5.1210   19.3864 C.ar    1  UNL1       -0.0245
      4 C         -13.0589   -3.7163   19.9080 C.ar    1  UNL1       -0.0045
      5 C         -14.3148   -3.0129   20.3299 C.ar    1  UNL1       -0.0003
      6 C         -15.6369   -3.7143   20.2301 C.ar    1  UNL1       -0.0003
      7 C         -15.7032   -5.1191   19.7084 C.ar    1  UNL1       -0.0043
      8 C         -14.4473   -5.8225   19.2866 C.ar    1  UNL1       -0.0223
      9 C         -14.5135   -7.2273   18.7650 C.3     1  UNL1        0.0456
     10 C         -13.2576   -7.9307   18.3431 C.3     1  UNL1        0.0248
     11 C         -15.8356   -7.9288   18.6652 C.ar    1  UNL1       -0.0175
     12 C         -16.3810   -8.6729   19.8480 C.ar    1  UNL1       -0.0030
     13 C         -17.7031   -9.3744   19.7482 C.ar    1  UNL1        0.0119
     14 C         -18.4799   -9.3317   18.4656 C.ar    1  UNL1        0.0682
     15 CL        -19.8020  -10.0331   18.3658 Cl      1  UNL1       -0.0814
     16 C         -17.9345   -8.5876   17.2829 C.ar    1  UNL1        0.0679
     17 CL        -18.7112   -8.5449   16.0003 Cl      1  UNL1       -0.0814
     18 C         -16.6123   -7.8861   17.3827 C.ar    1  UNL1        0.0083
     19 C          -9.3841   -7.6365   18.7169 C.3     1  UNL1        0.0859
     20 N         -10.6795   -7.9327   18.0210 N.3     1  UNL1       -0.2971
     21 H         -10.8508   -8.9322   18.1306 H       1  UNL1        0.1233
@<TRIPOS>BOND
     1    19    20    1
     2     1    20    1
     3     1     2    1
     4     2     3    1
     5     3     4   ar
     6     4     5   ar
     7     5     6   ar
     8     6     7   ar
     9     7     8   ar
    10     8     9    1
    11     9    11    1
    12    11    12   ar
    13    12    13   ar
    14    13    14   ar
    15    14    15    1
    16    14    16   ar
    17    16    17    1
    18    16    18   ar
    19     9    10    1
    20    10     1    1
    21     8     3   ar
    22    18    11   ar
    23    20    21    1
@<TRIPOS>MOLECULE
*****
 21 23 0 0 0
SMALL
GASTEIGER

@<TRIPOS>ATOM
      1 C         -13.6053   -3.0842   18.9766 C.3     1  UNL1        0.0591
      2 C         -12.1089   -3.1743   19.0260 C.3     1  UNL1        0.0418
      3 C         -11.4363   -4.5144   18.9808 C.ar    1  UNL1       -0.0245
      4 C          -9.9399   -4.6045   19.0301 C.ar    1  UNL1       -0.0045
      5 C          -9.2673   -5.9445   18.9849 C.ar    1  UNL1       -0.0003
      6 C         -10.0913   -7.1944   18.8904 C.ar    1  UNL1       -0.0003
      7 C         -11.5877   -7.1043   18.8411 C.ar    1  UNL1       -0.0043
      8 C         -12.2602   -5.7643   18.8863 C.ar    1  UNL1       -0.0223
      9 C         -13.7568   -5.6741   18.8369 C.3     1  UNL1        0.0456
     10 C         -14.4293   -4.3341   18.8821 C.3     1  UNL1        0.0248
     11 C         -14.5807   -6.9240   18.7424 C.ar    1  UNL1       -0.0175
     12 C         -14.1695   -8.0246   17.8098 C.ar    1  UNL1       -0.0030
     13 C         -14.9934   -9.2745   17.7153 C.ar    1  UNL1        0.0119
     14 C         -16.2285   -9.4238   18.5534 C.ar    1  UNL1        0.0682
     15 CL        -17.0525  -10.6737   18.4589 Cl      1  UNL1       -0.0814
     16 C         -16.6397   -8.3232   19.4859 C.ar    1  UNL1        0.0679
     17 CL        -17.8748   -8.4725   20.3240 Cl      1  UNL1       -0.0814
     18 C         -15.8157   -7.0733   19.5804 C.ar    1  UNL1        0.0083
     19 C         -15.5691   -1.5778   19.7669 C.3     1  UNL1        0.0859
     20 N         -14.2779   -1.7442   19.0218 N.3     1  UNL1       -0.2971
     21 H         -13.6116   -1.0942   19.4387 H       1  UNL1        0.1233
@<TRIPOS>BOND
     1    19    20    1
     2     1    20    1
     3     1     2    1
     4     2     3    1
     5     3     4   ar
     6     4     5   ar
     7     5     6   ar
     8     6     7   ar
     9     7     8   ar
    10     8     9    1
    11     9    11    1
    12    11    12   ar
    13    12    13   ar
    14    13    14   ar
    15    14    15    1
    16    14    16   ar
    17    16    17    1
    18    16    18   ar
    19     9    10    1
    20    10     1    1
    21     8     3   ar
    22    18    11   ar
    23    20    21    1
@<TRIPOS>MOLECULE
*****
 21 23 0 0 0
SMALL
GASTEIGER

@<TRIPOS>ATOM
      1 C          -4.9739  -16.2417   23.9054 C.3     1  UNL1        0.0591
      2 C          -3.7010  -16.8467   23.3917 C.3     1  UNL1        0.0418
      3 C          -3.7513  -18.0242   22.4637 C.ar    1  UNL1       -0.0245
      4 C          -2.4785  -18.6291   21.9501 C.ar    1  UNL1       -0.0045
      5 C          -2.5288  -19.8065   21.0221 C.ar    1  UNL1       -0.0003
      6 C          -3.8519  -20.3790   20.6079 C.ar    1  UNL1       -0.0003
      7 C          -5.1247  -19.7740   21.1215 C.ar    1  UNL1       -0.0043
      8 C          -5.0744  -18.5966   22.0495 C.ar    1  UNL1       -0.0223
      9 C          -6.3473  -17.9916   22.5632 C.3     1  UNL1        0.0456
     10 C          -6.2970  -16.8142   23.4911 C.3     1  UNL1        0.0248
     11 C          -7.6704  -18.5641   22.1489 C.ar    1  UNL1       -0.0175
     12 C          -7.9987  -18.7172   20.6933 C.ar    1  UNL1       -0.0030
     13 C          -9.3218  -19.2896   20.2790 C.ar    1  UNL1        0.0119
     14 C         -10.3167  -19.7090   21.3204 C.ar    1  UNL1        0.0682
     15 CL        -11.6398  -20.2814   20.9061 Cl      1  UNL1       -0.0814
     16 C          -9.9884  -19.5558   22.7760 C.ar    1  UNL1        0.0679
     17 CL        -10.9833  -19.9752   23.8174 Cl      1  UNL1       -0.0814
     18 C          -8.6653  -18.9834   23.1902 C.ar    1  UNL1        0.0083
     19 C          -5.6509  -15.1109   26.1444 C.3     1  UNL1        0.0859
     20 N          -4.9236  -15.0642   24.8334 N.3     1  UNL1       -0.2971
     21 H          -3.9400  -14.9003   25.0480 H       1  UNL1        0.1233
@<TRIPOS>BOND
     1    19    20    1
     2     1    20    1
     3     1     2    1
     4     2     3    1
     5     3     4   ar
     6     4     5   ar
     7     5     6   ar
     8     6     7   ar
     9     7     8   ar
    10     8     9    1
    11     9    11    1
    12    11    12   ar
    13    12    13   ar
    14    13    14   ar
    15    14    15    1
    16    14    16   ar
    17    16    17    1
    18    16    18   ar
    19     9    10    1
    20    10     1    1
    21     8     3   ar
    22    18    11   ar
    23    20    21    1
