@<TRIPOS>MOLECULE
*****
 32 35 0 0 0
SMALL
GASTEIGER

@<TRIPOS>ATOM
      1 N           6.4845   -5.2543   25.8031 N.am    1  UNL1       -0.2806
      2 C           7.2224   -4.3565   24.8547 C.2     1  UNL1        0.2495
      3 O           8.5588   -3.7947   25.2400 O.2     1  UNL1       -0.2698
      4 H           5.6074   -5.6230   25.5502 H       1  UNL1        0.1552
      5 C           7.9619   -7.8385   26.1760 C.3     1  UNL1        0.0323
      6 C           7.8218   -6.8824   27.3233 C.ar    1  UNL1       -0.0087
      7 C           8.4203   -7.2185   28.6570 C.ar    1  UNL1       -0.0072
      8 C           8.2801   -6.2624   29.8043 C.ar    1  UNL1       -0.0192
      9 C           8.8787   -6.5984   31.1381 C.3     1  UNL1        0.0311
     10 C           7.5415   -4.9703   29.6179 C.ar    1  UNL1        0.0312
     11 C           6.9430   -4.6343   28.2841 C.ar    1  UNL1        0.0170
     12 C           7.0831   -5.5903   27.1369 C.ar    1  UNL1        0.0466
     13 C           7.4013   -4.0142   30.7651 C.ar    1  UNL1        0.1403
     14 N           8.4213   -3.0044   31.2010 N.ar    1  UNL1       -0.2254
     15 C           7.8669   -2.2661   32.3832 C.ar    1  UNL1        0.1189
     16 C           6.5043   -2.8196   32.6780 C.ar    1  UNL1        0.0945
     17 N           6.2166   -3.9000   31.6780 N.ar    1  UNL1       -0.3361
     18 H           5.3944   -4.4394   31.6293 H       1  UNL1        0.1674
     19 C           6.6238   -4.0204   23.5209 C.ar    1  UNL1        0.0539
     20 C           7.4312   -4.2006   22.2697 C.ar    1  UNL1        0.0076
     21 C           6.8328   -3.8645   20.9360 C.ar    1  UNL1        0.0371
     22 C           5.4268   -3.3483   20.8535 C.ar    1  UNL1        0.1391
     23 C           4.6194   -3.1681   22.1047 C.ar    1  UNL1        0.0371
     24 C           5.2179   -3.5041   23.4385 C.ar    1  UNL1        0.0076
     25 O           4.8283   -3.0122   19.5197 O.3     1  UNL1       -0.4690
     26 C           4.7370   -1.5817   19.0777 C.3     1  UNL1        0.2508
     27 C           3.4272   -0.8548   19.1555 C.ar    1  UNL1        0.1026
     28 C           2.3715   -1.3125   20.1178 C.ar    1  UNL1        0.0185
     29 C           1.0618   -0.5855   20.1956 C.ar    1  UNL1        0.0029
     30 C           0.8077    0.5991   19.3112 C.ar    1  UNL1        0.0207
     31 C           1.8635    1.0567   18.3489 C.ar    1  UNL1        0.0986
     32 N           3.1733    0.3297   18.2711 N.ar    1  UNL1       -0.2445
@<TRIPOS>BOND
     1     5     6    1
     2     6     7   ar
     3     7     8   ar
     4     8     9    1
     5     8    10   ar
     6    10    13    1
     7    13    14   ar
     8    14    15   ar
     9    15    16   ar
    10    16    17   ar
    11    10    11   ar
    12    11    12   ar
    13    12     1    1
    14     1     2   am
    15     2     3    2
    16     2    19    1
    17    19    20   ar
    18    20    21   ar
    19    21    22   ar
    20    22    25    1
    21    25    26    1
    22    26    27    1
    23    27    28   ar
    24    28    29   ar
    25    29    30   ar
    26    30    31   ar
    27    31    32   ar
    28    22    23   ar
    29    23    24   ar
    30    12     6   ar
    31    24    19   ar
    32    17    13   ar
    33    32    27   ar
    34    17    18    1
    35     1     4    1
@<TRIPOS>MOLECULE
*****
 32 35 0 0 0
SMALL
GASTEIGER

@<TRIPOS>ATOM
      1 N           0.2931    0.9939   21.3783 N.am    1  UNL1       -0.2806
      2 C           0.8198    1.7208   22.5800 C.2     1  UNL1        0.2495
      3 O           2.2891    1.9949   22.7064 O.2     1  UNL1       -0.2698
      4 H          -0.6712    0.8140   21.2954 H       1  UNL1        0.1552
      5 C           0.7505    2.7136   18.9630 C.3     1  UNL1        0.0323
      6 C           1.4644    1.4010   19.0952 C.ar    1  UNL1       -0.0087
      7 C           2.4070    0.9483   18.0198 C.ar    1  UNL1       -0.0072
      8 C           3.1209   -0.3643   18.1520 C.ar    1  UNL1       -0.0192
      9 C           4.0635   -0.8170   17.0765 C.3     1  UNL1        0.0311
     10 C           2.8922   -1.2241   19.3596 C.ar    1  UNL1        0.0312
     11 C           1.9496   -0.7714   20.4350 C.ar    1  UNL1        0.0170
     12 C           1.2357    0.5412   20.3028 C.ar    1  UNL1        0.0466
     13 C           3.6061   -2.5367   19.4918 C.ar    1  UNL1        0.1403
     14 N           4.8591   -2.7835   20.2787 N.ar    1  UNL1       -0.2254
     15 C           5.2198   -4.2323   20.1336 C.ar    1  UNL1        0.1189
     16 C           4.1897   -4.8809   19.2570 C.ar    1  UNL1        0.0945
     17 N           3.1924   -3.8329   18.8605 N.ar    1  UNL1       -0.3361
     18 H           2.4046   -3.9715   18.2865 H       1  UNL1        0.1674
     19 C          -0.1228    2.1735   23.6555 C.ar    1  UNL1        0.0539
     20 C          -0.0171    1.5978   25.0366 C.ar    1  UNL1        0.0076
     21 C          -0.9596    2.0504   26.1120 C.ar    1  UNL1        0.0371
     22 C          -2.0079    3.0789   25.8064 C.ar    1  UNL1        0.1391
     23 C          -2.1136    3.6546   24.4253 C.ar    1  UNL1        0.0371
     24 C          -1.1711    3.2020   23.3499 C.ar    1  UNL1        0.0076
     25 O          -2.9505    3.5316   26.8819 O.3     1  UNL1       -0.4690
     26 C          -3.4688    4.9392   26.8811 C.3     1  UNL1        0.2508
     27 C          -4.8552    5.2277   26.3864 C.ar    1  UNL1        0.1026
     28 C          -5.3804    4.5210   25.1720 C.ar    1  UNL1        0.0185
     29 C          -6.7667    4.8095   24.6773 C.ar    1  UNL1        0.0029
     30 C          -7.6280    5.8047   25.3971 C.ar    1  UNL1        0.0207
     31 C          -7.1028    6.5113   26.6115 C.ar    1  UNL1        0.0986
     32 N          -5.7164    6.2228   27.1062 N.ar    1  UNL1       -0.2445
@<TRIPOS>BOND
     1     5     6    1
     2     6     7   ar
     3     7     8   ar
     4     8     9    1
     5     8    10   ar
     6    10    13    1
     7    13    14   ar
     8    14    15   ar
     9    15    16   ar
    10    16    17   ar
    11    10    11   ar
    12    11    12   ar
    13    12     1    1
    14     1     2   am
    15     2     3    2
    16     2    19    1
    17    19    20   ar
    18    20    21   ar
    19    21    22   ar
    20    22    25    1
    21    25    26    1
    22    26    27    1
    23    27    28   ar
    24    28    29   ar
    25    29    30   ar
    26    30    31   ar
    27    31    32   ar
    28    22    23   ar
    29    23    24   ar
    30    12     6   ar
    31    24    19   ar
    32    17    13   ar
    33    32    27   ar
    34    17    18    1
    35     1     4    1
@<TRIPOS>MOLECULE
*****
 32 35 0 0 0
SMALL
GASTEIGER

@<TRIPOS>ATOM
      1 N           2.3001    0.9849   20.9838 N.am    1  UNL1       -0.2806
      2 C           2.1763   -0.4620   20.6085 C.2     1  UNL1        0.2495
      3 O           1.0524   -0.9139   19.7237 O.2     1  UNL1       -0.2698
      4 H           3.0377    1.2815   21.5645 H       1  UNL1        0.1552
      5 C           2.9653    2.7018   18.6152 C.3     1  UNL1        0.0323
      6 C           1.6326    2.8385   19.2901 C.ar    1  UNL1       -0.0087
      7 C           0.6326    3.8337   18.7806 C.ar    1  UNL1       -0.0072
      8 C          -0.7000    3.9705   19.4555 C.ar    1  UNL1       -0.0192
      9 C          -1.7000    4.9657   18.9460 C.3     1  UNL1        0.0311
     10 C          -1.0326    3.1121   20.6397 C.ar    1  UNL1        0.0312
     11 C          -0.0326    2.1169   21.1491 C.ar    1  UNL1        0.0170
     12 C           1.3000    1.9802   20.4743 C.ar    1  UNL1        0.0466
     13 C          -2.3652    3.2489   21.3145 C.ar    1  UNL1        0.1403
     14 N          -2.6233    3.9274   22.6272 N.ar    1  UNL1       -0.2254
     15 C          -4.0914    3.8291   22.9191 C.ar    1  UNL1        0.1189
     16 C          -4.7406    3.0897   21.7869 C.ar    1  UNL1        0.0945
     17 N          -3.6738    2.7312   20.7953 N.ar    1  UNL1       -0.3361
     18 H          -3.8087    2.2419   19.9517 H       1  UNL1        0.1674
     19 C           3.1763   -1.4573   21.1180 C.ar    1  UNL1        0.0539
     20 C           3.8117   -2.4332   20.1726 C.ar    1  UNL1        0.0076
     21 C           4.8117   -3.4284   20.6820 C.ar    1  UNL1        0.0371
     22 C           5.1763   -3.4477   22.1368 C.ar    1  UNL1        0.1391
     23 C           4.5409   -2.4717   23.0823 C.ar    1  UNL1        0.0371
     24 C           3.5409   -1.4765   22.5728 C.ar    1  UNL1        0.0076
     25 O           6.1763   -4.4429   22.6463 O.3     1  UNL1       -0.4690
     26 C           6.7867   -4.2645   24.0049 C.3     1  UNL1        0.2508
     27 C           7.2584   -5.4602   24.7780 C.ar    1  UNL1        0.1026
     28 C           8.1233   -6.4898   24.1131 C.ar    1  UNL1        0.0185
     29 C           8.5951   -7.6854   24.8862 C.ar    1  UNL1        0.0029
     30 C           8.2020   -7.8516   26.3243 C.ar    1  UNL1        0.0207
     31 C           7.3372   -6.8220   26.9892 C.ar    1  UNL1        0.0986
     32 N           6.8654   -5.6263   26.2160 N.ar    1  UNL1       -0.2445
@<TRIPOS>BOND
     1     5     6    1
     2     6     7   ar
     3     7     8   ar
     4     8     9    1
     5     8    10   ar
     6    10    13    1
     7    13    14   ar
     8    14    15   ar
     9    15    16   ar
    10    16    17   ar
    11    10    11   ar
    12    11    12   ar
    13    12     1    1
    14     1     2   am
    15     2     3    2
    16     2    19    1
    17    19    20   ar
    18    20    21   ar
    19    21    22   ar
    20    22    25    1
    21    25    26    1
    22    26    27    1
    23    27    28   ar
    24    28    29   ar
    25    29    30   ar
    26    30    31   ar
    27    31    32   ar
    28    22    23   ar
    29    23    24   ar
    30    12     6   ar
    31    24    19   ar
    32    17    13   ar
    33    32    27   ar
    34    17    18    1
    35     1     4    1
@<TRIPOS>MOLECULE
*****
 32 35 0 0 0
SMALL
GASTEIGER

@<TRIPOS>ATOM
      1 N           6.4306   -5.1418   25.6620 N.am    1  UNL1       -0.2806
      2 C           7.2280   -4.4599   24.5901 C.2     1  UNL1        0.2495
      3 O           8.6822   -4.1649   24.8101 O.2     1  UNL1       -0.2698
      4 H           5.4761   -5.3354   25.5176 H       1  UNL1        0.1552
      5 C           7.8233   -7.7880   25.9033 C.3     1  UNL1        0.0323
      6 C           7.7836   -6.8518   27.0746 C.ar    1  UNL1       -0.0087
      7 C           8.4403   -7.2386   28.3665 C.ar    1  UNL1       -0.0072
      8 C           8.4006   -6.3024   29.5378 C.ar    1  UNL1       -0.0192
      9 C           9.0573   -6.6894   30.8298 C.3     1  UNL1        0.0311
     10 C           7.7042   -4.9794   29.4172 C.ar    1  UNL1        0.0312
     11 C           7.0476   -4.5925   28.1253 C.ar    1  UNL1        0.0170
     12 C           7.0873   -5.5287   26.9540 C.ar    1  UNL1        0.0466
     13 C           7.6645   -4.0432   30.5885 C.ar    1  UNL1        0.1403
     14 N           6.4644   -3.7426   31.4367 N.ar    1  UNL1       -0.2254
     15 C           6.8761   -2.7568   32.4897 C.ar    1  UNL1        0.1189
     16 C           8.3307   -2.4483   32.2924 C.ar    1  UNL1        0.0945
     17 N           8.8179   -3.2433   31.1174 N.ar    1  UNL1       -0.3361
     18 H           9.7340   -3.2405   30.7566 H       1  UNL1        0.1674
     19 C           6.5713   -4.0730   23.2981 C.ar    1  UNL1        0.0539
     20 C           7.3253   -4.1960   22.0073 C.ar    1  UNL1        0.0076
     21 C           6.6687   -3.8091   20.7153 C.ar    1  UNL1        0.0371
     22 C           5.2580   -3.2992   20.7143 C.ar    1  UNL1        0.1391
     23 C           4.5040   -3.1762   22.0052 C.ar    1  UNL1        0.0371
     24 C           5.1607   -3.5630   23.2971 C.ar    1  UNL1        0.0076
     25 O           4.6013   -2.9123   19.4223 O.3     1  UNL1       -0.4690
     26 C           5.4402   -2.5118   18.2451 C.3     1  UNL1        0.2508
     27 C           5.6040   -1.0613   17.8996 C.ar    1  UNL1        0.1026
     28 C           4.6242   -0.0513   18.4191 C.ar    1  UNL1        0.0185
     29 C           4.7880    1.3991   18.0737 C.ar    1  UNL1        0.0029
     30 C           5.9317    1.8396   17.2087 C.ar    1  UNL1        0.0207
     31 C           6.9115    0.8296   16.6892 C.ar    1  UNL1        0.0986
     32 N           6.7477   -0.6209   17.0347 N.ar    1  UNL1       -0.2445
@<TRIPOS>BOND
     1     5     6    1
     2     6     7   ar
     3     7     8   ar
     4     8     9    1
     5     8    10   ar
     6    10    13    1
     7    13    14   ar
     8    14    15   ar
     9    15    16   ar
    10    16    17   ar
    11    10    11   ar
    12    11    12   ar
    13    12     1    1
    14     1     2   am
    15     2     3    2
    16     2    19    1
    17    19    20   ar
    18    20    21   ar
    19    21    22   ar
    20    22    25    1
    21    25    26    1
    22    26    27    1
    23    27    28   ar
    24    28    29   ar
    25    29    30   ar
    26    30    31   ar
    27    31    32   ar
    28    22    23   ar
    29    23    24   ar
    30    12     6   ar
    31    24    19   ar
    32    17    13   ar
    33    32    27   ar
    34    17    18    1
    35     1     4    1
@<TRIPOS>MOLECULE
*****
 32 35 0 0 0
SMALL
GASTEIGER

@<TRIPOS>ATOM
      1 N           0.5625    2.3799   18.3639 N.am    1  UNL1       -0.2806
      2 C           1.9629    2.5514   18.8732 C.2     1  UNL1        0.2495
      3 O           2.2846    3.6686   19.8211 O.2     1  UNL1       -0.2698
      4 H           0.3514    1.6467   17.7418 H       1  UNL1        0.1552
      5 C          -0.0069    4.8524   16.7631 C.3     1  UNL1        0.0323
      6 C          -0.8009    4.5617   18.0021 C.ar    1  UNL1       -0.0087
      7 C          -1.8796    5.5072   18.4407 C.ar    1  UNL1       -0.0072
      8 C          -2.6736    5.2165   19.6797 C.ar    1  UNL1       -0.0192
      9 C          -3.7523    6.1621   20.1182 C.3     1  UNL1        0.0311
     10 C          -2.3889    3.9803   20.4800 C.ar    1  UNL1        0.0312
     11 C          -1.3102    3.0348   20.0414 C.ar    1  UNL1        0.0170
     12 C          -0.5162    3.3255   18.8025 C.ar    1  UNL1        0.0466
     13 C          -3.1829    3.6895   21.7190 C.ar    1  UNL1        0.1403
     14 N          -2.8095    4.0818   23.1178 N.ar    1  UNL1       -0.2254
     15 C          -3.8855    3.5902   24.0400 C.ar    1  UNL1        0.1189
     16 C          -4.9240    2.8941   23.2112 C.ar    1  UNL1        0.0945
     17 N          -4.4898    2.9555   21.7767 N.ar    1  UNL1       -0.3361
     18 H          -4.9770    2.5800   21.0081 H       1  UNL1        0.1674
     19 C           3.0416    1.6058   18.4346 C.ar    1  UNL1        0.0539
     20 C           2.6785    0.2974   17.7974 C.ar    1  UNL1        0.0076
     21 C           3.7571   -0.6482   17.3588 C.ar    1  UNL1        0.0371
     22 C           5.1989   -0.2853   17.5575 C.ar    1  UNL1        0.1391
     23 C           5.5621    1.0232   18.1948 C.ar    1  UNL1        0.0371
     24 C           4.4834    1.9687   18.6333 C.ar    1  UNL1        0.0076
     25 O           6.2776   -1.2309   17.1189 O.3     1  UNL1       -0.4690
     26 C           6.8918   -2.1781   18.1067 C.3     1  UNL1        0.2508
     27 C           6.0357   -2.8335   19.1494 C.ar    1  UNL1        0.1026
     28 C           4.9610   -3.7968   18.7405 C.ar    1  UNL1        0.0185
     29 C           4.1049   -4.4522   19.7832 C.ar    1  UNL1        0.0029
     30 C           4.3234   -4.1445   21.2350 C.ar    1  UNL1        0.0207
     31 C           5.3981   -3.1812   21.6440 C.ar    1  UNL1        0.0986
     32 N           6.2543   -2.5258   20.6011 N.ar    1  UNL1       -0.2445
@<TRIPOS>BOND
     1     5     6    1
     2     6     7   ar
     3     7     8   ar
     4     8     9    1
     5     8    10   ar
     6    10    13    1
     7    13    14   ar
     8    14    15   ar
     9    15    16   ar
    10    16    17   ar
    11    10    11   ar
    12    11    12   ar
    13    12     1    1
    14     1     2   am
    15     2     3    2
    16     2    19    1
    17    19    20   ar
    18    20    21   ar
    19    21    22   ar
    20    22    25    1
    21    25    26    1
    22    26    27    1
    23    27    28   ar
    24    28    29   ar
    25    29    30   ar
    26    30    31   ar
    27    31    32   ar
    28    22    23   ar
    29    23    24   ar
    30    12     6   ar
    31    24    19   ar
    32    17    13   ar
    33    32    27   ar
    34    17    18    1
    35     1     4    1
@<TRIPOS>MOLECULE
*****
 32 35 0 0 0
SMALL
GASTEIGER

@<TRIPOS>ATOM
      1 N           6.1945   -2.8334   22.0745 N.am    1  UNL1       -0.2806
      2 C           4.8573   -3.1975   21.5007 C.2     1  UNL1        0.2495
      3 O           4.2638   -4.5466   21.7791 O.2     1  UNL1       -0.2698
      4 H           6.5841   -1.9479   21.8918 H       1  UNL1        0.1552
      5 C           8.1482   -4.7310   20.8165 C.3     1  UNL1        0.0323
      6 C           7.9151   -4.7673   22.2978 C.ar    1  UNL1       -0.0087
      7 C           8.6588   -5.7524   23.1501 C.ar    1  UNL1       -0.0072
      8 C           8.4257   -5.7888   24.6314 C.ar    1  UNL1       -0.0192
      9 C           9.1695   -6.7739   25.4837 C.3     1  UNL1        0.0311
     10 C           7.4489   -4.8400   25.2605 C.ar    1  UNL1        0.0312
     11 C           6.7052   -3.8549   24.4082 C.ar    1  UNL1        0.0170
     12 C           6.9383   -3.8186   22.9268 C.ar    1  UNL1        0.0466
     13 C           7.2158   -4.8764   26.7418 C.ar    1  UNL1        0.1403
     14 N           7.9515   -4.0694   27.7702 N.ar    1  UNL1       -0.2254
     15 C           7.3965   -4.4204   29.1188 C.ar    1  UNL1        0.1189
     16 C           6.3177   -5.4443   28.9239 C.ar    1  UNL1        0.0945
     17 N           6.2061   -5.7261   27.4549 N.ar    1  UNL1       -0.3361
     18 H           5.5800   -6.3578   27.0328 H       1  UNL1        0.1674
     19 C           4.1136   -2.2123   20.6484 C.ar    1  UNL1        0.0539
     20 C           4.4776   -2.0462   19.2027 C.ar    1  UNL1        0.0076
     21 C           3.7339   -1.0611   18.3504 C.ar    1  UNL1        0.0371
     22 C           2.6262   -0.2421   18.9438 C.ar    1  UNL1        0.1391
     23 C           2.2621   -0.4082   20.3894 C.ar    1  UNL1        0.0371
     24 C           3.0058   -1.3933   21.2417 C.ar    1  UNL1        0.0076
     25 O           1.8824    0.7430   18.0914 O.3     1  UNL1       -0.4690
     26 C           1.7343    2.1652   18.5446 C.3     1  UNL1        0.2508
     27 C           0.3707    2.7271   18.8181 C.ar    1  UNL1        0.1026
     28 C          -0.3220    3.5552   17.7767 C.ar    1  UNL1        0.0185
     29 C          -1.6856    4.1171   18.0501 C.ar    1  UNL1        0.0029
     30 C          -2.3566    3.8509   19.3651 C.ar    1  UNL1        0.0207
     31 C          -1.6639    3.0229   20.4065 C.ar    1  UNL1        0.0986
     32 N          -0.3002    2.4610   20.1330 N.ar    1  UNL1       -0.2445
@<TRIPOS>BOND
     1     5     6    1
     2     6     7   ar
     3     7     8   ar
     4     8     9    1
     5     8    10   ar
     6    10    13    1
     7    13    14   ar
     8    14    15   ar
     9    15    16   ar
    10    16    17   ar
    11    10    11   ar
    12    11    12   ar
    13    12     1    1
    14     1     2   am
    15     2     3    2
    16     2    19    1
    17    19    20   ar
    18    20    21   ar
    19    21    22   ar
    20    22    25    1
    21    25    26    1
    22    26    27    1
    23    27    28   ar
    24    28    29   ar
    25    29    30   ar
    26    30    31   ar
    27    31    32   ar
    28    22    23   ar
    29    23    24   ar
    30    12     6   ar
    31    24    19   ar
    32    17    13   ar
    33    32    27   ar
    34    17    18    1
    35     1     4    1
@<TRIPOS>MOLECULE
*****
 32 35 0 0 0
SMALL
GASTEIGER

@<TRIPOS>ATOM
      1 N           1.6353    0.2979   27.2717 N.am    1  UNL1       -0.2806
      2 C           2.4944    0.9643   26.2383 C.2     1  UNL1        0.2495
      3 O           3.5413    1.9533   26.6578 O.2     1  UNL1       -0.2698
      4 H           0.9482   -0.3512   26.9964 H       1  UNL1        0.1552
      5 C           0.1334    2.5822   28.5073 C.3     1  UNL1        0.0323
      6 C           1.0721    1.7626   29.3423 C.ar    1  UNL1       -0.0087
      7 C           1.2599    2.0852   30.7951 C.ar    1  UNL1       -0.0072
      8 C           2.1986    1.2657   31.6301 C.ar    1  UNL1       -0.0192
      9 C           2.3864    1.5883   33.0830 C.3     1  UNL1        0.0311
     10 C           2.9495    0.1236   31.0124 C.ar    1  UNL1        0.0312
     11 C           2.7618   -0.1990   29.5596 C.ar    1  UNL1        0.0170
     12 C           1.8231    0.6206   28.7246 C.ar    1  UNL1        0.0466
     13 C           3.8882   -0.6959   31.8474 C.ar    1  UNL1        0.1403
     14 N           3.6084   -2.0585   32.4085 N.ar    1  UNL1       -0.2254
     15 C           4.8188   -2.5015   33.1758 C.ar    1  UNL1        0.1189
     16 C           5.8468   -1.4126   33.0888 C.ar    1  UNL1        0.0945
     17 N           5.2717   -0.2967   32.2678 N.ar    1  UNL1       -0.3361
     18 H           5.7230    0.5492   32.0441 H       1  UNL1        0.1674
     19 C           2.3067    0.6417   24.7855 C.ar    1  UNL1        0.0539
     20 C           3.1598   -0.4058   24.1335 C.ar    1  UNL1        0.0076
     21 C           2.9721   -0.7284   22.6807 C.ar    1  UNL1        0.0371
     22 C           1.9313   -0.0036   21.8799 C.ar    1  UNL1        0.1391
     23 C           1.0782    1.0439   22.5319 C.ar    1  UNL1        0.0371
     24 C           1.2659    1.3665   23.9847 C.ar    1  UNL1        0.0076
     25 O           1.7435   -0.3262   20.4270 O.3     1  UNL1       -0.4690
     26 C           2.9269   -0.3530   19.5057 C.3     1  UNL1        0.2508
     27 C           3.6236   -1.6496   19.2173 C.ar    1  UNL1        0.1026
     28 C           4.9437   -1.6495   18.5049 C.ar    1  UNL1        0.0185
     29 C           5.6404   -2.9461   18.2164 C.ar    1  UNL1        0.0029
     30 C           5.0171   -4.2430   18.6404 C.ar    1  UNL1        0.0207
     31 C           3.6971   -4.2432   19.3528 C.ar    1  UNL1        0.0986
     32 N           3.0003   -2.9464   19.6412 N.ar    1  UNL1       -0.2445
@<TRIPOS>BOND
     1     5     6    1
     2     6     7   ar
     3     7     8   ar
     4     8     9    1
     5     8    10   ar
     6    10    13    1
     7    13    14   ar
     8    14    15   ar
     9    15    16   ar
    10    16    17   ar
    11    10    11   ar
    12    11    12   ar
    13    12     1    1
    14     1     2   am
    15     2     3    2
    16     2    19    1
    17    19    20   ar
    18    20    21   ar
    19    21    22   ar
    20    22    25    1
    21    25    26    1
    22    26    27    1
    23    27    28   ar
    24    28    29   ar
    25    29    30   ar
    26    30    31   ar
    27    31    32   ar
    28    22    23   ar
    29    23    24   ar
    30    12     6   ar
    31    24    19   ar
    32    17    13   ar
    33    32    27   ar
    34    17    18    1
    35     1     4    1
@<TRIPOS>MOLECULE
*****
 32 35 0 0 0
SMALL
GASTEIGER

@<TRIPOS>ATOM
      1 N           8.2972   -4.6036   22.9421 N.am    1  UNL1       -0.2806
      2 C           6.9759   -4.2095   22.3514 C.2     1  UNL1        0.2495
      3 O           5.7035   -4.5339   23.0765 O.2     1  UNL1       -0.2698
      4 H           9.1323   -4.3907   22.4662 H       1  UNL1        0.1552
      5 C           8.9421   -7.5322   23.0291 C.3     1  UNL1        0.0323
      6 C           8.6685   -6.7864   24.3015 C.ar    1  UNL1       -0.0087
      7 C           8.7174   -7.5048   25.6173 C.ar    1  UNL1       -0.0072
      8 C           8.4438   -6.7589   26.8896 C.ar    1  UNL1       -0.0192
      9 C           8.4927   -7.4774   28.2055 C.3     1  UNL1        0.0311
     10 C           8.1213   -5.2947   26.8462 C.ar    1  UNL1        0.0312
     11 C           8.0725   -4.5763   25.5303 C.ar    1  UNL1        0.0170
     12 C           8.3460   -5.3221   24.2580 C.ar    1  UNL1        0.0466
     13 C           7.8477   -4.5488   28.1185 C.ar    1  UNL1        0.1403
     14 N           8.8474   -3.7581   28.9094 N.ar    1  UNL1       -0.2254
     15 C           8.1439   -3.1833   30.1030 C.ar    1  UNL1        0.1189
     16 C           6.7095   -3.6188   30.0499 C.ar    1  UNL1        0.0945
     17 N           6.5265   -4.4627   28.8234 N.ar    1  UNL1       -0.3361
     18 H           5.6866   -4.8858   28.5321 H       1  UNL1        0.1674
     19 C           6.9270   -3.4911   21.0355 C.ar    1  UNL1        0.0539
     20 C           8.0835   -2.6395   20.6025 C.ar    1  UNL1        0.0076
     21 C           8.0347   -1.9211   19.2867 C.ar    1  UNL1        0.0371
     22 C           6.8294   -2.0541   18.4039 C.ar    1  UNL1        0.1391
     23 C           5.6729   -2.9057   18.8369 C.ar    1  UNL1        0.0371
     24 C           5.7217   -3.6241   20.1527 C.ar    1  UNL1        0.0076
     25 O           6.7805   -1.3357   17.0880 O.3     1  UNL1       -0.4690
     26 C           6.4550    0.1280   17.0443 C.3     1  UNL1        0.2508
     27 C           5.1471    0.6220   17.5875 C.ar    1  UNL1        0.1026
     28 C           3.9081   -0.2090   17.4310 C.ar    1  UNL1        0.0185
     29 C           2.6001    0.2850   17.9742 C.ar    1  UNL1        0.0029
     30 C           2.5310    1.6101   18.6739 C.ar    1  UNL1        0.0207
     31 C           3.7700    2.4411   18.8304 C.ar    1  UNL1        0.0986
     32 N           5.0780    1.9470   18.2871 N.ar    1  UNL1       -0.2445
@<TRIPOS>BOND
     1     5     6    1
     2     6     7   ar
     3     7     8   ar
     4     8     9    1
     5     8    10   ar
     6    10    13    1
     7    13    14   ar
     8    14    15   ar
     9    15    16   ar
    10    16    17   ar
    11    10    11   ar
    12    11    12   ar
    13    12     1    1
    14     1     2   am
    15     2     3    2
    16     2    19    1
    17    19    20   ar
    18    20    21   ar
    19    21    22   ar
    20    22    25    1
    21    25    26    1
    22    26    27    1
    23    27    28   ar
    24    28    29   ar
    25    29    30   ar
    26    30    31   ar
    27    31    32   ar
    28    22    23   ar
    29    23    24   ar
    30    12     6   ar
    31    24    19   ar
    32    17    13   ar
    33    32    27   ar
    34    17    18    1
    35     1     4    1
@<TRIPOS>MOLECULE
*****
 32 35 0 0 0
SMALL
GASTEIGER

@<TRIPOS>ATOM
      1 N           5.4068   -3.8950   22.9574 N.am    1  UNL1       -0.2806
      2 C           6.4206   -3.3864   23.9390 C.2     1  UNL1        0.2495
      3 O           7.1000   -2.0704   23.7016 O.2     1  UNL1       -0.2698
      4 H           4.9609   -4.7587   23.1133 H       1  UNL1        0.1552
      5 C           7.0959   -4.1347   20.4897 C.3     1  UNL1        0.0323
      6 C           5.9169   -3.2073   20.5045 C.ar    1  UNL1       -0.0087
      7 C           5.5826   -2.3999   19.2854 C.ar    1  UNL1       -0.0072
      8 C           4.4036   -1.4725   19.3002 C.ar    1  UNL1       -0.0192
      9 C           4.0693   -0.6650   18.0811 C.3     1  UNL1        0.0311
     10 C           3.5591   -1.3527   20.5340 C.ar    1  UNL1        0.0312
     11 C           3.8935   -2.1601   21.7531 C.ar    1  UNL1        0.0170
     12 C           5.0724   -3.0875   21.7383 C.ar    1  UNL1        0.0466
     13 C           2.3802   -0.4253   20.5488 C.ar    1  UNL1        0.1403
     14 N           2.3829    0.9967   21.0261 N.ar    1  UNL1       -0.2254
     15 C           0.9960    1.5437   20.8612 C.ar    1  UNL1        0.1189
     16 C           0.1361    0.4597   20.2819 C.ar    1  UNL1        0.0945
     17 N           0.9916   -0.7572   20.0889 N.ar    1  UNL1       -0.3361
     18 H           0.6939   -1.6219   19.7243 H       1  UNL1        0.1674
     19 C           6.7550   -4.1939   25.1582 C.ar    1  UNL1        0.0539
     20 C           6.4495   -3.6525   26.5233 C.ar    1  UNL1        0.0076
     21 C           6.7838   -4.4600   27.7424 C.ar    1  UNL1        0.0371
     22 C           7.4236   -5.8087   27.5964 C.ar    1  UNL1        0.1391
     23 C           7.7291   -6.3501   26.2312 C.ar    1  UNL1        0.0371
     24 C           7.3948   -5.5427   25.0121 C.ar    1  UNL1        0.0076
     25 O           7.7580   -6.6162   28.8155 O.3     1  UNL1       -0.4690
     26 C           8.7386   -6.0872   29.8197 C.3     1  UNL1        0.2508
     27 C           8.3500   -4.9541   30.7226 C.ar    1  UNL1        0.1026
     28 C           9.3490   -3.8871   31.0595 C.ar    1  UNL1        0.0185
     29 C           8.9604   -2.7540   31.9623 C.ar    1  UNL1        0.0029
     30 C           7.5728   -2.6880   32.5283 C.ar    1  UNL1        0.0207
     31 C           6.5738   -3.7550   32.1913 C.ar    1  UNL1        0.0986
     32 N           6.9625   -4.8881   31.2885 N.ar    1  UNL1       -0.2445
@<TRIPOS>BOND
     1     5     6    1
     2     6     7   ar
     3     7     8   ar
     4     8     9    1
     5     8    10   ar
     6    10    13    1
     7    13    14   ar
     8    14    15   ar
     9    15    16   ar
    10    16    17   ar
    11    10    11   ar
    12    11    12   ar
    13    12     1    1
    14     1     2   am
    15     2     3    2
    16     2    19    1
    17    19    20   ar
    18    20    21   ar
    19    21    22   ar
    20    22    25    1
    21    25    26    1
    22    26    27    1
    23    27    28   ar
    24    28    29   ar
    25    29    30   ar
    26    30    31   ar
    27    31    32   ar
    28    22    23   ar
    29    23    24   ar
    30    12     6   ar
    31    24    19   ar
    32    17    13   ar
    33    32    27   ar
    34    17    18    1
    35     1     4    1
