@<TRIPOS>MOLECULE
*****
 38 42 0 0 0
SMALL
GASTEIGER

@<TRIPOS>ATOM
      1 C           0.1581    1.4125   21.2356 C.ar    1  UNL1        0.1370
      2 C           0.3951    0.8775   19.8544 C.ar    1  UNL1        0.0367
      3 C           1.4374   -0.1770   19.6272 C.ar    1  UNL1        0.0046
      4 C           2.4181   -0.9146   20.5605 C.ar    1  UNL1        0.0178
      5 C           1.5510    0.0794   21.2747 C.ar    1  UNL1        0.0027
      6 C           0.9634    0.8930   22.3895 C.ar    1  UNL1        0.0413
      7 C           0.7265    1.4280   23.7707 C.3     1  UNL1        0.1721
      8 O           0.8686    1.6199   25.2515 O.3     1  UNL1       -0.3442
      9 C           1.3727    1.4456   26.6535 C.3     1  UNL1        0.1686
     10 C           2.1780    0.9261   27.8074 C.2     1  UNL1        0.0036
     11 C           3.1874    0.1240   28.5742 C.2     1  UNL1        0.0036
     12 C           4.2790   -0.8639   28.8612 C.3     1  UNL1        0.1686
     13 O           5.3212   -1.9185   28.6340 O.3     1  UNL1       -0.3442
     14 C           6.1884   -2.9124   27.9199 C.3     1  UNL1        0.1721
     15 C           6.7759   -3.7260   26.8050 C.ar    1  UNL1        0.0425
     16 C           7.0129   -4.2610   25.4239 C.ar    1  UNL1        0.0158
     17 C           6.8708   -4.4530   23.9431 C.ar    1  UNL1        0.0504
     18 C           7.9509   -5.3531   24.5754 C.ar    1  UNL1        0.0178
     19 C           8.4551   -5.5275   25.9773 C.ar    1  UNL1        0.0379
     20 C           7.8675   -4.7139   27.0922 C.ar    1  UNL1        0.1370
     21 N           6.3666   -4.2786   22.5411 N.pl3   1  UNL1       -0.2825
     22 C           5.5613   -3.7591   21.3871 C.ar    1  UNL1        0.2207
     23 N           5.7983   -4.2941   20.0060 N.ar    1  UNL1       -0.2120
     24 C           4.9930   -3.7746   18.8521 C.ar    1  UNL1        0.1034
     25 C           3.9508   -2.7200   19.0793 C.ar    1  UNL1        0.0399
     26 C           3.7138   -2.1850   20.4604 C.ar    1  UNL1        0.0857
     27 N           4.5191   -2.7046   21.6143 N.ar    1  UNL1       -0.2135
     28 H           6.9358   -4.9310   22.0724 H       1  UNL1        0.1551
     29 C          -1.5106    3.1666   20.2932 C.3     1  UNL1        0.2525
     30 O          -0.8841    2.4671   21.4628 O.3     1  UNL1       -0.4717
     31 O           8.3717   -4.8882   28.4941 O.3     1  UNL1       -0.4742
     32 C           7.7899   -5.9555   29.3731 C.3     1  UNL1        0.2226
     33 C           6.9216   -5.5780   30.5365 C.3     1  UNL1        0.1200
     34 N           7.2025   -4.3208   31.3052 N.3     1  UNL1       -0.2696
     35 C           6.1803   -3.3318   31.7816 C.3     1  UNL1        0.0722
     36 C           6.9009   -2.2318   32.5032 C.3     1  UNL1        0.0188
     37 C           8.3683   -2.5410   32.4728 C.3     1  UNL1        0.0188
     38 C           8.5547   -3.8321   31.7323 C.3     1  UNL1        0.0722
@<TRIPOS>BOND
     1    29    30    1
     2    30     1    1
     3     1     2   ar
     4     2     3   ar
     5     3     4   ar
     6     4     5   ar
     7     5     6   ar
     8     6     7    1
     9     7     8    1
    10     8     9    1
    11     9    10    1
    12    10    11    2
    13    11    12    1
    14    12    13    1
    15    13    14    1
    16    14    15    1
    17    15    16   ar
    18    16    17   ar
    19    17    18   ar
    20    18    19   ar
    21    19    20   ar
    22    20    31    1
    23    31    32    1
    24    32    33    1
    25    33    34    1
    26    34    35    1
    27    35    36    1
    28    36    37    1
    29    37    38    1
    30    17    21    1
    31    21    22    1
    32    22    23   ar
    33    23    24   ar
    34    24    25   ar
    35    25    26   ar
    36    26    27   ar
    37     6     1   ar
    38    20    15   ar
    39    38    34    1
    40    27    22   ar
    41    26     4    1
    42    21    28    1
@<TRIPOS>MOLECULE
*****
 38 42 0 0 0
SMALL
GASTEIGER

@<TRIPOS>ATOM
      1 C           4.1354   -0.6502   33.1861 C.ar    1  UNL1        0.1370
      2 C           3.1611    0.4899   33.2151 C.ar    1  UNL1        0.0367
      3 C           2.5715    1.0053   31.9357 C.ar    1  UNL1        0.0046
      4 C           2.7417    0.6077   30.4560 C.ar    1  UNL1        0.0178
      5 C           3.5641   -0.2252   31.3940 C.ar    1  UNL1        0.0027
      6 C           4.5200   -1.2749   31.8778 C.ar    1  UNL1        0.0413
      7 C           5.4944   -2.4151   31.8488 C.3     1  UNL1        0.1721
      8 O           6.3694   -3.5081   31.3107 O.3     1  UNL1       -0.3442
      9 C           7.0397   -4.4221   30.3281 C.3     1  UNL1        0.1686
     10 C           7.4244   -5.0468   29.0198 C.2     1  UNL1        0.0036
     11 C           7.4770   -5.3070   27.5435 C.2     1  UNL1        0.0036
     12 C           7.1913   -5.1712   26.0772 C.3     1  UNL1        0.1686
     13 O           6.6017   -4.6558   24.7979 O.3     1  UNL1       -0.3442
     14 C           5.7794   -3.8230   23.8598 C.3     1  UNL1        0.1721
     15 C           4.8234   -2.7731   23.3760 C.ar    1  UNL1        0.0425
     16 C           3.8491   -1.6330   23.4050 C.ar    1  UNL1        0.0158
     17 C           2.9741   -0.5400   23.9431 C.ar    1  UNL1        0.0504
     18 C           2.9115   -0.6736   22.4085 C.ar    1  UNL1        0.0178
     19 C           3.5817   -1.5876   21.4260 C.ar    1  UNL1        0.0379
     20 C           4.5377   -2.6374   21.9097 C.ar    1  UNL1        0.1370
     21 N           2.3038    0.3739   24.9257 N.pl3   1  UNL1       -0.2825
     22 C           1.9191    0.9987   26.2340 C.ar    1  UNL1        0.2207
     23 N           0.9448    2.1389   26.2630 N.ar    1  UNL1       -0.2120
     24 C           0.5602    2.7636   27.5713 C.ar    1  UNL1        0.1034
     25 C           1.1497    2.2482   28.8506 C.ar    1  UNL1        0.0399
     26 C           2.1240    1.1081   28.8217 C.ar    1  UNL1        0.0857
     27 N           2.5087    0.4833   27.5134 N.ar    1  UNL1       -0.2135
     28 H           1.7640    0.9205   24.3099 H       1  UNL1        0.1551
     29 C           4.7247   -0.3029   35.6925 C.3     1  UNL1        0.2525
     30 O           4.7250   -1.1656   34.4655 O.3     1  UNL1       -0.4717
     31 O           5.2080   -3.5514   20.9272 O.3     1  UNL1       -0.4742
     32 C           4.4758   -3.9951   19.6955 C.3     1  UNL1        0.2226
     33 C           5.0360   -3.6875   18.3385 C.3     1  UNL1        0.1200
     34 N           5.2724   -2.2636   17.9298 N.3     1  UNL1       -0.2696
     35 C           4.2237   -1.2891   17.4823 C.3     1  UNL1        0.0722
     36 C           4.9022    0.0124   17.1729 C.3     1  UNL1        0.0188
     37 C           6.3702   -0.1578   17.4291 C.3     1  UNL1        0.0188
     38 C           6.5990   -1.5645   17.8969 C.3     1  UNL1        0.0722
@<TRIPOS>BOND
     1    29    30    1
     2    30     1    1
     3     1     2   ar
     4     2     3   ar
     5     3     4   ar
     6     4     5   ar
     7     5     6   ar
     8     6     7    1
     9     7     8    1
    10     8     9    1
    11     9    10    1
    12    10    11    2
    13    11    12    1
    14    12    13    1
    15    13    14    1
    16    14    15    1
    17    15    16   ar
    18    16    17   ar
    19    17    18   ar
    20    18    19   ar
    21    19    20   ar
    22    20    31    1
    23    31    32    1
    24    32    33    1
    25    33    34    1
    26    34    35    1
    27    35    36    1
    28    36    37    1
    29    37    38    1
    30    17    21    1
    31    21    22    1
    32    22    23   ar
    33    23    24   ar
    34    24    25   ar
    35    25    26   ar
    36    26    27   ar
    37     6     1   ar
    38    20    15   ar
    39    38    34    1
    40    27    22   ar
    41    26     4    1
    42    21    28    1
@<TRIPOS>MOLECULE
*****
 38 42 0 0 0
SMALL
GASTEIGER

@<TRIPOS>ATOM
      1 C           2.7801    0.9472   32.4673 C.ar    1  UNL1        0.1370
      2 C           3.6379    0.2707   33.4951 C.ar    1  UNL1        0.0367
      3 C           4.6323   -0.7706   33.0743 C.ar    1  UNL1        0.0046
      4 C           5.0229   -1.3709   31.7091 C.ar    1  UNL1        0.0178
      5 C           3.9461   -0.3309   31.6154 C.ar    1  UNL1        0.0027
      6 C           2.9167    0.5825   31.0187 C.ar    1  UNL1        0.0413
      7 C           2.0588    1.2591   29.9908 C.3     1  UNL1        0.1721
      8 O           1.4760    1.6172   28.6559 O.3     1  UNL1       -0.3442
      9 C           1.2386    1.6137   27.1748 C.3     1  UNL1        0.1686
     10 C           1.3752    1.2490   25.7263 C.2     1  UNL1        0.0036
     11 C           1.8693    0.5671   24.4849 C.2     1  UNL1        0.0036
     12 C           2.6613   -0.3498   23.6006 C.3     1  UNL1        0.1686
     13 O           3.6557   -1.3910   23.1799 O.3     1  UNL1       -0.3442
     14 C           4.7325   -2.4310   23.2735 C.3     1  UNL1        0.1721
     15 C           5.7619   -3.3444   23.8702 C.ar    1  UNL1        0.0425
     16 C           6.6197   -4.0209   24.8980 C.ar    1  UNL1        0.0158
     17 C           7.2025   -4.3791   26.2329 C.ar    1  UNL1        0.0504
     18 C           7.8207   -5.1711   25.0636 C.ar    1  UNL1        0.0178
     19 C           7.5833   -5.1746   23.5825 C.ar    1  UNL1        0.0379
     20 C           6.5539   -4.2612   22.9858 C.ar    1  UNL1        0.1370
     21 N           7.4399   -4.3755   27.7140 N.pl3   1  UNL1       -0.2825
     22 C           7.3034   -4.0109   29.1626 C.ar    1  UNL1        0.2207
     23 N           8.1612   -4.6874   30.1904 N.ar    1  UNL1       -0.2120
     24 C           8.0246   -4.3227   31.6390 C.ar    1  UNL1        0.1034
     25 C           7.0302   -3.2815   32.0597 C.ar    1  UNL1        0.0399
     26 C           6.1724   -2.6049   31.0319 C.ar    1  UNL1        0.0857
     27 N           6.3090   -2.9696   29.5834 N.ar    1  UNL1       -0.2135
     28 H           8.1467   -5.0581   27.7755 H       1  UNL1        0.1551
     29 C           2.0400    2.8171   34.1122 C.3     1  UNL1        0.2525
     30 O           1.7857    1.9885   32.8880 O.3     1  UNL1       -0.4717
     31 O           6.3165   -4.2647   21.5047 O.3     1  UNL1       -0.4742
     32 C           7.0687   -3.3131   20.6223 C.3     1  UNL1        0.2226
     33 C           6.3881   -2.6893   19.4400 C.3     1  UNL1        0.1200
     34 N           5.0600   -2.0129   19.6099 N.3     1  UNL1       -0.2696
     35 C           3.7240   -2.6932   19.6585 C.3     1  UNL1        0.0722
     36 C           2.6731   -1.6383   19.8396 C.3     1  UNL1        0.0188
     37 C           3.3596   -0.3061   19.9028 C.3     1  UNL1        0.0188
     38 C           4.8348   -0.5377   19.7608 C.3     1  UNL1        0.0722
@<TRIPOS>BOND
     1    29    30    1
     2    30     1    1
     3     1     2   ar
     4     2     3   ar
     5     3     4   ar
     6     4     5   ar
     7     5     6   ar
     8     6     7    1
     9     7     8    1
    10     8     9    1
    11     9    10    1
    12    10    11    2
    13    11    12    1
    14    12    13    1
    15    13    14    1
    16    14    15    1
    17    15    16   ar
    18    16    17   ar
    19    17    18   ar
    20    18    19   ar
    21    19    20   ar
    22    20    31    1
    23    31    32    1
    24    32    33    1
    25    33    34    1
    26    34    35    1
    27    35    36    1
    28    36    37    1
    29    37    38    1
    30    17    21    1
    31    21    22    1
    32    22    23   ar
    33    23    24   ar
    34    24    25   ar
    35    25    26   ar
    36    26    27   ar
    37     6     1   ar
    38    20    15   ar
    39    38    34    1
    40    27    22   ar
    41    26     4    1
    42    21    28    1
@<TRIPOS>MOLECULE
*****
 38 42 0 0 0
SMALL
GASTEIGER

@<TRIPOS>ATOM
      1 C           5.1329   -1.7199   33.0003 C.ar    1  UNL1        0.1370
      2 C           6.2573   -2.7010   32.8490 C.ar    1  UNL1        0.0367
      3 C           6.6702   -3.1639   31.4833 C.ar    1  UNL1        0.0046
      4 C           6.1695   -2.8437   30.0608 C.ar    1  UNL1        0.0178
      5 C           5.4189   -2.1126   31.1341 C.ar    1  UNL1        0.0027
      6 C           4.4213   -1.2016   31.7859 C.ar    1  UNL1        0.0413
      7 C           3.2967   -0.2205   31.9371 C.3     1  UNL1        0.1721
      8 O           2.1810    0.7124   31.5698 O.3     1  UNL1       -0.3442
      9 C           1.2088    1.4846   30.7281 C.3     1  UNL1        0.1686
     10 C           0.4972    2.0028   29.5136 C.2     1  UNL1        0.0036
     11 C           0.1320    2.2047   28.0728 C.2     1  UNL1        0.0036
     12 C           0.1574    2.0658   26.5795 C.3     1  UNL1        0.1686
     13 O           0.5703    1.6030   25.2137 O.3     1  UNL1       -0.3442
     14 C           1.3208    0.8720   24.1403 C.3     1  UNL1        0.1721
     15 C           2.3185   -0.0391   23.4886 C.ar    1  UNL1        0.0425
     16 C           3.4430   -1.0202   23.3373 C.ar    1  UNL1        0.0158
     17 C           4.5587   -1.9531   23.7046 C.ar    1  UNL1        0.0504
     18 C           4.3139   -1.8611   22.1853 C.ar    1  UNL1        0.0178
     19 C           3.3416   -1.0889   21.3436 C.ar    1  UNL1        0.0379
     20 C           2.3439   -0.1779   21.9953 C.ar    1  UNL1        0.1370
     21 N           5.5310   -2.7252   24.5463 N.pl3   1  UNL1       -0.2825
     22 C           6.2426   -3.2435   25.7609 C.ar    1  UNL1        0.2207
     23 N           7.3671   -4.2246   25.6096 N.ar    1  UNL1       -0.2120
     24 C           8.0787   -4.7429   26.8240 C.ar    1  UNL1        0.1034
     25 C           7.6658   -4.2800   28.1898 C.ar    1  UNL1        0.0399
     26 C           6.5414   -3.2989   28.3411 C.ar    1  UNL1        0.0857
     27 N           5.8298   -2.7807   27.1266 N.ar    1  UNL1       -0.2135
     28 H           6.0236   -3.2050   23.8418 H       1  UNL1        0.1551
     29 C           5.6332   -0.3778   35.1679 C.3     1  UNL1        0.2525
     30 O           4.7200   -1.2570   34.3661 O.3     1  UNL1       -0.4717
     31 O           1.3716    0.5942   21.1536 O.3     1  UNL1       -0.4742
     32 C           0.8518    0.0042   19.8762 C.3     1  UNL1        0.2226
     33 C           1.3014    0.5582   18.5567 C.3     1  UNL1        0.1200
     34 N           2.7568    0.5437   18.1939 N.3     1  UNL1       -0.2696
     35 C           3.4512   -0.5048   17.3764 C.3     1  UNL1        0.0722
     36 C           4.8969   -0.1214   17.2622 C.3     1  UNL1        0.0188
     37 C           5.0959    1.1641   18.0092 C.3     1  UNL1        0.0188
     38 C           3.7732    1.5750   18.5850 C.3     1  UNL1        0.0722
@<TRIPOS>BOND
     1    29    30    1
     2    30     1    1
     3     1     2   ar
     4     2     3   ar
     5     3     4   ar
     6     4     5   ar
     7     5     6   ar
     8     6     7    1
     9     7     8    1
    10     8     9    1
    11     9    10    1
    12    10    11    2
    13    11    12    1
    14    12    13    1
    15    13    14    1
    16    14    15    1
    17    15    16   ar
    18    16    17   ar
    19    17    18   ar
    20    18    19   ar
    21    19    20   ar
    22    20    31    1
    23    31    32    1
    24    32    33    1
    25    33    34    1
    26    34    35    1
    27    35    36    1
    28    36    37    1
    29    37    38    1
    30    17    21    1
    31    21    22    1
    32    22    23   ar
    33    23    24   ar
    34    24    25   ar
    35    25    26   ar
    36    26    27   ar
    37     6     1   ar
    38    20    15   ar
    39    38    34    1
    40    27    22   ar
    41    26     4    1
    42    21    28    1
@<TRIPOS>MOLECULE
*****
 38 42 0 0 0
SMALL
GASTEIGER

@<TRIPOS>ATOM
      1 C           7.3028   -5.0426   23.5032 C.ar    1  UNL1        0.1370
      2 C           8.1312   -6.1181   24.1411 C.ar    1  UNL1        0.0367
      3 C           8.2121   -6.2152   25.6358 C.ar    1  UNL1        0.0046
      4 C           7.5893   -5.3978   26.7850 C.ar    1  UNL1        0.0178
      5 C           7.2020   -4.9009   25.4237 C.ar    1  UNL1        0.0027
      6 C           6.5552   -4.0643   24.3599 C.ar    1  UNL1        0.0413
      7 C           5.7267   -2.9888   23.7219 C.3     1  UNL1        0.1721
      8 O           4.8165   -1.8042   23.5868 O.3     1  UNL1       -0.3442
      9 C           3.9345   -0.6533   23.9707 C.3     1  UNL1        0.1686
     10 C           3.1869    0.3250   24.8274 C.2     1  UNL1        0.0036
     11 C           2.6640    1.0128   26.0536 C.2     1  UNL1        0.0036
     12 C           2.4288    1.3271   27.5013 C.3     1  UNL1        0.1686
     13 O           2.5097    1.2299   28.9960 O.3     1  UNL1       -0.3442
     14 C           2.8969    0.7331   30.3573 C.3     1  UNL1        0.1721
     15 C           3.5437   -0.1035   31.4211 C.ar    1  UNL1        0.0425
     16 C           4.3722   -1.1790   32.0590 C.ar    1  UNL1        0.0158
     17 C           5.2823   -2.3636   32.1942 C.ar    1  UNL1        0.0504
     18 C           4.8374   -1.7767   33.5486 C.ar    1  UNL1        0.0178
     19 C           3.9554   -0.6259   33.9326 C.ar    1  UNL1        0.0379
     20 C           3.3085    0.2108   32.8688 C.ar    1  UNL1        0.1370
     21 N           6.1644   -3.5145   31.8103 N.pl3   1  UNL1       -0.2825
     22 C           6.9120   -4.4929   30.9535 C.ar    1  UNL1        0.2207
     23 N           7.7405   -5.5683   31.5915 N.ar    1  UNL1       -0.2120
     24 C           8.4880   -6.5466   30.7348 C.ar    1  UNL1        0.1034
     25 C           8.4071   -6.4495   29.2401 C.ar    1  UNL1        0.0399
     26 C           7.5787   -5.3740   28.6021 C.ar    1  UNL1        0.0857
     27 N           6.8311   -4.3957   29.4589 N.ar    1  UNL1       -0.2135
     28 H           6.4185   -3.8406   32.7037 H       1  UNL1        0.1551
     29 C           8.4725   -5.0168   21.1835 C.3     1  UNL1        0.2525
     30 O           7.2219   -4.9455   22.0085 O.3     1  UNL1       -0.4717
     31 O           2.4264    1.3617   33.2528 O.3     1  UNL1       -0.4742
     32 C           3.0011    2.5322   33.9942 C.3     1  UNL1        0.2226
     33 C           2.2146    3.1832   35.0931 C.3     1  UNL1        0.1200
     34 N           2.3422    2.6861   36.5027 N.3     1  UNL1       -0.2696
     35 C           1.6681    3.2710   37.7082 C.3     1  UNL1        0.0722
     36 C           2.0756    2.4633   38.9046 C.3     1  UNL1        0.0188
     37 C           3.0016    1.3793   38.4385 C.3     1  UNL1        0.0188
     38 C           3.1663    1.5170   36.9540 C.3     1  UNL1        0.0722
@<TRIPOS>BOND
     1    29    30    1
     2    30     1    1
     3     1     2   ar
     4     2     3   ar
     5     3     4   ar
     6     4     5   ar
     7     5     6   ar
     8     6     7    1
     9     7     8    1
    10     8     9    1
    11     9    10    1
    12    10    11    2
    13    11    12    1
    14    12    13    1
    15    13    14    1
    16    14    15    1
    17    15    16   ar
    18    16    17   ar
    19    17    18   ar
    20    18    19   ar
    21    19    20   ar
    22    20    31    1
    23    31    32    1
    24    32    33    1
    25    33    34    1
    26    34    35    1
    27    35    36    1
    28    36    37    1
    29    37    38    1
    30    17    21    1
    31    21    22    1
    32    22    23   ar
    33    23    24   ar
    34    24    25   ar
    35    25    26   ar
    36    26    27   ar
    37     6     1   ar
    38    20    15   ar
    39    38    34    1
    40    27    22   ar
    41    26     4    1
    42    21    28    1
@<TRIPOS>MOLECULE
*****
 38 42 0 0 0
SMALL
GASTEIGER

@<TRIPOS>ATOM
      1 C           4.4975   -2.6636   21.7051 C.ar    1  UNL1        0.1370
      2 C           3.5552   -1.6390   21.1464 C.ar    1  UNL1        0.0367
      3 C           2.8563   -0.6822   22.0663 C.ar    1  UNL1        0.0046
      4 C           2.8746   -0.4783   23.5943 C.ar    1  UNL1        0.0178
      5 C           3.7655   -1.5931   23.1323 C.ar    1  UNL1        0.0027
      6 C           4.7409   -2.7315   23.1836 C.ar    1  UNL1        0.0413
      7 C           5.6832   -3.7562   23.7424 C.3     1  UNL1        0.1721
      8 O           6.4787   -4.5435   24.7410 O.3     1  UNL1       -0.3442
      9 C           7.0314   -4.9986   26.0591 C.3     1  UNL1        0.1686
     10 C           7.2748   -5.0664   27.5377 C.2     1  UNL1        0.0036
     11 C           7.1794   -4.7390   28.9984 C.2     1  UNL1        0.0036
     12 C           6.7568   -4.0556   30.2650 C.3     1  UNL1        0.1686
     13 O           6.0579   -3.0989   31.1849 O.3     1  UNL1       -0.3442
     14 C           5.1670   -1.9841   31.6469 C.3     1  UNL1        0.1721
     15 C           4.1916   -0.8457   31.5955 C.ar    1  UNL1        0.0425
     16 C           3.2493    0.1790   31.0368 C.ar    1  UNL1        0.0158
     17 C           2.4538    0.9663   30.0382 C.ar    1  UNL1        0.0504
     18 C           2.2408    1.4311   31.4927 C.ar    1  UNL1        0.0178
     19 C           2.7936    0.9760   32.8108 C.ar    1  UNL1        0.0379
     20 C           3.7690   -0.1624   32.8622 C.ar    1  UNL1        0.1370
     21 N           1.9011    1.4214   28.7201 N.pl3   1  UNL1       -0.2825
     22 C           1.6577    1.4893   27.2415 C.ar    1  UNL1        0.2207
     23 N           0.7154    2.5139   26.6828 N.ar    1  UNL1       -0.2120
     24 C           0.4720    2.5818   25.2043 C.ar    1  UNL1        0.1034
     25 C           1.1709    1.6250   24.2844 C.ar    1  UNL1        0.0399
     26 C           2.1132    0.6004   24.8431 C.ar    1  UNL1        0.0857
     27 N           2.3566    0.5325   26.3217 N.ar    1  UNL1       -0.2135
     28 H           1.3163    2.1531   29.0234 H       1  UNL1        0.1551
     29 C           5.5168   -3.2098   19.3786 C.3     1  UNL1        0.2525
     30 O           5.1964   -3.6204   20.7853 O.3     1  UNL1       -0.4717
     31 O           4.3218   -0.6174   34.1803 O.3     1  UNL1       -0.4742
     32 C           4.8903    0.3844   35.1412 C.3     1  UNL1        0.2226
     33 C           4.5402    0.3088   36.5978 C.3     1  UNL1        0.1200
     34 N           3.5448    1.2677   37.1806 N.3     1  UNL1       -0.2696
     35 C           2.7906    1.0837   38.4641 C.3     1  UNL1        0.0722
     36 C           1.9085    2.2812   38.6590 C.3     1  UNL1        0.0188
     37 C           2.1175    3.2052   37.4961 C.3     1  UNL1        0.0188
     38 C           3.1289    2.5787   36.5824 C.3     1  UNL1        0.0722
@<TRIPOS>BOND
     1    29    30    1
     2    30     1    1
     3     1     2   ar
     4     2     3   ar
     5     3     4   ar
     6     4     5   ar
     7     5     6   ar
     8     6     7    1
     9     7     8    1
    10     8     9    1
    11     9    10    1
    12    10    11    2
    13    11    12    1
    14    12    13    1
    15    13    14    1
    16    14    15    1
    17    15    16   ar
    18    16    17   ar
    19    17    18   ar
    20    18    19   ar
    21    19    20   ar
    22    20    31    1
    23    31    32    1
    24    32    33    1
    25    33    34    1
    26    34    35    1
    27    35    36    1
    28    36    37    1
    29    37    38    1
    30    17    21    1
    31    21    22    1
    32    22    23   ar
    33    23    24   ar
    34    24    25   ar
    35    25    26   ar
    36    26    27   ar
    37     6     1   ar
    38    20    15   ar
    39    38    34    1
    40    27    22   ar
    41    26     4    1
    42    21    28    1
@<TRIPOS>MOLECULE
*****
 38 42 0 0 0
SMALL
GASTEIGER

@<TRIPOS>ATOM
      1 C           4.7360   -1.2027   32.9268 C.ar    1  UNL1        0.1370
      2 C           5.7628   -2.2584   33.2115 C.ar    1  UNL1        0.0367
      3 C           6.3542   -3.0527   32.0849 C.ar    1  UNL1        0.0046
      4 C           6.1407   -3.0452   30.5581 C.ar    1  UNL1        0.0178
      5 C           5.2962   -2.0387   31.2818 C.ar    1  UNL1        0.0027
      6 C           4.3005   -0.9414   31.5154 C.ar    1  UNL1        0.0413
      7 C           3.2736    0.1143   31.2306 C.3     1  UNL1        0.1721
      8 O           2.3395    1.0011   30.4618 O.3     1  UNL1       -0.3442
      9 C           1.6107    1.6119   29.3017 C.3     1  UNL1        0.1686
     10 C           1.1753    1.8732   27.8904 C.2     1  UNL1        0.0036
     11 C           1.0856    1.7535   26.3978 C.2     1  UNL1        0.0036
     12 C           1.3525    1.2671   25.0042 C.3     1  UNL1        0.1686
     13 O           1.9439    0.4727   23.8776 O.3     1  UNL1       -0.3442
     14 C           2.7883   -0.5338   23.1539 C.3     1  UNL1        0.1721
     15 C           3.7841   -1.6311   22.9203 C.ar    1  UNL1        0.0425
     16 C           4.8109   -2.6868   23.2051 C.ar    1  UNL1        0.0158
     17 C           5.7450   -3.5735   23.9738 C.ar    1  UNL1        0.0504
     18 C           5.7754   -3.8256   22.4532 C.ar    1  UNL1        0.0178
     19 C           5.0467   -3.2147   21.2931 C.ar    1  UNL1        0.0379
     20 C           4.0509   -2.1174   21.5267 C.ar    1  UNL1        0.1370
     21 N           6.4738   -4.1844   25.1339 N.pl3   1  UNL1       -0.2825
     22 C           6.9093   -4.4457   26.5454 C.ar    1  UNL1        0.2207
     23 N           7.9361   -5.5014   26.8301 N.ar    1  UNL1       -0.2120
     24 C           8.3716   -5.7627   28.2415 C.ar    1  UNL1        0.1034
     25 C           7.7802   -4.9683   29.3681 C.ar    1  UNL1        0.0399
     26 C           6.7534   -3.9127   29.0834 C.ar    1  UNL1        0.0857
     27 N           6.3179   -3.6514   27.6720 N.ar    1  UNL1       -0.2135
     28 H           7.0280   -4.8450   24.6589 H       1  UNL1        0.1551
     29 C           4.7582   -0.4743   35.4205 C.3     1  UNL1        0.2525
     30 O           4.1446   -0.4083   34.0534 O.3     1  UNL1       -0.4717
     31 O           3.3222   -1.5066   20.3666 O.3     1  UNL1       -0.4742
     32 C           3.9103   -1.5802   18.9886 C.3     1  UNL1        0.2226
     33 C           3.3921   -0.6838   17.9033 C.3     1  UNL1        0.1200
     34 N           2.6469    0.5690   18.2572 N.3     1  UNL1       -0.2696
     35 C           3.2569    1.9155   18.5117 C.3     1  UNL1        0.0722
     36 C           2.1479    2.8739   18.8305 C.3     1  UNL1        0.0188
     37 C           0.8526    2.1198   18.7730 C.3     1  UNL1        0.0188
     38 C           1.1611    0.6952   18.4187 C.3     1  UNL1        0.0722
@<TRIPOS>BOND
     1    29    30    1
     2    30     1    1
     3     1     2   ar
     4     2     3   ar
     5     3     4   ar
     6     4     5   ar
     7     5     6   ar
     8     6     7    1
     9     7     8    1
    10     8     9    1
    11     9    10    1
    12    10    11    2
    13    11    12    1
    14    12    13    1
    15    13    14    1
    16    14    15    1
    17    15    16   ar
    18    16    17   ar
    19    17    18   ar
    20    18    19   ar
    21    19    20   ar
    22    20    31    1
    23    31    32    1
    24    32    33    1
    25    33    34    1
    26    34    35    1
    27    35    36    1
    28    36    37    1
    29    37    38    1
    30    17    21    1
    31    21    22    1
    32    22    23   ar
    33    23    24   ar
    34    24    25   ar
    35    25    26   ar
    36    26    27   ar
    37     6     1   ar
    38    20    15   ar
    39    38    34    1
    40    27    22   ar
    41    26     4    1
    42    21    28    1
@<TRIPOS>MOLECULE
*****
 38 42 0 0 0
SMALL
GASTEIGER

@<TRIPOS>ATOM
      1 C          -5.5608    5.3239   25.2032 C.ar    1  UNL1        0.1370
      2 C          -5.1935    4.9043   26.5957 C.ar    1  UNL1        0.0367
      3 C          -3.9429    4.1112   26.8347 C.ar    1  UNL1        0.0046
      4 C          -2.8378    3.5714   25.9052 C.ar    1  UNL1        0.0178
      5 C          -3.9110    4.3258   25.1777 C.ar    1  UNL1        0.0027
      6 C          -4.6775    4.9504   24.0498 C.ar    1  UNL1        0.0413
      7 C          -5.0448    5.3700   22.6573 C.3     1  UNL1        0.1721
      8 O          -4.9687    5.5340   21.1682 O.3     1  UNL1       -0.3442
      9 C          -4.4581    5.4225   19.7622 C.3     1  UNL1        0.1686
     10 C          -3.5749    5.0490   18.6088 C.2     1  UNL1        0.0036
     11 C          -2.4254    4.4586   17.8471 C.2     1  UNL1        0.0036
     12 C          -1.1484    3.7225   17.5691 C.3     1  UNL1        0.1686
     13 O           0.1022    2.9295   17.8081 O.3     1  UNL1       -0.3442
     14 C           1.1754    2.1751   18.5355 C.3     1  UNL1        0.1721
     15 C           1.9420    1.5505   19.6635 C.ar    1  UNL1        0.0425
     16 C           2.3093    1.1309   21.0559 C.ar    1  UNL1        0.0158
     17 C           2.2331    0.9669   22.5450 C.ar    1  UNL1        0.0504
     18 C           3.4750    0.3012   21.9193 C.ar    1  UNL1        0.0178
     19 C           3.9855    0.1897   20.5133 C.ar    1  UNL1        0.0379
     20 C           3.2190    0.8144   19.3853 C.ar    1  UNL1        0.1370
     21 N           1.7226    1.0784   23.9510 N.pl3   1  UNL1       -0.2825
     22 C           0.8393    1.4519   25.1045 C.ar    1  UNL1        0.2207
     23 N           1.2066    1.0323   26.4969 N.ar    1  UNL1       -0.2120
     24 C           0.3234    1.4058   27.6503 C.ar    1  UNL1        0.1034
     25 C          -0.9272    2.1988   27.4112 C.ar    1  UNL1        0.0399
     26 C          -1.2945    2.6184   26.0188 C.ar    1  UNL1        0.0857
     27 N          -0.4113    2.2449   24.8654 N.ar    1  UNL1       -0.2135
     28 H           2.4270    0.5833   24.4284 H       1  UNL1        0.1551
     29 C          -7.8589    6.2061   26.0340 C.3     1  UNL1        0.2525
     30 O          -6.8114    6.1169   24.9642 O.3     1  UNL1       -0.4717
     31 O           3.7295    0.7029   17.9793 O.3     1  UNL1       -0.4742
     32 C           3.6432   -0.6060   17.2516 C.3     1  UNL1        0.2226
     33 C           4.7602   -1.6009   17.3628 C.3     1  UNL1        0.1200
     34 N           4.8269   -2.5249   18.5426 N.3     1  UNL1       -0.2696
     35 C           6.0427   -2.8052   19.3752 C.3     1  UNL1        0.0722
     36 C           5.6568   -3.7843   20.4441 C.3     1  UNL1        0.0188
     37 C           4.2025   -4.1090   20.2721 C.3     1  UNL1        0.0188
     38 C           3.6897   -3.3306   19.0969 C.3     1  UNL1        0.0722
@<TRIPOS>BOND
     1    29    30    1
     2    30     1    1
     3     1     2   ar
     4     2     3   ar
     5     3     4   ar
     6     4     5   ar
     7     5     6   ar
     8     6     7    1
     9     7     8    1
    10     8     9    1
    11     9    10    1
    12    10    11    2
    13    11    12    1
    14    12    13    1
    15    13    14    1
    16    14    15    1
    17    15    16   ar
    18    16    17   ar
    19    17    18   ar
    20    18    19   ar
    21    19    20   ar
    22    20    31    1
    23    31    32    1
    24    32    33    1
    25    33    34    1
    26    34    35    1
    27    35    36    1
    28    36    37    1
    29    37    38    1
    30    17    21    1
    31    21    22    1
    32    22    23   ar
    33    23    24   ar
    34    24    25   ar
    35    25    26   ar
    36    26    27   ar
    37     6     1   ar
    38    20    15   ar
    39    38    34    1
    40    27    22   ar
    41    26     4    1
    42    21    28    1
@<TRIPOS>MOLECULE
*****
 38 42 0 0 0
SMALL
GASTEIGER

@<TRIPOS>ATOM
      1 C           0.2598    1.1883   20.5879 C.ar    1  UNL1        0.1370
      2 C           0.9631    0.2754   19.6277 C.ar    1  UNL1        0.0367
      3 C           2.0442   -0.6409   20.1193 C.ar    1  UNL1        0.0046
      4 C           2.6667   -0.8953   21.5066 C.ar    1  UNL1        0.0178
      5 C           1.5865    0.1454   21.5210 C.ar    1  UNL1        0.0027
      6 C           0.6375    1.1849   22.0395 C.ar    1  UNL1        0.0413
      7 C          -0.0658    2.0978   22.9997 C.3     1  UNL1        0.1721
      8 O          -0.4387    2.7741   24.2856 O.3     1  UNL1       -0.3442
      9 C          -0.4361    3.1320   25.7423 C.3     1  UNL1        0.1686
     10 C          -0.0584    3.1286   27.1939 C.2     1  UNL1        0.0036
     11 C           0.6489    2.7641   28.4655 C.2     1  UNL1        0.0036
     12 C           1.6005    2.0826   29.4036 C.3     1  UNL1        0.1686
     13 O           2.6815    1.1662   29.8951 O.3     1  UNL1       -0.3442
     14 C           3.7617    0.1256   29.8807 C.3     1  UNL1        0.1721
     15 C           4.7107   -0.9139   29.3622 C.ar    1  UNL1        0.0425
     16 C           5.4140   -1.8269   28.4021 C.ar    1  UNL1        0.0158
     17 C           5.7869   -2.5031   27.1162 C.ar    1  UNL1        0.0504
     18 C           6.6086   -2.9929   28.3252 C.ar    1  UNL1        0.0178
     19 C           6.6112   -2.6349   29.7818 C.ar    1  UNL1        0.0379
     20 C           5.6622   -1.5954   30.3004 C.ar    1  UNL1        0.1370
     21 N           5.7843   -2.8611   25.6595 N.pl3   1  UNL1       -0.2825
     22 C           5.4066   -2.8577   24.2078 C.ar    1  UNL1        0.2207
     23 N           6.1099   -3.7706   23.2477 N.ar    1  UNL1       -0.2120
     24 C           5.7322   -3.7671   21.7960 C.ar    1  UNL1        0.1034
     25 C           4.6511   -2.8507   21.3045 C.ar    1  UNL1        0.0399
     26 C           3.9478   -1.9378   22.2646 C.ar    1  UNL1        0.0857
     27 N           4.3255   -1.9413   23.7163 N.ar    1  UNL1       -0.2135
     28 H           6.4932   -3.5441   25.6501 H       1  UNL1        0.1551
     29 C          -0.4649    3.3295   19.3072 C.3     1  UNL1        0.2525
     30 O          -0.8212    2.1047   20.0963 O.3     1  UNL1       -0.4717
     31 O           5.6648   -1.2374   31.7570 O.3     1  UNL1       -0.4742
     32 C           5.0612   -2.1747   32.7607 C.3     1  UNL1        0.2226
     33 C           4.3851   -1.6296   33.9838 C.3     1  UNL1        0.1200
     34 N           5.1701   -0.8304   34.9814 N.3     1  UNL1       -0.2696
     35 C           4.6251   -0.1924   36.2247 C.3     1  UNL1        0.0722
     36 C           5.7560    0.5034   36.9225 C.3     1  UNL1        0.0188
     37 C           6.9999    0.2953   36.1106 C.3     1  UNL1        0.0188
     38 C           6.6377   -0.5291   34.9108 C.3     1  UNL1        0.0722
@<TRIPOS>BOND
     1    29    30    1
     2    30     1    1
     3     1     2   ar
     4     2     3   ar
     5     3     4   ar
     6     4     5   ar
     7     5     6   ar
     8     6     7    1
     9     7     8    1
    10     8     9    1
    11     9    10    1
    12    10    11    2
    13    11    12    1
    14    12    13    1
    15    13    14    1
    16    14    15    1
    17    15    16   ar
    18    16    17   ar
    19    17    18   ar
    20    18    19   ar
    21    19    20   ar
    22    20    31    1
    23    31    32    1
    24    32    33    1
    25    33    34    1
    26    34    35    1
    27    35    36    1
    28    36    37    1
    29    37    38    1
    30    17    21    1
    31    21    22    1
    32    22    23   ar
    33    23    24   ar
    34    24    25   ar
    35    25    26   ar
    36    26    27   ar
    37     6     1   ar
    38    20    15   ar
    39    38    34    1
    40    27    22   ar
    41    26     4    1
    42    21    28    1
