@<TRIPOS>MOLECULE
*****
 29 32 0 0 0
SMALL
GASTEIGER

@<TRIPOS>ATOM
      1 N           2.5064   -0.6041   21.3315 N.pl3   1  UNL1       -0.3040
      2 C           1.5352   -0.8375   20.2124 C.3     1  UNL1        0.1123
      3 C           0.5556    0.2336   19.8339 C.3     1  UNL1        0.1149
      4 N           0.5472    1.5380   20.5744 N.pl3   1  UNL1       -0.2777
      5 C           1.5184    1.7713   21.6936 C.3     1  UNL1        0.0953
      6 C           1.5099    3.0757   22.4342 C.3     1  UNL1        0.0233
      7 C           2.4979    0.7003   22.0721 C.3     1  UNL1        0.1106
      8 C          -0.4324    2.6090   20.1960 C.ar    1  UNL1        0.2035
      9 N          -1.7486    2.7074   20.9086 N.ar    1  UNL1       -0.2133
     10 C          -2.7282    3.7785   20.5302 C.ar    1  UNL1        0.1065
     11 C          -2.3916    4.7511   19.4390 C.ar    1  UNL1        0.0815
     12 C          -1.0754    4.6527   18.7263 C.ar    1  UNL1        0.2646
     13 O          -0.7388    5.6254   17.6351 O.2     1  UNL1       -0.2668
     14 N          -0.0958    3.5817   19.1048 N.ar    1  UNL1       -0.2667
     15 C           1.2204    3.4833   18.3921 C.3     1  UNL1        0.1363
     16 C          -4.0444    3.8769   21.2429 C.ar    1  UNL1        0.1024
     17 C          -4.1436    3.4973   22.6907 C.ar    1  UNL1        0.0414
     18 C          -5.4597    3.5957   23.4033 C.ar    1  UNL1        0.1023
     19 N          -6.6768    4.0737   22.6682 N.ar    1  UNL1       -0.2224
     20 C          -6.5777    4.4532   21.2204 C.ar    1  UNL1        0.1989
     21 N          -5.2614    4.3548   20.5077 N.ar    1  UNL1       -0.2224
     22 C           4.9743   -3.6990   21.0477 C.ar    1  UNL1        0.1400
     23 C           5.4452   -3.8172   22.4670 C.ar    1  UNL1        0.0370
     24 C           4.9364   -2.8643   23.5077 C.ar    1  UNL1        0.0044
     25 C           3.9568   -1.7933   23.1293 C.ar    1  UNL1        0.0147
     26 C           3.4860   -1.6751   21.7100 C.ar    1  UNL1        0.0510
     27 C           3.9947   -2.6280   20.6692 C.ar    1  UNL1        0.0514
     28 C           4.6279   -4.9971   18.8240 C.3     1  UNL1        0.2525
     29 O           5.4831   -4.6519   20.0070 O.3     1  UNL1       -0.4714
@<TRIPOS>BOND
     1    28    29    1
     2    29    22    1
     3    22    23   ar
     4    23    24   ar
     5    24    25   ar
     6    25    26   ar
     7    26     1    1
     8     1     2    1
     9     2     3    1
    10     3     4    1
    11     4     8    1
    12     8     9   ar
    13     9    10   ar
    14    10    16    1
    15    16    17   ar
    16    17    18   ar
    17    18    19   ar
    18    19    20   ar
    19    20    21   ar
    20    10    11   ar
    21    11    12   ar
    22    12    13    2
    23    12    14   ar
    24    14    15    1
    25     4     5    1
    26     5     6    1
    27     5     7    1
    28    26    27   ar
    29    27    22   ar
    30     7     1    1
    31    14     8   ar
    32    21    16   ar
@<TRIPOS>MOLECULE
*****
 29 32 0 0 0
SMALL
GASTEIGER

@<TRIPOS>ATOM
      1 N           2.3836   -0.0817   19.5094 N.pl3   1  UNL1       -0.3040
      2 C           1.2064   -0.6801   20.2207 C.3     1  UNL1        0.1123
      3 C           0.0870    0.2009   20.6909 C.3     1  UNL1        0.1149
      4 N           0.1450    1.6802   20.4497 N.pl3   1  UNL1       -0.2777
      5 C           1.3224    2.2786   19.7384 C.3     1  UNL1        0.0953
      6 C           1.3804    3.7579   19.4973 C.3     1  UNL1        0.0233
      7 C           2.4416    1.3976   19.2683 C.3     1  UNL1        0.1106
      8 C          -0.9742    2.5612   20.9199 C.ar    1  UNL1        0.2035
      9 N          -2.1216    2.8692   20.0041 N.ar    1  UNL1       -0.2133
     10 C          -3.2409    3.7502   20.4742 C.ar    1  UNL1        0.1065
     11 C          -3.2128    4.3232   21.8602 C.ar    1  UNL1        0.0815
     12 C          -2.0654    4.0152   22.7760 C.ar    1  UNL1        0.2646
     13 O          -2.0373    4.5882   24.1620 O.2     1  UNL1       -0.2668
     14 N          -0.9461    3.1342   22.3058 N.ar    1  UNL1       -0.2667
     15 C           0.2012    2.8263   23.2216 C.3     1  UNL1        0.1363
     16 C          -4.3882    4.0582   19.5584 C.ar    1  UNL1        0.1024
     17 C          -5.7102    3.3780   19.7575 C.ar    1  UNL1        0.0414
     18 C          -6.8576    3.6860   18.8417 C.ar    1  UNL1        0.1023
     19 N          -6.6829    4.6742   17.7268 N.ar    1  UNL1       -0.2224
     20 C          -5.3609    5.3544   17.5277 C.ar    1  UNL1        0.1989
     21 N          -4.2135    5.0463   18.4435 N.ar    1  UNL1       -0.2224
     22 C           5.7568   -1.2587   17.7813 C.ar    1  UNL1        0.1400
     23 C           5.7415   -2.7246   18.0988 C.ar    1  UNL1        0.0370
     24 C           4.6069   -3.3096   18.8865 C.ar    1  UNL1        0.0044
     25 C           3.4876   -2.4286   19.3567 C.ar    1  UNL1        0.0147
     26 C           3.5029   -0.9627   19.0392 C.ar    1  UNL1        0.0510
     27 C           4.6376   -0.3778   18.2515 C.ar    1  UNL1        0.0514
     28 C           6.8818    0.7822   16.6327 C.3     1  UNL1        0.2525
     29 O           6.8915   -0.6737   16.9936 O.3     1  UNL1       -0.4714
@<TRIPOS>BOND
     1    28    29    1
     2    29    22    1
     3    22    23   ar
     4    23    24   ar
     5    24    25   ar
     6    25    26   ar
     7    26     1    1
     8     1     2    1
     9     2     3    1
    10     3     4    1
    11     4     8    1
    12     8     9   ar
    13     9    10   ar
    14    10    16    1
    15    16    17   ar
    16    17    18   ar
    17    18    19   ar
    18    19    20   ar
    19    20    21   ar
    20    10    11   ar
    21    11    12   ar
    22    12    13    2
    23    12    14   ar
    24    14    15    1
    25     4     5    1
    26     5     6    1
    27     5     7    1
    28    26    27   ar
    29    27    22   ar
    30     7     1    1
    31    14     8   ar
    32    21    16   ar
@<TRIPOS>MOLECULE
*****
 29 32 0 0 0
SMALL
GASTEIGER

@<TRIPOS>ATOM
      1 N         -15.4876   -6.2853   18.5299 N.pl3   1  UNL1       -0.3040
      2 C         -15.4826   -5.5793   17.2065 C.3     1  UNL1        0.1123
      3 C         -14.8989   -4.2021   17.0932 C.3     1  UNL1        0.1149
      4 N         -14.3203   -3.5310   18.3035 N.pl3   1  UNL1       -0.2777
      5 C         -14.3254   -4.2370   19.6270 C.3     1  UNL1        0.0953
      6 C         -13.7468   -3.5658   20.8373 C.3     1  UNL1        0.0233
      7 C         -14.9090   -5.6141   19.7402 C.3     1  UNL1        0.1106
      8 C         -13.7366   -2.1538   18.1903 C.ar    1  UNL1        0.2035
      9 N         -14.5757   -0.9544   18.5179 N.ar    1  UNL1       -0.2133
     10 C         -13.9920    0.4228   18.4047 C.ar    1  UNL1        0.1065
     11 C         -12.5693    0.6005   17.9639 C.ar    1  UNL1        0.0815
     12 C         -11.7303   -0.5990   17.6363 C.ar    1  UNL1        0.2646
     13 O         -10.3076   -0.4213   17.1955 O.2     1  UNL1       -0.2668
     14 N         -12.3139   -1.9761   17.7495 N.ar    1  UNL1       -0.2667
     15 C         -11.4749   -3.1755   17.4218 C.3     1  UNL1        0.1363
     16 C         -14.8311    1.6222   18.7323 C.ar    1  UNL1        0.1024
     17 C         -16.0507    1.4720   19.5926 C.ar    1  UNL1        0.0414
     18 C         -16.8897    2.6714   19.9202 C.ar    1  UNL1        0.1023
     19 N         -16.5092    4.0211   19.3876 N.ar    1  UNL1       -0.2224
     20 C         -15.2896    4.1712   18.5273 C.ar    1  UNL1        0.1989
     21 N         -14.4506    2.9717   18.1997 N.ar    1  UNL1       -0.2224
     22 C         -17.9950   -9.2355   19.4014 C.ar    1  UNL1        0.1400
     23 C         -17.2387  -10.4166   18.8697 C.ar    1  UNL1        0.0370
     24 C         -15.8987  -10.2207   18.2248 C.ar    1  UNL1        0.0044
     25 C         -15.3150   -8.8436   18.1115 C.ar    1  UNL1        0.0147
     26 C         -16.0713   -7.6624   18.6432 C.ar    1  UNL1        0.0510
     27 C         -17.4113   -7.8584   19.2881 C.ar    1  UNL1        0.0514
     28 C         -19.9768   -8.3042   20.7997 C.3     1  UNL1        0.2525
     29 O         -19.3350   -9.4314   20.0464 O.3     1  UNL1       -0.4714
@<TRIPOS>BOND
     1    28    29    1
     2    29    22    1
     3    22    23   ar
     4    23    24   ar
     5    24    25   ar
     6    25    26   ar
     7    26     1    1
     8     1     2    1
     9     2     3    1
    10     3     4    1
    11     4     8    1
    12     8     9   ar
    13     9    10   ar
    14    10    16    1
    15    16    17   ar
    16    17    18   ar
    17    18    19   ar
    18    19    20   ar
    19    20    21   ar
    20    10    11   ar
    21    11    12   ar
    22    12    13    2
    23    12    14   ar
    24    14    15    1
    25     4     5    1
    26     5     6    1
    27     5     7    1
    28    26    27   ar
    29    27    22   ar
    30     7     1    1
    31    14     8   ar
    32    21    16   ar
@<TRIPOS>MOLECULE
*****
 29 32 0 0 0
SMALL
GASTEIGER

@<TRIPOS>ATOM
      1 N         -12.0523   -1.6011   17.8834 N.pl3   1  UNL1       -0.3040
      2 C         -11.7520   -0.2338   17.3447 C.3     1  UNL1        0.1123
      3 C         -12.7185    0.8907   17.5718 C.3     1  UNL1        0.1149
      4 N         -13.9852    0.6479   18.3376 N.pl3   1  UNL1       -0.2777
      5 C         -14.2855   -0.7195   18.8763 C.3     1  UNL1        0.0953
      6 C         -15.5522   -0.9624   19.6421 C.3     1  UNL1        0.0233
      7 C         -13.3191   -1.8440   18.6492 C.3     1  UNL1        0.1106
      8 C         -14.9516    1.7723   18.5647 C.ar    1  UNL1        0.2035
      9 N         -14.7532    2.7103   19.7182 N.ar    1  UNL1       -0.2133
     10 C         -15.7196    3.8348   19.9454 C.ar    1  UNL1        0.1065
     11 C         -16.8844    4.0213   19.0189 C.ar    1  UNL1        0.0815
     12 C         -17.0828    3.0833   17.8653 C.ar    1  UNL1        0.2646
     13 O         -18.2477    3.2698   16.9388 O.2     1  UNL1       -0.2668
     14 N         -16.1164    1.9588   17.6382 N.ar    1  UNL1       -0.2667
     15 C         -16.3149    1.0209   16.4846 C.3     1  UNL1        0.1363
     16 C         -15.5212    4.7728   21.0990 C.ar    1  UNL1        0.1024
     17 C         -16.6571    5.6304   21.5723 C.ar    1  UNL1        0.0414
     18 C         -16.4587    6.5684   22.7259 C.ar    1  UNL1        0.1023
     19 N         -15.1242    6.6487   23.4062 N.ar    1  UNL1       -0.2224
     20 C         -13.9883    5.7911   22.9329 C.ar    1  UNL1        0.1989
     21 N         -14.1868    4.8531   21.7793 N.ar    1  UNL1       -0.2224
     22 C         -10.1754   -5.0735   18.2955 C.ar    1  UNL1        0.1400
     23 C          -9.1532   -4.9747   17.2022 C.ar    1  UNL1        0.0370
     24 C          -9.0974   -3.7514   16.3359 C.ar    1  UNL1        0.0044
     25 C         -10.0637   -2.6269   16.5630 C.ar    1  UNL1        0.0147
     26 C         -11.0859   -2.7257   17.6563 C.ar    1  UNL1        0.0510
     27 C         -11.1417   -3.9490   18.5225 C.ar    1  UNL1        0.0514
     28 C          -9.6180   -7.5807   18.6869 C.3     1  UNL1        0.2525
     29 O         -10.2312   -6.2968   19.1618 O.3     1  UNL1       -0.4714
@<TRIPOS>BOND
     1    28    29    1
     2    29    22    1
     3    22    23   ar
     4    23    24   ar
     5    24    25   ar
     6    25    26   ar
     7    26     1    1
     8     1     2    1
     9     2     3    1
    10     3     4    1
    11     4     8    1
    12     8     9   ar
    13     9    10   ar
    14    10    16    1
    15    16    17   ar
    16    17    18   ar
    17    18    19   ar
    18    19    20   ar
    19    20    21   ar
    20    10    11   ar
    21    11    12   ar
    22    12    13    2
    23    12    14   ar
    24    14    15    1
    25     4     5    1
    26     5     6    1
    27     5     7    1
    28    26    27   ar
    29    27    22   ar
    30     7     1    1
    31    14     8   ar
    32    21    16   ar
@<TRIPOS>MOLECULE
*****
 29 32 0 0 0
SMALL
GASTEIGER

@<TRIPOS>ATOM
      1 N           2.6398    0.1980   19.4745 N.pl3   1  UNL1       -0.3040
      2 C           1.4552   -0.5213   20.0483 C.3     1  UNL1        0.1123
      3 C           0.2719    0.2572   20.5420 C.3     1  UNL1        0.1149
      4 N           0.2733    1.7551   20.4619 N.pl3   1  UNL1       -0.2777
      5 C           1.4579    2.4744   19.8881 C.3     1  UNL1        0.0953
      6 C           1.4593    3.9723   19.8080 C.3     1  UNL1        0.0233
      7 C           2.6412    1.6959   19.3944 C.3     1  UNL1        0.1106
      8 C          -0.9100    2.5336   20.9556 C.ar    1  UNL1        0.2035
      9 N          -2.0469    2.8398   20.0264 N.ar    1  UNL1       -0.2133
     10 C          -3.2303    3.6184   20.5200 C.ar    1  UNL1        0.1065
     11 C          -3.2766    4.0907   21.9430 C.ar    1  UNL1        0.0815
     12 C          -2.1395    3.7845   22.8722 C.ar    1  UNL1        0.2646
     13 O          -2.1858    4.2569   24.2951 O.2     1  UNL1       -0.2668
     14 N          -0.9563    3.0060   22.3785 N.ar    1  UNL1       -0.2667
     15 C           0.1807    2.6998   23.3078 C.3     1  UNL1        0.1363
     16 C          -4.3672    3.9245   19.5908 C.ar    1  UNL1        0.1024
     17 C          -5.7819    3.7047   20.0385 C.ar    1  UNL1        0.0414
     18 C          -6.9188    4.0108   19.1093 C.ar    1  UNL1        0.1023
     19 N          -6.6412    4.5369   17.7322 N.ar    1  UNL1       -0.2224
     20 C          -5.2266    4.7568   17.2845 C.ar    1  UNL1        0.1989
     21 N          -4.0896    4.4506   18.2138 N.ar    1  UNL1       -0.2224
     22 C           5.2093   -2.7774   18.9312 C.ar    1  UNL1        0.1400
     23 C           6.1896   -2.1376   17.9934 C.ar    1  UNL1        0.0370
     24 C           5.9868   -0.7193   17.5493 C.ar    1  UNL1        0.0044
     25 C           4.8035    0.0593   18.0430 C.ar    1  UNL1        0.0147
     26 C           3.8231   -0.5805   18.9808 C.ar    1  UNL1        0.0510
     27 C           4.0260   -1.9988   19.4249 C.ar    1  UNL1        0.0514
     28 C           4.5995   -5.2972   18.7620 C.3     1  UNL1        0.2525
     29 O           5.4121   -4.1957   19.3753 O.3     1  UNL1       -0.4714
@<TRIPOS>BOND
     1    28    29    1
     2    29    22    1
     3    22    23   ar
     4    23    24   ar
     5    24    25   ar
     6    25    26   ar
     7    26     1    1
     8     1     2    1
     9     2     3    1
    10     3     4    1
    11     4     8    1
    12     8     9   ar
    13     9    10   ar
    14    10    16    1
    15    16    17   ar
    16    17    18   ar
    17    18    19   ar
    18    19    20   ar
    19    20    21   ar
    20    10    11   ar
    21    11    12   ar
    22    12    13    2
    23    12    14   ar
    24    14    15    1
    25     4     5    1
    26     5     6    1
    27     5     7    1
    28    26    27   ar
    29    27    22   ar
    30     7     1    1
    31    14     8   ar
    32    21    16   ar
@<TRIPOS>MOLECULE
*****
 29 32 0 0 0
SMALL
GASTEIGER

@<TRIPOS>ATOM
      1 N           0.8000    1.4525   21.0303 N.pl3   1  UNL1       -0.3040
      2 C           0.5830    0.0448   20.5601 C.3     1  UNL1        0.1123
      3 C           1.7584   -0.8570   20.3246 C.3     1  UNL1        0.1149
      4 N           3.1508   -0.3509   20.5593 N.pl3   1  UNL1       -0.2777
      5 C           3.3678    1.0569   21.0296 C.3     1  UNL1        0.0953
      6 C           4.7602    1.5630   21.2644 C.3     1  UNL1        0.0233
      7 C           2.1924    1.9586   21.2651 C.3     1  UNL1        0.1106
      8 C           4.3262   -1.2525   20.3238 C.ar    1  UNL1        0.2035
      9 N           4.8817   -2.0705   21.4517 N.ar    1  UNL1       -0.2133
     10 C           6.0571   -2.9723   21.2163 C.ar    1  UNL1        0.1065
     11 C           6.6770   -3.0559   19.8529 C.ar    1  UNL1        0.0815
     12 C           6.1214   -2.2378   18.7250 C.ar    1  UNL1        0.2646
     13 O           6.7412   -2.3214   17.3616 O.2     1  UNL1       -0.2668
     14 N           4.9460   -1.3361   18.9605 N.ar    1  UNL1       -0.2667
     15 C           4.3905   -0.5181   17.8326 C.3     1  UNL1        0.1363
     16 C           6.6126   -3.7903   22.3442 C.ar    1  UNL1        0.1024
     17 C           6.1151   -3.5750   23.7428 C.ar    1  UNL1        0.0414
     18 C           6.6707   -4.3930   24.8707 C.ar    1  UNL1        0.1023
     19 N           7.7237   -5.4264   24.6000 N.ar    1  UNL1       -0.2224
     20 C           8.2213   -5.6417   23.2014 C.ar    1  UNL1        0.1989
     21 N           7.6657   -4.8236   22.0734 N.ar    1  UNL1       -0.2224
     22 C          -2.5226    3.5266   20.3913 C.ar    1  UNL1        0.1400
     23 C          -2.7261    4.1575   21.7368 C.ar    1  UNL1        0.0370
     24 C          -1.7542    3.8868   22.8468 C.ar    1  UNL1        0.0044
     25 C          -0.5789    2.9852   22.6114 C.ar    1  UNL1        0.0147
     26 C          -0.3754    2.3542   21.2659 C.ar    1  UNL1        0.0510
     27 C          -1.3473    2.6249   20.1558 C.ar    1  UNL1        0.0514
     28 C          -4.9607    3.5634   19.4944 C.3     1  UNL1        0.2525
     29 O          -3.4945    3.7973   19.2812 O.3     1  UNL1       -0.4714
@<TRIPOS>BOND
     1    28    29    1
     2    29    22    1
     3    22    23   ar
     4    23    24   ar
     5    24    25   ar
     6    25    26   ar
     7    26     1    1
     8     1     2    1
     9     2     3    1
    10     3     4    1
    11     4     8    1
    12     8     9   ar
    13     9    10   ar
    14    10    16    1
    15    16    17   ar
    16    17    18   ar
    17    18    19   ar
    18    19    20   ar
    19    20    21   ar
    20    10    11   ar
    21    11    12   ar
    22    12    13    2
    23    12    14   ar
    24    14    15    1
    25     4     5    1
    26     5     6    1
    27     5     7    1
    28    26    27   ar
    29    27    22   ar
    30     7     1    1
    31    14     8   ar
    32    21    16   ar
@<TRIPOS>MOLECULE
*****
 29 32 0 0 0
SMALL
GASTEIGER

@<TRIPOS>ATOM
      1 N           2.5733    0.5411   20.0737 N.pl3   1  UNL1       -0.3040
      2 C           3.7834    1.0623   20.7905 C.3     1  UNL1        0.1123
      3 C           4.9569    0.1604   21.0347 C.3     1  UNL1        0.1149
      4 N           4.9201   -1.2627   20.5622 N.pl3   1  UNL1       -0.2777
      5 C           3.7099   -1.7840   19.8453 C.3     1  UNL1        0.0953
      6 C           3.6732   -3.2071   19.3728 C.3     1  UNL1        0.0233
      7 C           2.5365   -0.8821   19.6011 C.3     1  UNL1        0.1106
      8 C           6.0935   -2.1646   20.8064 C.ar    1  UNL1        0.2035
      9 N           6.1324   -3.0296   22.0312 N.ar    1  UNL1       -0.2133
     10 C           7.3059   -3.9315   22.2755 C.ar    1  UNL1        0.1065
     11 C           8.4404   -3.9684   21.2949 C.ar    1  UNL1        0.0815
     12 C           8.4015   -3.1033   20.0700 C.ar    1  UNL1        0.2646
     13 O           9.5360   -3.1402   19.0894 O.2     1  UNL1       -0.2668
     14 N           7.2281   -2.2015   19.8258 N.ar    1  UNL1       -0.2667
     15 C           7.1892   -1.3365   18.6010 C.3     1  UNL1        0.1363
     16 C           7.3448   -4.7965   23.5003 C.ar    1  UNL1        0.1024
     17 C           6.7748   -4.2924   24.7929 C.ar    1  UNL1        0.0414
     18 C           6.8137   -5.1574   26.0178 C.ar    1  UNL1        0.1023
     19 N           7.4226   -6.5266   25.9500 N.ar    1  UNL1       -0.2224
     20 C           7.9926   -7.0308   24.6573 C.ar    1  UNL1        0.1989
     21 N           7.9537   -6.1657   23.4324 N.ar    1  UNL1       -0.2224
     22 C          -0.7711    2.5904   20.6783 C.ar    1  UNL1        0.1400
     23 C          -0.9471    3.2466   19.3410 C.ar    1  UNL1        0.0370
     24 C           0.0503    3.0010   18.2479 C.ar    1  UNL1        0.0044
     25 C           1.2237    2.0992   18.4921 C.ar    1  UNL1        0.0147
     26 C           1.3998    1.4430   19.8294 C.ar    1  UNL1        0.0510
     27 C           0.4023    1.6886   20.9225 C.ar    1  UNL1        0.0514
     28 C          -3.0382    3.5778   21.4753 C.3     1  UNL1        0.2525
     29 O          -1.7685    2.8360   21.7713 O.3     1  UNL1       -0.4714
@<TRIPOS>BOND
     1    28    29    1
     2    29    22    1
     3    22    23   ar
     4    23    24   ar
     5    24    25   ar
     6    25    26   ar
     7    26     1    1
     8     1     2    1
     9     2     3    1
    10     3     4    1
    11     4     8    1
    12     8     9   ar
    13     9    10   ar
    14    10    16    1
    15    16    17   ar
    16    17    18   ar
    17    18    19   ar
    18    19    20   ar
    19    20    21   ar
    20    10    11   ar
    21    11    12   ar
    22    12    13    2
    23    12    14   ar
    24    14    15    1
    25     4     5    1
    26     5     6    1
    27     5     7    1
    28    26    27   ar
    29    27    22   ar
    30     7     1    1
    31    14     8   ar
    32    21    16   ar
@<TRIPOS>MOLECULE
*****
 29 32 0 0 0
SMALL
GASTEIGER

@<TRIPOS>ATOM
      1 N           6.3105   -3.3836   23.3532 N.pl3   1  UNL1       -0.3040
      2 C           5.0341   -3.9558   22.8116 C.3     1  UNL1        0.1123
      3 C           4.2888   -3.2340   21.7282 C.3     1  UNL1        0.1149
      4 N           4.8200   -1.9400   21.1865 N.pl3   1  UNL1       -0.2777
      5 C           6.0964   -1.3678   21.7282 C.3     1  UNL1        0.0953
      6 C           6.6276   -0.0738   21.1865 C.3     1  UNL1        0.0233
      7 C           6.8416   -2.0896   22.8116 C.3     1  UNL1        0.1106
      8 C           4.0748   -1.2182   20.1032 C.ar    1  UNL1        0.2035
      9 N           2.9992   -0.2353   20.4596 N.ar    1  UNL1       -0.2133
     10 C           2.2539    0.4865   19.3762 C.ar    1  UNL1        0.1065
     11 C           2.5843    0.2254   17.9365 C.ar    1  UNL1        0.0815
     12 C           3.6599   -0.7576   17.5802 C.ar    1  UNL1        0.2646
     13 O           3.9903   -1.0187   16.1405 O.2     1  UNL1       -0.2668
     14 N           4.4051   -1.4793   18.6635 N.ar    1  UNL1       -0.2667
     15 C           5.4807   -2.4622   18.3072 C.3     1  UNL1        0.1363
     16 C           1.1784    1.4694   19.7326 C.ar    1  UNL1        0.1024
     17 C           0.6207    2.3843   18.6828 C.ar    1  UNL1        0.0414
     18 C          -0.4549    3.3672   19.0392 C.ar    1  UNL1        0.1023
     19 N          -0.9728    3.4353   20.4454 N.ar    1  UNL1       -0.2224
     20 C          -0.4151    2.5204   21.4951 C.ar    1  UNL1        0.1989
     21 N           0.6605    1.5374   21.1387 N.ar    1  UNL1       -0.2224
     22 C           7.4757   -4.5605   26.9598 C.ar    1  UNL1        0.1400
     23 C           8.5462   -5.5488   26.6034 C.ar    1  UNL1        0.0370
     24 C           8.8716   -5.8154   25.1635 C.ar    1  UNL1        0.0044
     25 C           8.1263   -5.0937   24.0802 C.ar    1  UNL1        0.0147
     26 C           7.0558   -4.1054   24.4366 C.ar    1  UNL1        0.0510
     27 C           6.7304   -3.8388   25.8765 C.ar    1  UNL1        0.0514
     28 C           6.7780   -5.4288   29.3070 C.3     1  UNL1        0.2525
     29 O           7.1503   -4.2939   28.3996 O.3     1  UNL1       -0.4714
@<TRIPOS>BOND
     1    28    29    1
     2    29    22    1
     3    22    23   ar
     4    23    24   ar
     5    24    25   ar
     6    25    26   ar
     7    26     1    1
     8     1     2    1
     9     2     3    1
    10     3     4    1
    11     4     8    1
    12     8     9   ar
    13     9    10   ar
    14    10    16    1
    15    16    17   ar
    16    17    18   ar
    17    18    19   ar
    18    19    20   ar
    19    20    21   ar
    20    10    11   ar
    21    11    12   ar
    22    12    13    2
    23    12    14   ar
    24    14    15    1
    25     4     5    1
    26     5     6    1
    27     5     7    1
    28    26    27   ar
    29    27    22   ar
    30     7     1    1
    31    14     8   ar
    32    21    16   ar
@<TRIPOS>MOLECULE
*****
 29 32 0 0 0
SMALL
GASTEIGER

@<TRIPOS>ATOM
      1 N          -0.2878    2.5276   26.3137 N.pl3   1  UNL1       -0.3040
      2 C           0.9272    3.2776   26.7732 C.3     1  UNL1        0.1123
      3 C           1.6269    2.8704   28.0361 C.3     1  UNL1        0.1149
      4 N           1.1114    1.7133   28.8394 N.pl3   1  UNL1       -0.2777
      5 C          -0.1037    0.9633   28.3798 C.3     1  UNL1        0.0953
      6 C          -0.6191   -0.1939   29.1830 C.3     1  UNL1        0.0233
      7 C          -0.8032    1.3705   27.1169 C.3     1  UNL1        0.1106
      8 C           1.8110    1.3061   30.1022 C.ar    1  UNL1        0.2035
      9 N           2.8659    0.2404   30.0650 N.ar    1  UNL1       -0.2133
     10 C           3.5655   -0.1669   31.3278 C.ar    1  UNL1        0.1065
     11 C           3.2101    0.4916   32.6279 C.ar    1  UNL1        0.0815
     12 C           2.1552    1.5573   32.6651 C.ar    1  UNL1        0.2646
     13 O           1.7998    2.2158   33.9651 O.2     1  UNL1       -0.2668
     14 N           1.4556    1.9645   31.4023 N.ar    1  UNL1       -0.2667
     15 C           0.4007    3.0302   31.4395 C.3     1  UNL1        0.1363
     16 C           4.6204   -1.2326   31.2906 C.ar    1  UNL1        0.1024
     17 C           4.8388   -2.1137   32.4847 C.ar    1  UNL1        0.0414
     18 C           5.8937   -3.1794   32.4475 C.ar    1  UNL1        0.1023
     19 N           6.7303   -3.3640   31.2161 N.ar    1  UNL1       -0.2224
     20 C           6.5119   -2.4828   30.0220 C.ar    1  UNL1        0.1989
     21 N           5.4569   -1.4170   30.0593 N.ar    1  UNL1       -0.2224
     22 C          -3.1203    3.7821   23.8331 C.ar    1  UNL1        0.1400
     23 C          -2.3867    3.7492   22.5252 C.ar    1  UNL1        0.0370
     24 C          -0.9534    3.3090   22.4801 C.ar    1  UNL1        0.0044
     25 C          -0.2538    2.9019   23.7429 C.ar    1  UNL1        0.0147
     26 C          -0.9874    2.9348   25.0508 C.ar    1  UNL1        0.0510
     27 C          -2.4207    3.3750   25.0959 C.ar    1  UNL1        0.0514
     28 C          -5.3638    4.0123   25.1230 C.3     1  UNL1        0.2525
     29 O          -4.5536    4.2223   23.8782 O.3     1  UNL1       -0.4714
@<TRIPOS>BOND
     1    28    29    1
     2    29    22    1
     3    22    23   ar
     4    23    24   ar
     5    24    25   ar
     6    25    26   ar
     7    26     1    1
     8     1     2    1
     9     2     3    1
    10     3     4    1
    11     4     8    1
    12     8     9   ar
    13     9    10   ar
    14    10    16    1
    15    16    17   ar
    16    17    18   ar
    17    18    19   ar
    18    19    20   ar
    19    20    21   ar
    20    10    11   ar
    21    11    12   ar
    22    12    13    2
    23    12    14   ar
    24    14    15    1
    25     4     5    1
    26     5     6    1
    27     5     7    1
    28    26    27   ar
    29    27    22   ar
    30     7     1    1
    31    14     8   ar
    32    21    16   ar
