@<TRIPOS>MOLECULE
*****
 25 27 0 0 0
SMALL
GASTEIGER

@<TRIPOS>ATOM
      1 N         -10.3695  -17.5610   22.0659 N.ar    1  UNL1       -0.3165
      2 C         -11.6375  -17.9374   21.3584 C.ar    1  UNL1        0.0779
      3 C         -11.2801  -18.8425   20.2169 C.ar    1  UNL1        0.0392
      4 C          -9.7913  -19.0255   20.2189 C.ar    1  UNL1        0.0985
      5 N          -8.8754  -19.8109   19.3278 N.ar    1  UNL1       -0.2423
      6 C          -7.3967  -19.8044   19.5794 C.ar    1  UNL1        0.1004
      7 C          -6.8339  -19.0123   20.7222 C.ar    1  UNL1        0.0382
      8 C          -7.7498  -18.2269   21.6133 C.ar    1  UNL1        0.0218
      9 C          -9.2285  -18.2334   21.3617 C.ar    1  UNL1        0.0783
     10 C          -5.3551  -19.0058   20.9739 C.ar    1  UNL1        0.0827
     11 C          -4.8186  -19.4475   22.3031 C.ar    1  UNL1        0.0192
     12 C          -3.3398  -19.4410   22.5547 C.ar    1  UNL1        0.0030
     13 C          -2.3977  -18.9927   21.4771 C.ar    1  UNL1        0.0231
     14 C          -2.9343  -18.5509   20.1478 C.ar    1  UNL1        0.1526
     15 N          -4.4130  -18.5575   19.8962 N.ar    1  UNL1       -0.2413
     16 C          -1.9921  -18.1026   19.0701 C.3     1  UNL1        0.4348
     17 F          -1.0499  -17.6543   17.9925 F       1  UNL1       -0.1644
     18 F          -0.8965  -18.9198   19.6881 F       1  UNL1       -0.1644
     19 F          -3.0877  -17.2855   18.4522 F       1  UNL1       -0.1644
     20 C         -10.2615  -16.6687   23.2668 C.3     1  UNL1        0.1920
     21 C          -8.4063  -17.0606   26.7532 C.3     1  UNL1        0.1150
     22 N          -8.8390  -16.4932   25.4339 N.am    1  UNL1       -0.2744
     23 C          -8.2820  -15.1828   24.9621 C.3     1  UNL1        0.1150
     24 C          -9.8287  -17.2362   24.5863 C.2     1  UNL1        0.2488
     25 O         -10.3857  -18.5466   25.0581 O.2     1  UNL1       -0.2728
@<TRIPOS>BOND
     1    21    22    1
     2    22    23    1
     3    22    24   am
     4    24    25    2
     5    24    20    1
     6    20     1    1
     7     1     2   ar
     8     2     3   ar
     9     3     4   ar
    10     4     5   ar
    11     5     6   ar
    12     6     7   ar
    13     7    10    1
    14    10    11   ar
    15    11    12   ar
    16    12    13   ar
    17    13    14   ar
    18    14    16    1
    19    16    17    1
    20    16    18    1
    21    16    19    1
    22    14    15   ar
    23     7     8   ar
    24     8     9   ar
    25     9     1   ar
    26     9     4   ar
    27    15    10   ar
@<TRIPOS>MOLECULE
*****
 25 27 0 0 0
SMALL
GASTEIGER

@<TRIPOS>ATOM
      1 N          -4.7275  -17.2963   23.2026 N.ar    1  UNL1       -0.3165
      2 C          -3.4820  -18.0858   22.9279 C.ar    1  UNL1        0.0779
      3 C          -3.8712  -19.3122   22.1568 C.ar    1  UNL1        0.0392
      4 C          -5.3573  -19.2807   21.9550 C.ar    1  UNL1        0.0985
      5 N          -6.2969  -20.2254   21.2663 N.ar    1  UNL1       -0.2423
      6 C          -7.7657  -19.9243   21.2238 C.ar    1  UNL1        0.1004
      7 C          -8.2949  -18.6785   21.8701 C.ar    1  UNL1        0.0382
      8 C          -7.3553  -17.7337   22.5589 C.ar    1  UNL1        0.0218
      9 C          -5.8865  -18.0348   22.6014 C.ar    1  UNL1        0.0783
     10 C          -9.7638  -18.3774   21.8277 C.ar    1  UNL1        0.0827
     11 C         -10.3965  -17.9072   20.5515 C.ar    1  UNL1        0.0192
     12 C         -11.8654  -17.6061   20.5090 C.ar    1  UNL1        0.0030
     13 C         -12.7016  -17.7753   21.7428 C.ar    1  UNL1        0.0231
     14 C         -12.0689  -18.2455   23.0190 C.ar    1  UNL1        0.1526
     15 N         -10.6000  -18.5465   23.0614 N.ar    1  UNL1       -0.2413
     16 C         -12.9051  -18.4147   24.2527 C.3     1  UNL1        0.4348
     17 F         -13.7413  -18.5838   25.4865 F       1  UNL1       -0.1644
     18 F         -14.0785  -17.8101   23.5403 F       1  UNL1       -0.1644
     19 F         -11.7317  -19.0192   24.9652 F       1  UNL1       -0.1644
     20 C          -4.8011  -15.9966   23.9477 C.3     1  UNL1        0.1920
     21 C          -7.4042  -15.3308   26.8685 C.3     1  UNL1        0.1150
     22 N          -6.7897  -15.3774   25.5010 N.am    1  UNL1       -0.2744
     23 C          -7.5491  -14.8517   24.3191 C.3     1  UNL1        0.1150
     24 C          -5.4157  -15.9499   25.3154 C.2     1  UNL1        0.2488
     25 O          -4.6562  -16.4756   26.4972 O.2     1  UNL1       -0.2728
@<TRIPOS>BOND
     1    21    22    1
     2    22    23    1
     3    22    24   am
     4    24    25    2
     5    24    20    1
     6    20     1    1
     7     1     2   ar
     8     2     3   ar
     9     3     4   ar
    10     4     5   ar
    11     5     6   ar
    12     6     7   ar
    13     7    10    1
    14    10    11   ar
    15    11    12   ar
    16    12    13   ar
    17    13    14   ar
    18    14    16    1
    19    16    17    1
    20    16    18    1
    21    16    19    1
    22    14    15   ar
    23     7     8   ar
    24     8     9   ar
    25     9     1   ar
    26     9     4   ar
    27    15    10   ar
@<TRIPOS>MOLECULE
*****
 25 27 0 0 0
SMALL
GASTEIGER

@<TRIPOS>ATOM
      1 N          -9.0801  -16.9540   23.6688 N.ar    1  UNL1       -0.3165
      2 C          -9.5317  -15.9934   24.7286 C.ar    1  UNL1        0.0779
      3 C          -8.3131  -15.3476   25.3185 C.ar    1  UNL1        0.0392
      4 C          -7.1083  -15.9090   24.6232 C.ar    1  UNL1        0.0985
      5 N          -5.6410  -15.6445   24.7868 N.ar    1  UNL1       -0.2423
      6 C          -4.6476  -16.3729   23.9308 C.ar    1  UNL1        0.1004
      7 C          -5.1217  -17.3657   22.9112 C.ar    1  UNL1        0.0382
      8 C          -6.5890  -17.6302   22.7477 C.ar    1  UNL1        0.0218
      9 C          -7.5824  -16.9019   23.6036 C.ar    1  UNL1        0.0783
     10 C          -4.1282  -18.0941   22.0552 C.ar    1  UNL1        0.0827
     11 C          -4.3986  -19.5066   21.6291 C.ar    1  UNL1        0.0192
     12 C          -3.4051  -20.2350   20.7731 C.ar    1  UNL1        0.0030
     13 C          -2.1414  -19.5507   20.3432 C.ar    1  UNL1        0.0231
     14 C          -1.8711  -18.1381   20.7694 C.ar    1  UNL1        0.1526
     15 N          -2.8645  -17.4098   21.6254 N.ar    1  UNL1       -0.2413
     16 C          -0.6074  -17.4538   20.3395 C.3     1  UNL1        0.4348
     17 F           0.6563  -16.7696   19.9097 F       1  UNL1       -0.1644
     18 F          -0.1344  -18.7271   19.7032 F       1  UNL1       -0.1644
     19 F          -1.0804  -16.1805   20.9759 F       1  UNL1       -0.1644
     20 C          -9.9699  -17.8155   22.8226 C.3     1  UNL1        0.1920
     21 C         -11.7572  -16.0797   19.7335 C.3     1  UNL1        0.1150
     22 N         -11.4388  -16.4860   21.1419 N.am    1  UNL1       -0.2744
     23 C         -12.2708  -15.9691   22.2779 C.3     1  UNL1        0.1150
     24 C         -10.2884  -17.4092   21.4142 C.2     1  UNL1        0.2488
     25 O          -9.4563  -17.9260   20.2782 O.2     1  UNL1       -0.2728
@<TRIPOS>BOND
     1    21    22    1
     2    22    23    1
     3    22    24   am
     4    24    25    2
     5    24    20    1
     6    20     1    1
     7     1     2   ar
     8     2     3   ar
     9     3     4   ar
    10     4     5   ar
    11     5     6   ar
    12     6     7   ar
    13     7    10    1
    14    10    11   ar
    15    11    12   ar
    16    12    13   ar
    17    13    14   ar
    18    14    16    1
    19    16    17    1
    20    16    18    1
    21    16    19    1
    22    14    15   ar
    23     7     8   ar
    24     8     9   ar
    25     9     1   ar
    26     9     4   ar
    27    15    10   ar
@<TRIPOS>MOLECULE
*****
 25 27 0 0 0
SMALL
GASTEIGER

@<TRIPOS>ATOM
      1 N          -5.0999  -15.7689   24.3503 N.ar    1  UNL1       -0.3165
      2 C          -4.8768  -15.2818   25.7513 C.ar    1  UNL1        0.0779
      3 C          -6.2085  -15.2234   26.4392 C.ar    1  UNL1        0.0392
      4 C          -7.2546  -15.6743   25.4633 C.ar    1  UNL1        0.0985
      5 N          -8.7425  -15.8215   25.5834 N.ar    1  UNL1       -0.2423
      6 C          -9.5452  -16.3059   24.4125 C.ar    1  UNL1        0.1004
      7 C          -8.8600  -16.6430   23.1215 C.ar    1  UNL1        0.0382
      8 C          -7.3721  -16.4959   23.0013 C.ar    1  UNL1        0.0218
      9 C          -6.5694  -16.0115   24.1722 C.ar    1  UNL1        0.0783
     10 C          -9.6627  -17.1274   21.9505 C.ar    1  UNL1        0.0827
     11 C         -10.9885  -16.4990   21.6387 C.ar    1  UNL1        0.0192
     12 C         -11.7913  -16.9834   20.4678 C.ar    1  UNL1        0.0030
     13 C         -11.2682  -18.0962   19.6087 C.ar    1  UNL1        0.0231
     14 C          -9.9423  -18.7246   19.9206 C.ar    1  UNL1        0.1526
     15 N          -9.1396  -18.2402   21.0914 N.ar    1  UNL1       -0.2413
     16 C          -9.4192  -19.8374   19.0615 C.3     1  UNL1        0.4348
     17 F          -8.8961  -20.9502   18.2024 F       1  UNL1       -0.1644
     18 F          -8.1166  -19.7985   19.8043 F       1  UNL1       -0.1644
     19 F         -10.7218  -19.8763   18.3187 F       1  UNL1       -0.1644
     20 C          -4.0396  -15.9769   23.3098 C.3     1  UNL1        0.1920
     21 C          -2.0082  -18.9568   21.6533 C.3     1  UNL1        0.1150
     22 N          -2.4681  -17.5690   21.9884 N.am    1  UNL1       -0.2744
     23 C          -1.8164  -16.3852   21.3373 C.3     1  UNL1        0.1150
     24 C          -3.5796  -17.3649   22.9747 C.2     1  UNL1        0.2488
     25 O          -4.2313  -18.5486   23.6259 O.2     1  UNL1       -0.2728
@<TRIPOS>BOND
     1    21    22    1
     2    22    23    1
     3    22    24   am
     4    24    25    2
     5    24    20    1
     6    20     1    1
     7     1     2   ar
     8     2     3   ar
     9     3     4   ar
    10     4     5   ar
    11     5     6   ar
    12     6     7   ar
    13     7    10    1
    14    10    11   ar
    15    11    12   ar
    16    12    13   ar
    17    13    14   ar
    18    14    16    1
    19    16    17    1
    20    16    18    1
    21    16    19    1
    22    14    15   ar
    23     7     8   ar
    24     8     9   ar
    25     9     1   ar
    26     9     4   ar
    27    15    10   ar
@<TRIPOS>MOLECULE
*****
 25 27 0 0 0
SMALL
GASTEIGER

@<TRIPOS>ATOM
      1 N         -10.4466  -17.5699   22.8935 N.ar    1  UNL1       -0.3165
      2 C         -11.8485  -17.5960   22.3606 C.ar    1  UNL1        0.0779
      3 C         -11.8232  -18.2737   21.0227 C.ar    1  UNL1        0.0392
      4 C         -10.4057  -18.6664   20.7287 C.ar    1  UNL1        0.0985
      5 N          -9.7797  -19.3638   19.5575 N.ar    1  UNL1       -0.2423
      6 C          -8.3030  -19.6262   19.5425 C.ar    1  UNL1        0.1004
      7 C          -7.4522  -19.1912   20.6988 C.ar    1  UNL1        0.0382
      8 C          -8.0781  -18.4938   21.8700 C.ar    1  UNL1        0.0218
      9 C          -9.5549  -18.2314   21.8849 C.ar    1  UNL1        0.0783
     10 C          -5.9753  -19.4537   20.6838 C.ar    1  UNL1        0.0827
     11 C          -5.4382  -20.6793   20.0061 C.ar    1  UNL1        0.0192
     12 C          -3.9614  -20.9418   19.9911 C.ar    1  UNL1        0.0030
     13 C          -3.0217  -19.9786   20.6539 C.ar    1  UNL1        0.0231
     14 C          -3.5589  -18.7529   21.3316 C.ar    1  UNL1        0.1526
     15 N          -5.0356  -18.4905   21.3465 N.ar    1  UNL1       -0.2413
     16 C          -2.6192  -17.7897   21.9943 C.3     1  UNL1        0.4348
     17 F          -1.6795  -16.8265   22.6571 F       1  UNL1       -0.1644
     18 F          -3.7685  -17.1848   22.7448 F       1  UNL1       -0.1644
     19 F          -1.4699  -18.3945   21.2438 F       1  UNL1       -0.1644
     20 C         -10.0126  -16.9849   24.2048 C.3     1  UNL1        0.1920
     21 C          -6.7627  -15.2207   25.6457 C.3     1  UNL1        0.1150
     22 N          -8.0096  -16.0511   25.5710 N.am    1  UNL1       -0.2744
     23 C          -8.5006  -16.7781   26.7877 C.3     1  UNL1        0.1150
     24 C          -8.7656  -16.1545   24.2795 C.2     1  UNL1        0.2488
     25 O          -8.2746  -15.4274   23.0629 O.2     1  UNL1       -0.2728
@<TRIPOS>BOND
     1    21    22    1
     2    22    23    1
     3    22    24   am
     4    24    25    2
     5    24    20    1
     6    20     1    1
     7     1     2   ar
     8     2     3   ar
     9     3     4   ar
    10     4     5   ar
    11     5     6   ar
    12     6     7   ar
    13     7    10    1
    14    10    11   ar
    15    11    12   ar
    16    12    13   ar
    17    13    14   ar
    18    14    16    1
    19    16    17    1
    20    16    18    1
    21    16    19    1
    22    14    15   ar
    23     7     8   ar
    24     8     9   ar
    25     9     1   ar
    26     9     4   ar
    27    15    10   ar
@<TRIPOS>MOLECULE
*****
 25 27 0 0 0
SMALL
GASTEIGER

@<TRIPOS>ATOM
      1 N         -10.1577  -18.0946   21.3921 N.ar    1  UNL1       -0.3165
      2 C         -11.1118  -18.7972   20.4723 C.ar    1  UNL1        0.0779
      3 C         -10.3131  -19.6912   19.5709 C.ar    1  UNL1        0.0392
      4 C          -8.8653  -19.5412   19.9336 C.ar    1  UNL1        0.0985
      5 N          -7.6221  -20.1757   19.3843 N.ar    1  UNL1       -0.2423
      6 C          -6.2828  -19.8234   19.9606 C.ar    1  UNL1        0.1004
      7 C          -6.1868  -18.8366   21.0862 C.ar    1  UNL1        0.0382
      8 C          -7.4300  -18.2021   21.6355 C.ar    1  UNL1        0.0218
      9 C          -8.7693  -18.5544   21.0592 C.ar    1  UNL1        0.0783
     10 C          -4.8475  -18.4842   21.6625 C.ar    1  UNL1        0.0827
     11 C          -4.6893  -18.3168   23.1447 C.ar    1  UNL1        0.0192
     12 C          -3.3499  -17.9645   23.7210 C.ar    1  UNL1        0.0030
     13 C          -2.1688  -17.7796   22.8151 C.ar    1  UNL1        0.0231
     14 C          -2.3270  -17.9470   21.3328 C.ar    1  UNL1        0.1526
     15 N          -3.6663  -18.2993   20.7566 N.ar    1  UNL1       -0.2413
     16 C          -1.1459  -17.7621   20.4269 C.3     1  UNL1        0.4348
     17 F           0.0352  -17.5771   19.5209 F       1  UNL1       -0.1644
     18 F          -1.0109  -16.3426   20.8927 F       1  UNL1       -0.1644
     19 F          -1.2809  -19.1815   19.9611 F       1  UNL1       -0.1644
     20 C         -10.5271  -17.1057   22.4578 C.3     1  UNL1        0.1920
     21 C         -13.8510  -18.0479   24.4108 C.3     1  UNL1        0.1150
     22 N         -12.4422  -18.1081   23.8993 N.am    1  UNL1       -0.2744
     23 C         -11.5396  -19.2307   24.3178 C.3     1  UNL1        0.1150
     24 C         -11.9360  -17.0456   22.9694 C.2     1  UNL1        0.2488
     25 O         -12.8386  -15.9230   22.5509 O.2     1  UNL1       -0.2728
@<TRIPOS>BOND
     1    21    22    1
     2    22    23    1
     3    22    24   am
     4    24    25    2
     5    24    20    1
     6    20     1    1
     7     1     2   ar
     8     2     3   ar
     9     3     4   ar
    10     4     5   ar
    11     5     6   ar
    12     6     7   ar
    13     7    10    1
    14    10    11   ar
    15    11    12   ar
    16    12    13   ar
    17    13    14   ar
    18    14    16    1
    19    16    17    1
    20    16    18    1
    21    16    19    1
    22    14    15   ar
    23     7     8   ar
    24     8     9   ar
    25     9     1   ar
    26     9     4   ar
    27    15    10   ar
@<TRIPOS>MOLECULE
*****
 25 27 0 0 0
SMALL
GASTEIGER

@<TRIPOS>ATOM
      1 N          -4.9675  -17.8942   22.8296 N.ar    1  UNL1       -0.3165
      2 C          -3.9404  -17.1311   23.6123 C.ar    1  UNL1        0.0779
      3 C          -4.6510  -16.0681   24.3967 C.ar    1  UNL1        0.0392
      4 C          -6.1172  -16.1743   24.0988 C.ar    1  UNL1        0.0985
      5 N          -7.2995  -15.3892   24.5843 N.ar    1  UNL1       -0.2423
      6 C          -8.6774  -15.7326   24.1013 C.ar    1  UNL1        0.1004
      7 C          -8.8731  -16.8612   23.1327 C.ar    1  UNL1        0.0382
      8 C          -7.6908  -17.6463   22.6472 C.ar    1  UNL1        0.0218
      9 C          -6.3129  -17.3029   23.1303 C.ar    1  UNL1        0.0783
     10 C         -10.2511  -17.2046   22.6497 C.ar    1  UNL1        0.0827
     11 C         -10.5656  -17.1567   21.1839 C.ar    1  UNL1        0.0192
     12 C         -11.9436  -17.5001   20.7008 C.ar    1  UNL1        0.0030
     13 C         -13.0070  -17.8914   21.6837 C.ar    1  UNL1        0.0231
     14 C         -12.6924  -17.9393   23.1496 C.ar    1  UNL1        0.1526
     15 N         -11.3145  -17.5959   23.6326 N.ar    1  UNL1       -0.2413
     16 C         -13.7558  -18.3306   24.1325 C.3     1  UNL1        0.4348
     17 F         -14.8192  -18.7219   25.1154 F       1  UNL1       -0.1644
     18 F         -12.7339  -18.3500   25.2304 F       1  UNL1       -0.1644
     19 F         -14.7777  -18.3112   23.0346 F       1  UNL1       -0.1644
     20 C          -4.6969  -19.0463   21.9081 C.3     1  UNL1        0.1920
     21 C          -2.1016  -18.4863   18.9583 C.3     1  UNL1        0.1150
     22 N          -2.6570  -18.7367   20.3290 N.am    1  UNL1       -0.2744
     23 C          -1.7283  -18.9279   21.4912 C.3     1  UNL1        0.1150
     24 C          -4.1413  -18.7959   20.5373 C.2     1  UNL1        0.2488
     25 O          -5.0700  -18.6047   19.3751 O.2     1  UNL1       -0.2728
@<TRIPOS>BOND
     1    21    22    1
     2    22    23    1
     3    22    24   am
     4    24    25    2
     5    24    20    1
     6    20     1    1
     7     1     2   ar
     8     2     3   ar
     9     3     4   ar
    10     4     5   ar
    11     5     6   ar
    12     6     7   ar
    13     7    10    1
    14    10    11   ar
    15    11    12   ar
    16    12    13   ar
    17    13    14   ar
    18    14    16    1
    19    16    17    1
    20    16    18    1
    21    16    19    1
    22    14    15   ar
    23     7     8   ar
    24     8     9   ar
    25     9     1   ar
    26     9     4   ar
    27    15    10   ar
@<TRIPOS>MOLECULE
*****
 25 27 0 0 0
SMALL
GASTEIGER

@<TRIPOS>ATOM
      1 N         -10.1917  -18.6282   20.1675 N.ar    1  UNL1       -0.3165
      2 C         -10.0439  -19.6354   19.0658 C.ar    1  UNL1        0.0779
      3 C          -8.6214  -20.1113   19.0607 C.ar    1  UNL1        0.0392
      4 C          -7.8901  -19.3983   20.1592 C.ar    1  UNL1        0.0985
      5 N          -6.4659  -19.4652   20.6250 N.ar    1  UNL1       -0.2423
      6 C          -6.0122  -18.6156   21.7749 C.ar    1  UNL1        0.1004
      7 C          -6.9827  -17.6990   22.4589 C.ar    1  UNL1        0.0382
      8 C          -8.4069  -17.6320   21.9931 C.ar    1  UNL1        0.0218
      9 C          -8.8606  -18.4817   20.8433 C.ar    1  UNL1        0.0783
     10 C          -6.5289  -16.8493   23.6089 C.ar    1  UNL1        0.0827
     11 C          -5.0961  -16.4154   23.7011 C.ar    1  UNL1        0.0192
     12 C          -4.6423  -15.5657   24.8510 C.ar    1  UNL1        0.0030
     13 C          -5.6214  -15.1500   25.9086 C.ar    1  UNL1        0.0231
     14 C          -7.0543  -15.5841   25.8163 C.ar    1  UNL1        0.1526
     15 N          -7.5080  -16.4337   24.6665 N.ar    1  UNL1       -0.2413
     16 C          -8.0335  -15.1684   26.8739 C.3     1  UNL1        0.4348
     17 F          -9.0126  -14.7528   27.9315 F       1  UNL1       -0.1644
     18 F          -6.9199  -15.0954   27.8762 F       1  UNL1       -0.1644
     19 F          -9.1471  -15.2414   25.8716 F       1  UNL1       -0.1644
     20 C         -11.4498  -17.8961   20.5298 C.3     1  UNL1        0.1920
     21 C         -12.0213  -18.5486   24.4025 C.3     1  UNL1        0.1150
     22 N         -11.6785  -18.7830   22.9611 N.am    1  UNL1       -0.2744
     23 C         -11.2218  -20.1386   22.5096 C.3     1  UNL1        0.1150
     24 C         -11.7925  -17.6618   21.9713 C.2     1  UNL1        0.2488
     25 O         -12.2492  -16.3062   22.4228 O.2     1  UNL1       -0.2728
@<TRIPOS>BOND
     1    21    22    1
     2    22    23    1
     3    22    24   am
     4    24    25    2
     5    24    20    1
     6    20     1    1
     7     1     2   ar
     8     2     3   ar
     9     3     4   ar
    10     4     5   ar
    11     5     6   ar
    12     6     7   ar
    13     7    10    1
    14    10    11   ar
    15    11    12   ar
    16    12    13   ar
    17    13    14   ar
    18    14    16    1
    19    16    17    1
    20    16    18    1
    21    16    19    1
    22    14    15   ar
    23     7     8   ar
    24     8     9   ar
    25     9     1   ar
    26     9     4   ar
    27    15    10   ar
@<TRIPOS>MOLECULE
*****
 25 27 0 0 0
SMALL
GASTEIGER

@<TRIPOS>ATOM
      1 N          -3.7730  -18.3109   22.5337 N.ar    1  UNL1       -0.3165
      2 C          -2.8670  -17.5927   23.4894 C.ar    1  UNL1        0.0779
      3 C          -3.7139  -16.7061   24.3535 C.ar    1  UNL1        0.0392
      4 C          -5.1433  -16.8764   23.9320 C.ar    1  UNL1        0.0985
      5 N          -6.4163  -16.2565   24.4269 N.ar    1  UNL1       -0.2423
      6 C          -7.7259  -16.6284   23.7972 C.ar    1  UNL1        0.1004
      7 C          -7.7625  -17.6202   22.6725 C.ar    1  UNL1        0.0382
      8 C          -6.4895  -18.2401   22.1775 C.ar    1  UNL1        0.0218
      9 C          -5.1799  -17.8682   22.8073 C.ar    1  UNL1        0.0783
     10 C          -9.0722  -17.9921   22.0427 C.ar    1  UNL1        0.0827
     11 C          -9.5752  -19.4021   22.1351 C.ar    1  UNL1        0.0192
     12 C         -10.8849  -19.7740   21.5054 C.ar    1  UNL1        0.0030
     13 C         -11.6915  -18.7358   20.7832 C.ar    1  UNL1        0.0231
     14 C         -11.1884  -17.3256   20.6909 C.ar    1  UNL1        0.1526
     15 N          -9.8787  -16.9538   21.3206 N.ar    1  UNL1       -0.2413
     16 C         -11.9949  -16.2874   19.9687 C.3     1  UNL1        0.4348
     17 F         -12.8015  -15.2491   19.2466 F       1  UNL1       -0.1644
     18 F         -10.8045  -15.9532   19.1195 F       1  UNL1       -0.1644
     19 F         -13.1854  -16.6215   20.8179 F       1  UNL1       -0.1644
     20 C          -3.3470  -19.2984   21.4881 C.3     1  UNL1        0.1920
     21 C          -1.8949  -17.8852   18.0758 C.3     1  UNL1        0.1150
     22 N          -1.9820  -18.3054   19.5130 N.am    1  UNL1       -0.2744
     23 C          -0.7914  -18.1529   20.4126 C.3     1  UNL1        0.1150
     24 C          -3.2598  -18.8782   20.0508 C.2     1  UNL1        0.2488
     25 O          -4.4504  -19.0307   19.1512 O.2     1  UNL1       -0.2728
@<TRIPOS>BOND
     1    21    22    1
     2    22    23    1
     3    22    24   am
     4    24    25    2
     5    24    20    1
     6    20     1    1
     7     1     2   ar
     8     2     3   ar
     9     3     4   ar
    10     4     5   ar
    11     5     6   ar
    12     6     7   ar
    13     7    10    1
    14    10    11   ar
    15    11    12   ar
    16    12    13   ar
    17    13    14   ar
    18    14    16    1
    19    16    17    1
    20    16    18    1
    21    16    19    1
    22    14    15   ar
    23     7     8   ar
    24     8     9   ar
    25     9     1   ar
    26     9     4   ar
    27    15    10   ar
