@<TRIPOS>MOLECULE
*****
 27 29 0 0 0
SMALL
GASTEIGER

@<TRIPOS>ATOM
      1 C          -9.7360  -18.7030   23.5593 C.2     1  UNL1        0.2252
      2 O          -9.5299  -19.1990   24.9597 O.2     1  UNL1       -0.2750
      3 N          -9.7409  -17.2294   23.2786 N.am    1  UNL1       -0.3004
      4 H          -9.8762  -16.9038   22.3595 H       1  UNL1        0.1497
      5 C          -9.9373  -19.6804   22.4394 C.3     1  UNL1        0.1154
      6 C         -10.8203  -19.3195   20.6731 C.3     1  UNL1        0.0335
      7 C          -9.3778  -19.3876   21.0788 C.3     1  UNL1        0.1377
      8 C          -8.0523  -19.5170   21.7690 C.3     1  UNL1        0.0613
      9 C          -6.9751  -19.2898   20.7501 C.3     1  UNL1        0.1290
     10 C          -6.0129  -19.0420   19.6264 C.3     1  UNL1        0.0305
     11 C          -4.5354  -19.0783   19.8824 C.3     1  UNL1        0.0025
     12 C          -4.0200  -19.3623   21.2622 C.3     1  UNL1        0.0002
     13 C          -4.9822  -19.6101   22.3859 C.3     1  UNL1        0.0025
     14 C          -6.4597  -19.5739   22.1299 C.3     1  UNL1        0.0305
     15 O          -7.6348  -19.0201   19.4302 O.3     1  UNL1       -0.2256
     16 O          -9.1199  -19.0805   19.6334 O.3     1  UNL1       -0.2251
     17 C          -9.5396  -16.2520   24.3985 C.3     1  UNL1        0.1163
     18 C          -8.1619  -16.0004   24.9358 C.ar    1  UNL1       -0.0026
     19 C          -7.9760  -15.6203   26.3749 C.ar    1  UNL1       -0.0026
     20 C          -6.5983  -15.3687   26.9122 C.ar    1  UNL1       -0.0003
     21 C          -5.4066  -15.4970   26.0104 C.ar    1  UNL1        0.0038
     22 C          -5.5925  -15.8771   24.5714 C.ar    1  UNL1        0.0712
     23 C          -6.9702  -16.1287   24.0340 C.ar    1  UNL1        0.0012
     24 C          -4.4008  -16.0055   23.6695 C.3     1  UNL1        0.4186
     25 F          -3.2091  -16.1338   22.7677 F       1  UNL1       -0.1659
     26 F          -4.7214  -14.6746   23.0564 F       1  UNL1       -0.1659
     27 F          -4.0801  -17.3363   24.2826 F       1  UNL1       -0.1659
@<TRIPOS>BOND
     1     6     7    1
     2     7     5    1
     3     5     1    1
     4     1     2    2
     5     1     3   am
     6     3    17    1
     7    17    18    1
     8    18    19   ar
     9    19    20   ar
    10    20    21   ar
    11    21    22   ar
    12    22    24    1
    13    24    25    1
    14    24    26    1
    15    24    27    1
    16    22    23   ar
    17     7     8    1
    18     8     9    1
    19     9    10    1
    20    10    11    1
    21    11    12    1
    22    12    13    1
    23    13    14    1
    24     9    15    1
    25    15    16    1
    26    16     7    1
    27    23    18   ar
    28    14     9    1
    29     3     4    1
@<TRIPOS>MOLECULE
*****
 27 29 0 0 0
SMALL
GASTEIGER

@<TRIPOS>ATOM
      1 C          -6.4184  -15.4618   25.0531 C.2     1  UNL1        0.2252
      2 O          -5.4619  -14.5552   25.7693 O.2     1  UNL1       -0.2750
      3 N          -5.9128  -16.4081   24.0047 N.am    1  UNL1       -0.3004
      4 H          -6.5407  -17.0031   23.5347 H       1  UNL1        0.1497
      5 C          -7.8807  -15.4223   25.3853 C.3     1  UNL1        0.1154
      6 C          -8.1635  -16.1569   27.2320 C.3     1  UNL1        0.0335
      7 C          -8.5713  -16.6590   25.8786 C.3     1  UNL1        0.1377
      8 C          -8.8348  -16.9027   24.4222 C.3     1  UNL1        0.0613
      9 C          -9.6030  -18.1851   24.2982 C.3     1  UNL1        0.1290
     10 C         -10.3641  -19.4772   24.3308 C.3     1  UNL1        0.0305
     11 C         -10.8378  -20.1011   23.0516 C.3     1  UNL1        0.0025
     12 C         -10.5503  -19.4328   21.7398 C.3     1  UNL1        0.0002
     13 C          -9.7892  -18.1407   21.7072 C.3     1  UNL1        0.0025
     14 C          -9.3156  -17.5169   22.9864 C.3     1  UNL1        0.0305
     15 O          -9.8144  -18.7340   25.6781 O.3     1  UNL1       -0.2256
     16 O          -9.1768  -17.7909   26.6549 O.3     1  UNL1       -0.2251
     17 C          -4.4506  -16.4475   23.6725 C.3     1  UNL1        0.1163
     18 C          -3.8985  -17.5739   22.8500 C.ar    1  UNL1       -0.0026
     19 C          -2.4147  -17.7403   22.7061 C.ar    1  UNL1       -0.0026
     20 C          -1.8626  -18.8667   21.8836 C.ar    1  UNL1       -0.0003
     21 C          -2.7943  -19.8265   21.2049 C.ar    1  UNL1        0.0038
     22 C          -4.2780  -19.6601   21.3488 C.ar    1  UNL1        0.0712
     23 C          -4.8302  -18.5337   22.1713 C.ar    1  UNL1        0.0012
     24 C          -5.2097  -20.6199   20.6701 C.3     1  UNL1        0.4186
     25 F          -6.1414  -21.5798   19.9914 F       1  UNL1       -0.1659
     26 F          -6.2085  -20.4302   21.7730 F       1  UNL1       -0.1659
     27 F          -4.2110  -20.8097   19.5672 F       1  UNL1       -0.1659
@<TRIPOS>BOND
     1     6     7    1
     2     7     5    1
     3     5     1    1
     4     1     2    2
     5     1     3   am
     6     3    17    1
     7    17    18    1
     8    18    19   ar
     9    19    20   ar
    10    20    21   ar
    11    21    22   ar
    12    22    24    1
    13    24    25    1
    14    24    26    1
    15    24    27    1
    16    22    23   ar
    17     7     8    1
    18     8     9    1
    19     9    10    1
    20    10    11    1
    21    11    12    1
    22    12    13    1
    23    13    14    1
    24     9    15    1
    25    15    16    1
    26    16     7    1
    27    23    18   ar
    28    14     9    1
    29     3     4    1
@<TRIPOS>MOLECULE
*****
 27 29 0 0 0
SMALL
GASTEIGER

@<TRIPOS>ATOM
      1 C          -7.1044  -18.7437   21.5110 C.2     1  UNL1        0.2252
      2 O          -7.6931  -18.5629   20.1433 O.2     1  UNL1       -0.2750
      3 N          -7.5038  -17.8243   22.6270 N.am    1  UNL1       -0.3004
      4 H          -7.1174  -17.9430   23.5247 H       1  UNL1        0.1497
      5 C          -6.1164  -19.8439   21.7629 C.3     1  UNL1        0.1154
      6 C          -5.9116  -21.2813   20.3767 C.3     1  UNL1        0.0335
      7 C          -5.0361  -20.1255   20.7611 C.3     1  UNL1        0.1377
      8 C          -4.3865  -18.9109   21.3550 C.3     1  UNL1        0.0613
      9 C          -3.0877  -18.6834   20.6398 C.3     1  UNL1        0.1290
     10 C          -1.8233  -18.5830   19.8390 C.3     1  UNL1        0.0305
     11 C          -0.8487  -17.4759   20.1118 C.3     1  UNL1        0.0025
     12 C          -1.1385  -16.4692   21.1854 C.3     1  UNL1        0.0002
     13 C          -2.4029  -16.5696   21.9862 C.3     1  UNL1        0.0025
     14 C          -3.3774  -17.6767   21.7134 C.3     1  UNL1        0.0305
     15 O          -2.9346  -19.7575   19.6039 O.3     1  UNL1       -0.2256
     16 O          -4.1388  -20.6488   19.6789 O.3     1  UNL1       -0.2251
     17 C          -8.4918  -16.7242   22.3751 C.3     1  UNL1        0.1163
     18 C          -9.9497  -17.0447   22.2275 C.ar    1  UNL1       -0.0026
     19 C         -10.6244  -16.8737   20.8988 C.ar    1  UNL1       -0.0026
     20 C         -12.0823  -17.1943   20.7512 C.ar    1  UNL1       -0.0003
     21 C         -12.8655  -17.6858   21.9323 C.ar    1  UNL1        0.0038
     22 C         -12.1908  -17.8568   23.2609 C.ar    1  UNL1        0.0712
     23 C         -10.7328  -17.5363   23.4086 C.ar    1  UNL1        0.0012
     24 C         -12.9739  -18.3484   24.4421 C.3     1  UNL1        0.4186
     25 F         -13.7571  -18.8399   25.6232 F       1  UNL1       -0.1659
     26 F         -14.1687  -17.5722   23.9729 F       1  UNL1       -0.1659
     27 F         -11.7793  -19.1246   24.9113 F       1  UNL1       -0.1659
@<TRIPOS>BOND
     1     6     7    1
     2     7     5    1
     3     5     1    1
     4     1     2    2
     5     1     3   am
     6     3    17    1
     7    17    18    1
     8    18    19   ar
     9    19    20   ar
    10    20    21   ar
    11    21    22   ar
    12    22    24    1
    13    24    25    1
    14    24    26    1
    15    24    27    1
    16    22    23   ar
    17     7     8    1
    18     8     9    1
    19     9    10    1
    20    10    11    1
    21    11    12    1
    22    12    13    1
    23    13    14    1
    24     9    15    1
    25    15    16    1
    26    16     7    1
    27    23    18   ar
    28    14     9    1
    29     3     4    1
@<TRIPOS>MOLECULE
*****
 27 29 0 0 0
SMALL
GASTEIGER

@<TRIPOS>ATOM
      1 C          -7.3943  -19.3932   20.0673 C.2     1  UNL1        0.2252
      2 O          -7.4627  -18.0090   20.6409 O.2     1  UNL1       -0.2750
      3 N          -8.5926  -19.9816   19.3831 N.am    1  UNL1       -0.3004
      4 H          -8.5478  -20.8901   19.0065 H       1  UNL1        0.1497
      5 C          -6.1277  -20.1893   20.1777 C.3     1  UNL1        0.1154
      6 C          -6.2260  -20.5303   22.1535 C.3     1  UNL1        0.0335
      7 C          -5.1635  -19.9134   21.2931 C.3     1  UNL1        0.1377
      8 C          -4.3025  -19.3541   20.1995 C.3     1  UNL1        0.0613
      9 C          -3.0281  -18.8615   20.8188 C.3     1  UNL1        0.1290
     10 C          -1.8122  -18.4164   21.5760 C.3     1  UNL1        0.0305
     11 C          -0.6658  -17.7806   20.8469 C.3     1  UNL1        0.0025
     12 C          -0.7354  -17.5900   19.3607 C.3     1  UNL1        0.0002
     13 C          -1.9513  -18.0352   18.6035 C.3     1  UNL1        0.0025
     14 C          -3.0977  -18.6709   19.3326 C.3     1  UNL1        0.0305
     15 O          -3.1016  -19.1163   22.2952 O.3     1  UNL1       -0.2256
     16 O          -4.4213  -19.7664   22.5883 O.3     1  UNL1       -0.2251
     17 C          -9.8592  -19.1856   19.2726 C.3     1  UNL1        0.1163
     18 C         -10.6472  -18.8551   20.5054 C.ar    1  UNL1       -0.0026
     19 C         -11.8156  -17.9183   20.4200 C.ar    1  UNL1       -0.0026
     20 C         -12.6036  -17.5879   21.6528 C.ar    1  UNL1       -0.0003
     21 C         -12.2232  -18.1941   22.9710 C.ar    1  UNL1        0.0038
     22 C         -11.0549  -19.1309   23.0564 C.ar    1  UNL1        0.0712
     23 C         -10.2668  -19.4614   21.8236 C.ar    1  UNL1        0.0012
     24 C         -10.6745  -19.7372   24.3746 C.3     1  UNL1        0.4186
     25 F         -10.2941  -20.3434   25.6928 F       1  UNL1       -0.1659
     26 F         -11.8587  -19.0795   25.0188 F       1  UNL1       -0.1659
     27 F          -9.4902  -20.3948   23.7305 F       1  UNL1       -0.1659
@<TRIPOS>BOND
     1     6     7    1
     2     7     5    1
     3     5     1    1
     4     1     2    2
     5     1     3   am
     6     3    17    1
     7    17    18    1
     8    18    19   ar
     9    19    20   ar
    10    20    21   ar
    11    21    22   ar
    12    22    24    1
    13    24    25    1
    14    24    26    1
    15    24    27    1
    16    22    23   ar
    17     7     8    1
    18     8     9    1
    19     9    10    1
    20    10    11    1
    21    11    12    1
    22    12    13    1
    23    13    14    1
    24     9    15    1
    25    15    16    1
    26    16     7    1
    27    23    18   ar
    28    14     9    1
    29     3     4    1
@<TRIPOS>MOLECULE
*****
 27 29 0 0 0
SMALL
GASTEIGER

@<TRIPOS>ATOM
      1 C          -8.4551  -19.0895   21.2282 C.2     1  UNL1        0.2252
      2 O          -8.2936  -18.8913   19.7502 O.2     1  UNL1       -0.2750
      3 N          -7.3693  -19.7578   22.0184 N.am    1  UNL1       -0.3004
      4 H          -7.4753  -19.8879   22.9885 H       1  UNL1        0.1497
      5 C          -9.7025  -18.6194   21.9162 C.3     1  UNL1        0.1154
      6 C         -10.6680  -20.1509   22.7833 C.3     1  UNL1        0.0335
      7 C          -9.9426  -18.9689   23.3549 C.3     1  UNL1        0.1377
      8 C          -9.1669  -17.7139   23.6257 C.3     1  UNL1        0.0613
      9 C          -9.0793  -17.5349   25.1125 C.3     1  UNL1        0.1290
     10 C          -9.0744  -17.4887   26.6117 C.3     1  UNL1        0.0305
     11 C          -8.3861  -16.3630   27.3252 C.3     1  UNL1        0.0025
     12 C          -7.7027  -15.2835   26.5393 C.3     1  UNL1        0.0002
     13 C          -7.7076  -15.3296   25.0401 C.3     1  UNL1        0.0025
     14 C          -8.3959  -16.4553   24.3267 C.3     1  UNL1        0.0305
     15 O          -9.8007  -18.6793   25.7605 O.3     1  UNL1       -0.2256
     16 O         -10.3343  -19.5656   24.6742 O.3     1  UNL1       -0.2251
     17 C          -6.1220  -20.2279   21.3305 C.3     1  UNL1        0.1163
     18 C          -4.8736  -19.3985   21.3920 C.ar    1  UNL1       -0.0026
     19 C          -4.3859  -18.8737   22.7098 C.ar    1  UNL1       -0.0026
     20 C          -3.1376  -18.0444   22.7713 C.ar    1  UNL1       -0.0003
     21 C          -2.3769  -17.7399   21.5149 C.ar    1  UNL1        0.0038
     22 C          -2.8645  -18.2647   20.1971 C.ar    1  UNL1        0.0712
     23 C          -4.1129  -19.0940   20.1356 C.ar    1  UNL1        0.0012
     24 C          -2.1038  -17.9601   18.9407 C.3     1  UNL1        0.4186
     25 F          -1.3431  -17.6556   17.6843 F       1  UNL1       -0.1659
     26 F          -0.9242  -18.7202   19.4707 F       1  UNL1       -0.1659
     27 F          -3.2833  -17.2001   18.4106 F       1  UNL1       -0.1659
@<TRIPOS>BOND
     1     6     7    1
     2     7     5    1
     3     5     1    1
     4     1     2    2
     5     1     3   am
     6     3    17    1
     7    17    18    1
     8    18    19   ar
     9    19    20   ar
    10    20    21   ar
    11    21    22   ar
    12    22    24    1
    13    24    25    1
    14    24    26    1
    15    24    27    1
    16    22    23   ar
    17     7     8    1
    18     8     9    1
    19     9    10    1
    20    10    11    1
    21    11    12    1
    22    12    13    1
    23    13    14    1
    24     9    15    1
    25    15    16    1
    26    16     7    1
    27    23    18   ar
    28    14     9    1
    29     3     4    1
@<TRIPOS>MOLECULE
*****
 27 29 0 0 0
SMALL
GASTEIGER

@<TRIPOS>ATOM
      1 C          -7.1100  -17.6839   22.6150 C.2     1  UNL1        0.2252
      2 O          -7.6744  -16.6299   21.7094 O.2     1  UNL1       -0.2750
      3 N          -7.6069  -19.0963   22.5230 N.am    1  UNL1       -0.3004
      4 H          -7.2364  -19.7882   23.1174 H       1  UNL1        0.1497
      5 C          -6.0486  -17.3258   23.6126 C.3     1  UNL1        0.1154
      6 C          -5.7548  -15.3856   24.0357 C.3     1  UNL1        0.0335
      7 C          -4.9558  -16.3704   23.2346 C.3     1  UNL1        0.1377
      8 C          -4.3853  -17.5549   22.5125 C.3     1  UNL1        0.0613
      9 C          -3.1068  -17.1257   21.8556 C.3     1  UNL1        0.1290
     10 C          -1.8547  -16.5542   21.2593 C.3     1  UNL1        0.0305
     11 C          -0.9541  -17.4223   20.4317 C.3     1  UNL1        0.0025
     12 C          -1.3055  -18.8621   20.2003 C.3     1  UNL1        0.0002
     13 C          -2.5576  -19.4337   20.7965 C.3     1  UNL1        0.0025
     14 C          -3.4583  -18.5655   21.6241 C.3     1  UNL1        0.0305
     15 O          -2.8872  -15.6759   22.1716 O.3     1  UNL1       -0.2256
     16 O          -4.0300  -15.2091   23.0239 O.3     1  UNL1       -0.2251
     17 C          -8.6682  -19.4545   21.5254 C.3     1  UNL1        0.1163
     18 C         -10.0354  -18.8470   21.6342 C.ar    1  UNL1       -0.0026
     19 C         -10.6363  -18.1369   20.4575 C.ar    1  UNL1       -0.0026
     20 C         -12.0035  -17.5294   20.5662 C.ar    1  UNL1       -0.0003
     21 C         -12.7696  -17.6320   21.8517 C.ar    1  UNL1        0.0038
     22 C         -12.1687  -18.3420   23.0283 C.ar    1  UNL1        0.0712
     23 C         -10.8015  -18.9496   22.9196 C.ar    1  UNL1        0.0012
     24 C         -12.9349  -18.4446   24.3138 C.3     1  UNL1        0.4186
     25 F         -13.7011  -18.5472   25.5993 F       1  UNL1       -0.1659
     26 F         -14.0454  -17.6320   23.7168 F       1  UNL1       -0.1659
     27 F         -11.8245  -19.2572   24.9109 F       1  UNL1       -0.1659
@<TRIPOS>BOND
     1     6     7    1
     2     7     5    1
     3     5     1    1
     4     1     2    2
     5     1     3   am
     6     3    17    1
     7    17    18    1
     8    18    19   ar
     9    19    20   ar
    10    20    21   ar
    11    21    22   ar
    12    22    24    1
    13    24    25    1
    14    24    26    1
    15    24    27    1
    16    22    23   ar
    17     7     8    1
    18     8     9    1
    19     9    10    1
    20    10    11    1
    21    11    12    1
    22    12    13    1
    23    13    14    1
    24     9    15    1
    25    15    16    1
    26    16     7    1
    27    23    18   ar
    28    14     9    1
    29     3     4    1
@<TRIPOS>MOLECULE
*****
 27 29 0 0 0
SMALL
GASTEIGER

@<TRIPOS>ATOM
      1 C          -7.1001  -19.6163   21.7237 C.2     1  UNL1        0.2252
      2 O          -7.3883  -18.4945   22.6767 O.2     1  UNL1       -0.2750
      3 N          -5.7156  -20.1863   21.6327 N.am    1  UNL1       -0.3004
      4 H          -5.5265  -20.9226   21.0072 H       1  UNL1        0.1497
      5 C          -8.1966  -20.1684   20.8615 C.3     1  UNL1        0.1154
      6 C          -8.4820  -19.3227   19.0634 C.3     1  UNL1        0.0335
      7 C          -9.2691  -19.2594   20.3388 C.3     1  UNL1        0.1377
      8 C          -9.8320  -19.3861   21.7234 C.3     1  UNL1        0.0613
      9 C         -11.0880  -18.5686   21.7898 C.3     1  UNL1        0.1290
     10 C         -12.3178  -17.7140   21.7059 C.3     1  UNL1        0.0305
     11 C         -13.2047  -17.5562   22.9052 C.3     1  UNL1        0.0025
     12 C         -12.8617  -18.2530   24.1885 C.3     1  UNL1        0.0002
     13 C         -11.6319  -19.1076   24.2724 C.3     1  UNL1        0.0025
     14 C         -10.7450  -19.2655   23.0731 C.3     1  UNL1        0.0305
     15 O         -11.3013  -17.9367   20.4462 O.3     1  UNL1       -0.2256
     16 O         -10.1772  -18.3636   19.5494 O.3     1  UNL1       -0.2251
     17 C          -4.6192  -19.6343   22.4948 C.3     1  UNL1        0.1163
     18 C          -3.7008  -18.5781   21.9555 C.ar    1  UNL1       -0.0026
     19 C          -3.2553  -17.4498   22.8378 C.ar    1  UNL1       -0.0026
     20 C          -2.3369  -16.3935   22.2985 C.ar    1  UNL1       -0.0003
     21 C          -1.8640  -16.4656   20.8768 C.ar    1  UNL1        0.0038
     22 C          -2.3095  -17.5938   19.9945 C.ar    1  UNL1        0.0712
     23 C          -3.2279  -18.6501   20.5338 C.ar    1  UNL1        0.0012
     24 C          -1.8366  -17.6659   18.5728 C.3     1  UNL1        0.4186
     25 F          -1.3637  -17.7379   17.1512 F       1  UNL1       -0.1659
     26 F          -3.1208  -17.0412   18.1140 F       1  UNL1       -0.1659
     27 F          -0.5524  -18.2905   19.0316 F       1  UNL1       -0.1659
@<TRIPOS>BOND
     1     6     7    1
     2     7     5    1
     3     5     1    1
     4     1     2    2
     5     1     3   am
     6     3    17    1
     7    17    18    1
     8    18    19   ar
     9    19    20   ar
    10    20    21   ar
    11    21    22   ar
    12    22    24    1
    13    24    25    1
    14    24    26    1
    15    24    27    1
    16    22    23   ar
    17     7     8    1
    18     8     9    1
    19     9    10    1
    20    10    11    1
    21    11    12    1
    22    12    13    1
    23    13    14    1
    24     9    15    1
    25    15    16    1
    26    16     7    1
    27    23    18   ar
    28    14     9    1
    29     3     4    1
@<TRIPOS>MOLECULE
*****
 27 29 0 0 0
SMALL
GASTEIGER

@<TRIPOS>ATOM
      1 C          -7.3053  -19.5992   21.1952 C.2     1  UNL1        0.2252
      2 O          -7.7429  -20.2861   22.4547 O.2     1  UNL1       -0.2750
      3 N          -8.3203  -19.2102   20.1615 N.am    1  UNL1       -0.3004
      4 H          -8.0331  -18.7593   19.3348 H       1  UNL1        0.1497
      5 C          -5.8526  -19.3012   20.9692 C.3     1  UNL1        0.1154
      6 C          -3.9460  -19.5303   21.5540 C.3     1  UNL1        0.0335
      7 C          -5.0466  -18.6381   22.0464 C.3     1  UNL1        0.1377
      8 C          -6.3158  -17.8845   22.3137 C.3     1  UNL1        0.0613
      9 C          -6.0641  -16.9421   23.4533 C.3     1  UNL1        0.1290
     10 C          -5.6658  -16.0557   24.5959 C.3     1  UNL1        0.0305
     11 C          -6.6636  -15.1085   25.1935 C.3     1  UNL1        0.0025
     12 C          -8.0598  -15.0477   24.6485 C.3     1  UNL1        0.0002
     13 C          -8.4581  -15.9341   23.5058 C.3     1  UNL1        0.0025
     14 C          -7.4603  -16.8813   22.9083 C.3     1  UNL1        0.0305
     15 O          -4.6394  -17.1132   23.8904 O.3     1  UNL1       -0.2256
     16 O          -4.0105  -18.1614   23.0209 O.3     1  UNL1       -0.2251
     17 C          -9.7730  -19.5082   20.3875 C.3     1  UNL1        0.1163
     18 C         -10.6390  -18.5164   21.1061 C.ar    1  UNL1       -0.0026
     19 C         -10.8001  -17.1281   20.5615 C.ar    1  UNL1       -0.0026
     20 C         -11.6661  -16.1364   21.2802 C.ar    1  UNL1       -0.0003
     21 C         -12.3711  -16.5330   22.5433 C.ar    1  UNL1        0.0038
     22 C         -12.2101  -17.9212   23.0879 C.ar    1  UNL1        0.0712
     23 C         -11.3440  -18.9130   22.3693 C.ar    1  UNL1        0.0012
     24 C         -12.9150  -18.3178   24.3511 C.3     1  UNL1        0.4186
     25 F         -13.6200  -18.7145   25.6143 F       1  UNL1       -0.1659
     26 F         -11.7098  -19.1024   24.7774 F       1  UNL1       -0.1659
     27 F         -14.1203  -17.5333   23.9249 F       1  UNL1       -0.1659
@<TRIPOS>BOND
     1     6     7    1
     2     7     5    1
     3     5     1    1
     4     1     2    2
     5     1     3   am
     6     3    17    1
     7    17    18    1
     8    18    19   ar
     9    19    20   ar
    10    20    21   ar
    11    21    22   ar
    12    22    24    1
    13    24    25    1
    14    24    26    1
    15    24    27    1
    16    22    23   ar
    17     7     8    1
    18     8     9    1
    19     9    10    1
    20    10    11    1
    21    11    12    1
    22    12    13    1
    23    13    14    1
    24     9    15    1
    25    15    16    1
    26    16     7    1
    27    23    18   ar
    28    14     9    1
    29     3     4    1
@<TRIPOS>MOLECULE
*****
 27 29 0 0 0
SMALL
GASTEIGER

@<TRIPOS>ATOM
      1 C          -9.3421  -19.4686   19.2398 C.2     1  UNL1        0.2252
      2 O          -9.2829  -20.6589   18.3291 O.2     1  UNL1       -0.2750
      3 N          -8.0946  -18.9746   19.9106 N.am    1  UNL1       -0.3004
      4 H          -8.1335  -18.1933   20.5083 H       1  UNL1        0.1497
      5 C         -10.6488  -18.7721   19.4797 C.3     1  UNL1        0.1154
      6 C         -11.0747  -16.8104   19.4679 C.3     1  UNL1        0.0335
      7 C         -10.7699  -17.7646   20.5843 C.3     1  UNL1        0.1377
      8 C         -10.4397  -18.9294   21.4699 C.3     1  UNL1        0.0613
      9 C         -10.4203  -18.4424   22.8886 C.3     1  UNL1        0.1290
     10 C         -10.4368  -17.8135   24.2502 C.3     1  UNL1        0.0305
     11 C         -10.1496  -18.6461   25.4644 C.3     1  UNL1        0.0025
     12 C          -9.8460  -20.1076   25.3169 C.3     1  UNL1        0.0002
     13 C          -9.8296  -20.7365   23.9553 C.3     1  UNL1        0.0025
     14 C         -10.1168  -19.9039   22.7411 C.3     1  UNL1        0.0305
     15 O         -10.7386  -16.9766   22.8798 O.3     1  UNL1       -0.2256
     16 O         -10.9546  -16.5576   21.4557 O.3     1  UNL1       -0.2251
     17 C          -6.7880  -19.6711   19.6707 C.3     1  UNL1        0.1163
     18 C          -5.5719  -19.2746   20.4541 C.ar    1  UNL1       -0.0026
     19 C          -5.6335  -19.2065   21.9513 C.ar    1  UNL1       -0.0026
     20 C          -4.4174  -18.8101   22.7348 C.ar    1  UNL1       -0.0003
     21 C          -3.1396  -18.4818   22.0210 C.ar    1  UNL1        0.0038
     22 C          -3.0779  -18.5498   20.5239 C.ar    1  UNL1        0.0712
     23 C          -4.2941  -18.9463   19.7404 C.ar    1  UNL1        0.0012
     24 C          -1.8001  -18.2215   19.8102 C.3     1  UNL1        0.4186
     25 F          -0.5224  -17.8932   19.0965 F       1  UNL1       -0.1659
     26 F          -1.3159  -17.4776   21.0194 F       1  UNL1       -0.1659
     27 F          -2.2843  -18.9654   18.6010 F       1  UNL1       -0.1659
@<TRIPOS>BOND
     1     6     7    1
     2     7     5    1
     3     5     1    1
     4     1     2    2
     5     1     3   am
     6     3    17    1
     7    17    18    1
     8    18    19   ar
     9    19    20   ar
    10    20    21   ar
    11    21    22   ar
    12    22    24    1
    13    24    25    1
    14    24    26    1
    15    24    27    1
    16    22    23   ar
    17     7     8    1
    18     8     9    1
    19     9    10    1
    20    10    11    1
    21    11    12    1
    22    12    13    1
    23    13    14    1
    24     9    15    1
    25    15    16    1
    26    16     7    1
    27    23    18   ar
    28    14     9    1
    29     3     4    1
