@<TRIPOS>MOLECULE
*****
 36 40 0 0 0
SMALL
GASTEIGER

@<TRIPOS>ATOM
      1 C          -9.1108  -19.1171   21.0615 C.3     1  UNL1        0.0705
      2 C          -9.5406  -19.8274   19.8123 C.3     1  UNL1        0.0082
      3 C         -10.7178  -19.3242   19.0306 C.3     1  UNL1        0.0005
      4 C         -11.4653  -18.1107   19.4982 C.3     1  UNL1        0.0005
      5 C         -11.0355  -17.4004   20.7475 C.3     1  UNL1        0.0095
      6 C          -9.8583  -17.9036   21.5291 C.3     1  UNL1        0.0840
      7 C          -9.4285  -17.1932   22.7784 C.2     1  UNL1        0.2261
      8 O          -9.3862  -15.6942   22.8120 O.2     1  UNL1       -0.2748
      9 N          -9.0409  -17.9820   23.9941 N.am    1  UNL1       -0.2814
     10 H          -9.0686  -18.9658   23.9720 H       1  UNL1        0.1549
     11 C          -8.6111  -17.2716   25.2434 C.ar    1  UNL1        0.0935
     12 C          -9.3097  -17.3199   26.5698 C.ar    1  UNL1        0.1364
     13 N          -8.5376  -16.4664   27.5317 N.ar    1  UNL1       -0.1662
     14 N          -7.3617  -15.8906   26.7998 N.ar    1  UNL1       -0.2434
     15 C          -7.4071  -16.3882   25.3855 C.ar    1  UNL1        0.1460
     16 C          -6.3464  -15.9727   24.4097 C.2     1  UNL1        0.2646
     17 O          -6.3918  -16.4704   22.9954 O.2     1  UNL1       -0.2685
     18 N          -5.2402  -15.0596   24.8483 N.am    1  UNL1       -0.2976
     19 C          -5.1947  -14.5619   26.2626 C.3     1  UNL1        0.1161
     20 C          -6.2555  -14.9774   27.2384 C.3     1  UNL1        0.1488
     21 H          -4.5439  -14.7868   24.2079 H       1  UNL1        0.1499
     22 C          -7.9336  -19.6202   21.8432 C.2     1  UNL1        0.1731
     23 O          -8.1500  -20.4372   23.0824 O.2     1  UNL1       -0.2913
     24 C          -3.7528  -18.6787   20.4704 C.ar    1  UNL1        0.0194
     25 C          -4.8855  -18.6668   19.4873 C.ar    1  UNL1        0.0016
     26 C          -6.2791  -18.9806   19.9448 C.ar    1  UNL1        0.0029
     27 C          -6.5400  -19.3064   21.3856 C.ar    1  UNL1        0.0347
     28 C          -5.4072  -19.3184   22.3687 C.ar    1  UNL1        0.0029
     29 C          -4.0135  -19.0045   21.9112 C.ar    1  UNL1        0.0016
     30 C           1.3948  -17.5027   20.4921 C.3     1  UNL1        0.0515
     31 C           0.0069  -17.8243   20.0228 C.ar    1  UNL1        0.0535
     32 C          -1.1816  -18.0872   20.8994 C.ar    1  UNL1        0.0349
     33 C          -2.3592  -18.3649   20.0128 C.ar    1  UNL1        0.1018
     34 N          -1.8986  -18.2737   18.5882 N.ar    1  UNL1       -0.1730
     35 N          -0.4362  -17.9396   18.5943 N.ar    1  UNL1       -0.2798
     36 H           0.1328  -17.8174   17.8003 H       1  UNL1        0.1886
@<TRIPOS>BOND
     1    30    31    1
     2    31    32   ar
     3    32    33   ar
     4    33    24    1
     5    24    25   ar
     6    25    26   ar
     7    26    27   ar
     8    27    22    1
     9    22    23    2
    10     1    22    1
    11     1     2    1
    12     2     3    1
    13     3     4    1
    14     4     5    1
    15     5     6    1
    16     6     7    1
    17     7     8    2
    18     7     9   am
    19     9    11    1
    20    11    12   ar
    21    12    13   ar
    22    13    14   ar
    23    14    15   ar
    24    15    16    1
    25    16    17    2
    26    16    18   am
    27    18    19    1
    28    19    20    1
    29    27    28   ar
    30    28    29   ar
    31    33    34   ar
    32    34    35   ar
    33    35    31   ar
    34    29    24   ar
    35     6     1    1
    36    15    11   ar
    37    20    14    1
    38     9    10    1
    39    18    21    1
    40    35    36    1
@<TRIPOS>MOLECULE
*****
 36 40 0 0 0
SMALL
GASTEIGER

@<TRIPOS>ATOM
      1 C         -17.3968   -7.3283   18.2078 C.3     1  UNL1        0.0705
      2 C         -18.7532   -7.8762   18.5394 C.3     1  UNL1        0.0082
      3 C         -18.8769   -9.1657   19.2956 C.3     1  UNL1        0.0005
      4 C         -17.6442   -9.9074   19.7202 C.3     1  UNL1        0.0005
      5 C         -16.2878   -9.3595   19.3886 C.3     1  UNL1        0.0095
      6 C         -16.1641   -8.0700   18.6324 C.3     1  UNL1        0.0840
      7 C         -14.8077   -7.5221   18.3008 C.2     1  UNL1        0.2261
      8 O         -14.2796   -7.6236   16.9005 O.2     1  UNL1       -0.2748
      9 N         -13.9793   -6.8727   19.3696 N.am    1  UNL1       -0.2814
     10 H         -14.3259   -6.8061   20.2887 H       1  UNL1        0.1549
     11 C         -12.6229   -6.3248   19.0380 C.ar    1  UNL1        0.0935
     12 C         -11.4265   -7.1266   18.6187 C.ar    1  UNL1        0.1364
     13 N         -10.2889   -6.1763   18.3890 N.ar    1  UNL1       -0.1662
     14 N         -10.7822   -4.7871   18.6664 N.ar    1  UNL1       -0.2434
     15 C         -12.2247   -4.8789   19.0675 C.ar    1  UNL1        0.1460
     16 C         -12.9892   -3.6341   19.4077 C.2     1  UNL1        0.2646
     17 O         -14.4317   -3.7259   19.8088 O.2     1  UNL1       -0.2685
     18 N         -12.3113   -2.2974   19.3469 N.am    1  UNL1       -0.2976
     19 C         -10.8689   -2.2056   18.9458 C.3     1  UNL1        0.1161
     20 C         -10.1043   -3.4505   18.6056 C.3     1  UNL1        0.1488
     21 H         -12.8131   -1.4804   19.5702 H       1  UNL1        0.1499
     22 C         -17.2731   -6.0388   17.4516 C.2     1  UNL1        0.1731
     23 O         -16.9563   -6.0564   15.9856 O.2     1  UNL1       -0.2913
     24 C         -17.8523   -2.1171   19.5812 C.ar    1  UNL1        0.0194
     25 C         -18.2566   -3.3990   20.2471 C.ar    1  UNL1        0.0016
     26 C         -18.0635   -4.7062   19.5373 C.ar    1  UNL1        0.0029
     27 C         -17.4662   -4.7316   18.1615 C.ar    1  UNL1        0.0347
     28 C         -17.0619   -3.4497   17.4957 C.ar    1  UNL1        0.0029
     29 C         -17.2550   -2.1424   18.2055 C.ar    1  UNL1        0.0016
     30 C         -16.9537    2.6667   21.6279 C.3     1  UNL1        0.0515
     31 C         -17.6324    1.3890   21.2319 C.ar    1  UNL1        0.0535
     32 C         -17.0097    0.2615   20.4630 C.ar    1  UNL1        0.0349
     33 C         -18.0454   -0.8099   20.2911 C.ar    1  UNL1        0.1018
     34 N         -19.3081   -0.3446   20.9538 N.ar    1  UNL1       -0.1730
     35 N         -19.0528    1.0144   21.5353 N.ar    1  UNL1       -0.2798
     36 H         -19.7033    1.5640   22.0292 H       1  UNL1        0.1886
@<TRIPOS>BOND
     1    30    31    1
     2    31    32   ar
     3    32    33   ar
     4    33    24    1
     5    24    25   ar
     6    25    26   ar
     7    26    27   ar
     8    27    22    1
     9    22    23    2
    10     1    22    1
    11     1     2    1
    12     2     3    1
    13     3     4    1
    14     4     5    1
    15     5     6    1
    16     6     7    1
    17     7     8    2
    18     7     9   am
    19     9    11    1
    20    11    12   ar
    21    12    13   ar
    22    13    14   ar
    23    14    15   ar
    24    15    16    1
    25    16    17    2
    26    16    18   am
    27    18    19    1
    28    19    20    1
    29    27    28   ar
    30    28    29   ar
    31    33    34   ar
    32    34    35   ar
    33    35    31   ar
    34    29    24   ar
    35     6     1    1
    36    15    11   ar
    37    20    14    1
    38     9    10    1
    39    18    21    1
    40    35    36    1
@<TRIPOS>MOLECULE
*****
 36 40 0 0 0
SMALL
GASTEIGER

@<TRIPOS>ATOM
      1 C           1.5092    1.1954   26.6395 C.3     1  UNL1        0.0705
      2 C           0.2081    1.8520   26.2844 C.3     1  UNL1        0.0082
      3 C          -1.0021    1.6315   27.1426 C.3     1  UNL1        0.0005
      4 C          -0.9114    0.7544   28.3561 C.3     1  UNL1        0.0005
      5 C           0.3897    0.0978   28.7112 C.3     1  UNL1        0.0095
      6 C           1.5999    0.3183   27.8529 C.3     1  UNL1        0.0840
      7 C           2.9010   -0.3383   28.2081 C.2     1  UNL1        0.2261
      8 O           3.2031   -1.7213   27.7121 O.2     1  UNL1       -0.2748
      9 N           3.9000    0.3881   29.0592 N.am    1  UNL1       -0.2814
     10 H           3.7017    1.2959   29.3848 H       1  UNL1        0.1549
     11 C           5.2010   -0.2685   29.4144 C.ar    1  UNL1        0.0935
     12 C           6.5117   -0.0645   28.7139 C.ar    1  UNL1        0.1364
     13 N           7.5405   -0.9143   29.3990 N.ar    1  UNL1       -0.1662
     14 N           6.8657   -1.6435   30.5228 N.ar    1  UNL1       -0.2434
     15 C           5.4198   -1.2444   30.5323 C.ar    1  UNL1        0.1460
     16 C           4.4893   -1.8211   31.5577 C.2     1  UNL1        0.2646
     17 O           3.0434   -1.4219   31.5672 O.2     1  UNL1       -0.2685
     18 N           5.0046   -2.7970   32.5736 N.am    1  UNL1       -0.2976
     19 C           6.4505   -3.1961   32.5641 C.3     1  UNL1        0.1161
     20 C           7.3810   -2.6194   31.5387 C.3     1  UNL1        0.1488
     21 H           4.3939   -3.1755   33.2466 H       1  UNL1        0.1499
     22 C           2.7195    1.4159   25.7812 C.2     1  UNL1        0.1731
     23 O           3.7262    2.4618   26.1587 O.2     1  UNL1       -0.2913
     24 C           3.3301   -1.0605   22.0738 C.ar    1  UNL1        0.0194
     25 C           2.4046    0.1196   22.0435 C.ar    1  UNL1        0.0016
     26 C           2.2010    0.9450   23.2792 C.ar    1  UNL1        0.0029
     27 C           2.9230    0.5905   24.5454 C.ar    1  UNL1        0.0347
     28 C           3.8484   -0.5896   24.5757 C.ar    1  UNL1        0.0029
     29 C           4.0520   -1.4151   23.3399 C.ar    1  UNL1        0.0016
     30 C           4.5544   -5.0606   18.8519 C.3     1  UNL1        0.0515
     31 C           4.0964   -3.7246   19.3570 C.ar    1  UNL1        0.0535
     32 C           4.0571   -3.2909   20.7924 C.ar    1  UNL1        0.0349
     33 C           3.5336   -1.8859   20.8380 C.ar    1  UNL1        0.1018
     34 N           3.2494   -1.4513   19.4308 N.ar    1  UNL1       -0.1730
     35 N           3.5972   -2.5877   18.5155 N.ar    1  UNL1       -0.2798
     36 H           3.5126   -2.5873   17.5346 H       1  UNL1        0.1886
@<TRIPOS>BOND
     1    30    31    1
     2    31    32   ar
     3    32    33   ar
     4    33    24    1
     5    24    25   ar
     6    25    26   ar
     7    26    27   ar
     8    27    22    1
     9    22    23    2
    10     1    22    1
    11     1     2    1
    12     2     3    1
    13     3     4    1
    14     4     5    1
    15     5     6    1
    16     6     7    1
    17     7     8    2
    18     7     9   am
    19     9    11    1
    20    11    12   ar
    21    12    13   ar
    22    13    14   ar
    23    14    15   ar
    24    15    16    1
    25    16    17    2
    26    16    18   am
    27    18    19    1
    28    19    20    1
    29    27    28   ar
    30    28    29   ar
    31    33    34   ar
    32    34    35   ar
    33    35    31   ar
    34    29    24   ar
    35     6     1    1
    36    15    11   ar
    37    20    14    1
    38     9    10    1
    39    18    21    1
    40    35    36    1
@<TRIPOS>MOLECULE
*****
 36 40 0 0 0
SMALL
GASTEIGER

@<TRIPOS>ATOM
      1 C           7.1152   -1.0873   32.4172 C.3     1  UNL1        0.0705
      2 C           8.1559   -2.1113   32.7613 C.3     1  UNL1        0.0082
      3 C           8.1258   -3.4605   32.1067 C.3     1  UNL1        0.0005
      4 C           7.0550   -3.7860   31.1080 C.3     1  UNL1        0.0005
      5 C           6.0142   -2.7620   30.7640 C.3     1  UNL1        0.0095
      6 C           6.0443   -1.4128   31.4186 C.3     1  UNL1        0.0840
      7 C           5.0036   -0.3888   31.0745 C.2     1  UNL1        0.2261
      8 O           5.3760    0.8151   30.2610 O.2     1  UNL1       -0.2748
      9 N           3.5903   -0.5688   31.5441 N.am    1  UNL1       -0.2814
     10 H           3.3458   -1.3590   32.0780 H       1  UNL1        0.1549
     11 C           2.5495    0.4551   31.2000 C.ar    1  UNL1        0.0935
     12 C           1.9964    1.4962   32.1275 C.ar    1  UNL1        0.1364
     13 N           0.9842    2.3022   31.3688 N.ar    1  UNL1       -0.1662
     14 N           0.9117    1.7593   29.9723 N.ar    1  UNL1       -0.2434
     15 C           1.8791    0.6177   29.8680 C.ar    1  UNL1        0.1460
     16 C           2.0246   -0.1263   28.5737 C.2     1  UNL1        0.2646
     17 O           2.9920   -1.2679   28.4694 O.2     1  UNL1       -0.2685
     18 N           1.2026    0.2713   27.3837 N.am    1  UNL1       -0.2976
     19 C           0.2352    1.4129   27.4880 C.3     1  UNL1        0.1161
     20 C           0.0897    2.1569   28.7823 C.3     1  UNL1        0.1488
     21 H           1.2981   -0.2169   26.5342 H       1  UNL1        0.1499
     22 C           7.1453    0.2619   33.0719 C.2     1  UNL1        0.1731
     23 O           8.2365    1.2346   32.7355 O.2     1  UNL1       -0.2913
     24 C           3.9617    1.3917   36.0449 C.ar    1  UNL1        0.0194
     25 C           4.4681    2.4087   35.0654 C.ar    1  UNL1        0.0016
     26 C           5.5292    2.0322   34.0744 C.ar    1  UNL1        0.0029
     27 C           6.0841    0.6386   34.0628 C.ar    1  UNL1        0.0347
     28 C           5.5778   -0.3784   35.0423 C.ar    1  UNL1        0.0029
     29 C           4.5166   -0.0018   36.0334 C.ar    1  UNL1        0.0016
     30 C           0.8246    1.3778   40.2921 C.3     1  UNL1        0.0515
     31 C           1.4586    1.7620   38.9881 C.ar    1  UNL1        0.0535
     32 C           2.5859    1.0415   38.3097 C.ar    1  UNL1        0.0349
     33 C           2.9006    1.7684   37.0359 C.ar    1  UNL1        0.1018
     34 N           1.9678    2.9380   36.9270 N.ar    1  UNL1       -0.1730
     35 N           1.0766    2.9341   38.1336 N.ar    1  UNL1       -0.2798
     36 H           0.3658    3.5863   38.3301 H       1  UNL1        0.1886
@<TRIPOS>BOND
     1    30    31    1
     2    31    32   ar
     3    32    33   ar
     4    33    24    1
     5    24    25   ar
     6    25    26   ar
     7    26    27   ar
     8    27    22    1
     9    22    23    2
    10     1    22    1
    11     1     2    1
    12     2     3    1
    13     3     4    1
    14     4     5    1
    15     5     6    1
    16     6     7    1
    17     7     8    2
    18     7     9   am
    19     9    11    1
    20    11    12   ar
    21    12    13   ar
    22    13    14   ar
    23    14    15   ar
    24    15    16    1
    25    16    17    2
    26    16    18   am
    27    18    19    1
    28    19    20    1
    29    27    28   ar
    30    28    29   ar
    31    33    34   ar
    32    34    35   ar
    33    35    31   ar
    34    29    24   ar
    35     6     1    1
    36    15    11   ar
    37    20    14    1
    38     9    10    1
    39    18    21    1
    40    35    36    1
@<TRIPOS>MOLECULE
*****
 36 40 0 0 0
SMALL
GASTEIGER

@<TRIPOS>ATOM
      1 C          -0.1215    3.2186   23.4140 C.3     1  UNL1        0.0705
      2 C           0.5405    2.6905   24.6521 C.3     1  UNL1        0.0082
      3 C          -0.2653    2.4717   25.8982 C.3     1  UNL1        0.0005
      4 C          -1.7331    2.7809   25.9063 C.3     1  UNL1        0.0005
      5 C          -2.3950    3.3089   24.6681 C.3     1  UNL1        0.0095
      6 C          -1.5892    3.5277   23.4220 C.3     1  UNL1        0.0840
      7 C          -2.2512    4.0557   22.1838 C.2     1  UNL1        0.2261
      8 O          -2.4746    5.5303   22.0235 O.2     1  UNL1       -0.2748
      9 N          -2.6897    3.1091   21.1059 N.am    1  UNL1       -0.2814
     10 H          -2.5430    2.1413   21.2112 H       1  UNL1        0.1549
     11 C          -3.3516    3.6371   19.8678 C.ar    1  UNL1        0.0935
     12 C          -2.6908    3.8535   18.5387 C.ar    1  UNL1        0.1364
     13 N          -3.7214    4.3915   17.5909 N.ar    1  UNL1       -0.1662
     14 N          -5.0191    4.5077   18.3342 N.ar    1  UNL1       -0.2434
     15 C          -4.7905    4.0415   19.7414 C.ar    1  UNL1        0.1460
     16 C          -5.9222    4.0453   20.7259 C.2     1  UNL1        0.2646
     17 O          -5.6936    3.5791   22.1332 O.2     1  UNL1       -0.2685
     18 N          -7.2824    4.5154   20.3032 N.am    1  UNL1       -0.2976
     19 C          -7.5110    4.9817   18.8960 C.3     1  UNL1        0.1161
     20 C          -6.3793    4.9779   17.9114 C.3     1  UNL1        0.1488
     21 H          -8.0252    4.5180   20.9494 H       1  UNL1        0.1499
     22 C           0.6843    3.4374   22.1679 C.2     1  UNL1        0.1731
     23 O           0.8575    4.8231   21.6204 O.2     1  UNL1       -0.2913
     24 C           2.5823   -0.0634   20.0720 C.ar    1  UNL1        0.0194
     25 C           1.1723   -0.1641   20.5738 C.ar    1  UNL1        0.0016
     26 C           0.5396    1.0027   21.2724 C.ar    1  UNL1        0.0029
     27 C           1.3169    2.2705   21.4692 C.ar    1  UNL1        0.0347
     28 C           2.7269    2.3712   20.9675 C.ar    1  UNL1        0.0029
     29 C           3.3596    1.2043   20.2688 C.ar    1  UNL1        0.0016
     30 C           4.3645   -4.9203   19.0162 C.3     1  UNL1        0.0515
     31 C           4.0341   -3.4628   18.8880 C.ar    1  UNL1        0.0535
     32 C           3.3371   -2.6229   19.9170 C.ar    1  UNL1        0.0349
     33 C           3.2149   -1.2303   19.3733 C.ar    1  UNL1        0.1018
     34 N           3.8363   -1.2094   18.0083 N.ar    1  UNL1       -0.1730
     35 N           4.3427   -2.5892   17.7084 N.ar    1  UNL1       -0.2798
     36 H           4.7976   -2.8718   16.8823 H       1  UNL1        0.1886
@<TRIPOS>BOND
     1    30    31    1
     2    31    32   ar
     3    32    33   ar
     4    33    24    1
     5    24    25   ar
     6    25    26   ar
     7    26    27   ar
     8    27    22    1
     9    22    23    2
    10     1    22    1
    11     1     2    1
    12     2     3    1
    13     3     4    1
    14     4     5    1
    15     5     6    1
    16     6     7    1
    17     7     8    2
    18     7     9   am
    19     9    11    1
    20    11    12   ar
    21    12    13   ar
    22    13    14   ar
    23    14    15   ar
    24    15    16    1
    25    16    17    2
    26    16    18   am
    27    18    19    1
    28    19    20    1
    29    27    28   ar
    30    28    29   ar
    31    33    34   ar
    32    34    35   ar
    33    35    31   ar
    34    29    24   ar
    35     6     1    1
    36    15    11   ar
    37    20    14    1
    38     9    10    1
    39    18    21    1
    40    35    36    1
@<TRIPOS>MOLECULE
*****
 36 40 0 0 0
SMALL
GASTEIGER

@<TRIPOS>ATOM
      1 C           8.3494   -4.7901   23.9047 C.3     1  UNL1        0.0705
      2 C           8.6491   -5.7226   22.7686 C.3     1  UNL1        0.0082
      3 C           8.7866   -7.1945   23.0227 C.3     1  UNL1        0.0005
      4 C           8.6244   -7.7340   24.4129 C.3     1  UNL1        0.0005
      5 C           8.3248   -6.8015   25.5490 C.3     1  UNL1        0.0095
      6 C           8.1873   -5.3296   25.2949 C.3     1  UNL1        0.0840
      7 C           7.8877   -4.3971   26.4310 C.2     1  UNL1        0.2261
      8 O           9.0050   -3.6715   27.1202 O.2     1  UNL1       -0.2748
      9 N           6.4708   -4.1904   26.8778 N.am    1  UNL1       -0.2814
     10 H           5.7374   -4.6666   26.4254 H       1  UNL1        0.1549
     11 C           6.1711   -3.2579   28.0139 C.ar    1  UNL1        0.0935
     12 C           5.6729   -1.8485   27.8898 C.ar    1  UNL1        0.1364
     13 N           5.5110   -1.2907   29.2728 N.ar    1  UNL1       -0.1662
     14 N           5.9092   -2.3553   30.2516 N.ar    1  UNL1       -0.2434
     15 C           6.3171   -3.5711   29.4736 C.ar    1  UNL1        0.1460
     16 C           6.7689   -4.8064   30.1947 C.2     1  UNL1        0.2646
     17 O           7.1769   -6.0222   29.4167 O.2     1  UNL1       -0.2685
     18 N           6.8126   -4.8258   31.6939 N.am    1  UNL1       -0.2976
     19 C           6.4047   -3.6100   32.4720 C.3     1  UNL1        0.1161
     20 C           5.9529   -2.3747   31.7508 C.3     1  UNL1        0.1488
     21 H           7.1091   -5.6365   32.1673 H       1  UNL1        0.1499
     22 C           8.2120   -3.3182   23.6506 C.2     1  UNL1        0.1731
     23 O           9.3447   -2.3914   23.9790 O.2     1  UNL1       -0.2913
     24 C           4.4012   -1.6829   21.9030 C.ar    1  UNL1        0.0194
     25 C           4.3514   -2.8252   22.8738 C.ar    1  UNL1        0.0016
     26 C           5.6216   -3.3704   23.4564 C.ar    1  UNL1        0.0029
     27 C           6.9417   -2.7731   23.0681 C.ar    1  UNL1        0.0347
     28 C           6.9915   -1.6308   22.0972 C.ar    1  UNL1        0.0029
     29 C           5.7212   -1.0856   21.5146 C.ar    1  UNL1        0.0016
     30 C           0.1161    1.2972   21.1044 C.3     1  UNL1        0.0515
     31 C           1.1613    0.2320   20.9534 C.ar    1  UNL1        0.0535
     32 C           2.3602    0.0418   21.8346 C.ar    1  UNL1        0.0349
     33 C           3.1310   -1.1378   21.3205 C.ar    1  UNL1        0.1018
     34 N           2.4084   -1.6768   20.1215 N.ar    1  UNL1       -0.1730
     35 N           1.1911   -0.8302   19.8946 N.ar    1  UNL1       -0.2798
     36 H           0.5281   -0.9505   19.1768 H       1  UNL1        0.1886
@<TRIPOS>BOND
     1    30    31    1
     2    31    32   ar
     3    32    33   ar
     4    33    24    1
     5    24    25   ar
     6    25    26   ar
     7    26    27   ar
     8    27    22    1
     9    22    23    2
    10     1    22    1
    11     1     2    1
    12     2     3    1
    13     3     4    1
    14     4     5    1
    15     5     6    1
    16     6     7    1
    17     7     8    2
    18     7     9   am
    19     9    11    1
    20    11    12   ar
    21    12    13   ar
    22    13    14   ar
    23    14    15   ar
    24    15    16    1
    25    16    17    2
    26    16    18   am
    27    18    19    1
    28    19    20    1
    29    27    28   ar
    30    28    29   ar
    31    33    34   ar
    32    34    35   ar
    33    35    31   ar
    34    29    24   ar
    35     6     1    1
    36    15    11   ar
    37    20    14    1
    38     9    10    1
    39    18    21    1
    40    35    36    1
@<TRIPOS>MOLECULE
*****
 36 40 0 0 0
SMALL
GASTEIGER

@<TRIPOS>ATOM
      1 C           4.5806   -1.4512   18.9110 C.3     1  UNL1        0.0705
      2 C           4.4398   -0.4632   17.7911 C.3     1  UNL1        0.0082
      3 C           5.6607    0.0582   17.0930 C.3     1  UNL1        0.0005
      4 C           7.0225   -0.4083   17.5147 C.3     1  UNL1        0.0005
      5 C           7.1633   -1.3962   18.6345 C.3     1  UNL1        0.0095
      6 C           5.9424   -1.9177   19.3326 C.3     1  UNL1        0.0840
      7 C           6.0832   -2.9056   20.4525 C.2     1  UNL1        0.2261
      8 O           5.6240   -4.3214   20.2659 O.2     1  UNL1       -0.2748
      9 N           6.6832   -2.4778   21.7591 N.am    1  UNL1       -0.2814
     10 H           6.9846   -1.5486   21.8816 H       1  UNL1        0.1549
     11 C           6.8241   -3.4658   22.8790 C.ar    1  UNL1        0.0935
     12 C           6.0657   -3.4457   24.1730 C.ar    1  UNL1        0.1364
     13 N           6.5210   -4.6148   24.9952 N.ar    1  UNL1       -0.1662
     14 N           7.5606   -5.3575   24.2093 N.ar    1  UNL1       -0.2434
     15 C           7.7479   -4.6473   22.9014 C.ar    1  UNL1        0.1460
     16 C           8.7355   -5.1683   21.8998 C.2     1  UNL1        0.2646
     17 O           8.9229   -4.4581   20.5919 O.2     1  UNL1       -0.2685
     18 N           9.5358   -6.3994   22.2061 N.am    1  UNL1       -0.2976
     19 C           9.3485   -7.1095   23.5140 C.3     1  UNL1        0.1161
     20 C           8.3609   -6.5886   24.5156 C.3     1  UNL1        0.1488
     21 H          10.1840   -6.7413   21.5488 H       1  UNL1        0.1499
     22 C           3.3596   -1.9726   19.6091 C.2     1  UNL1        0.1731
     23 O           2.8758   -3.3655   19.3339 O.2     1  UNL1       -0.2913
     24 C           1.1483    0.6418   22.5288 C.ar    1  UNL1        0.0194
     25 C           2.4282   -0.0243   22.9387 C.ar    1  UNL1        0.0016
     26 C           3.1653   -0.8958   21.9655 C.ar    1  UNL1        0.0029
     27 C           2.6226   -1.1012   20.5823 C.ar    1  UNL1        0.0347
     28 C           1.3426   -0.4350   20.1724 C.ar    1  UNL1        0.0029
     29 C           0.6054    0.4365   21.1456 C.ar    1  UNL1        0.0016
     30 C          -1.0424    2.4716   26.9710 C.3     1  UNL1        0.0515
     31 C          -0.5958    2.3544   25.5439 C.ar    1  UNL1        0.0535
     32 C           0.1840    1.2164   24.9547 C.ar    1  UNL1        0.0349
     33 C           0.4112    1.5133   23.5020 C.ar    1  UNL1        0.1018
     34 N          -0.2281    2.8347   23.1934 N.ar    1  UNL1       -0.1730
     35 N          -0.8505    3.3545   24.4554 N.ar    1  UNL1       -0.2798
     36 H          -1.3401    4.2031   24.5522 H       1  UNL1        0.1886
@<TRIPOS>BOND
     1    30    31    1
     2    31    32   ar
     3    32    33   ar
     4    33    24    1
     5    24    25   ar
     6    25    26   ar
     7    26    27   ar
     8    27    22    1
     9    22    23    2
    10     1    22    1
    11     1     2    1
    12     2     3    1
    13     3     4    1
    14     4     5    1
    15     5     6    1
    16     6     7    1
    17     7     8    2
    18     7     9   am
    19     9    11    1
    20    11    12   ar
    21    12    13   ar
    22    13    14   ar
    23    14    15   ar
    24    15    16    1
    25    16    17    2
    26    16    18   am
    27    18    19    1
    28    19    20    1
    29    27    28   ar
    30    28    29   ar
    31    33    34   ar
    32    34    35   ar
    33    35    31   ar
    34    29    24   ar
    35     6     1    1
    36    15    11   ar
    37    20    14    1
    38     9    10    1
    39    18    21    1
    40    35    36    1
@<TRIPOS>MOLECULE
*****
 36 40 0 0 0
SMALL
GASTEIGER

@<TRIPOS>ATOM
      1 C           8.7620   -5.5900   25.4867 C.3     1  UNL1        0.0705
      2 C           9.4686   -6.6631   24.7126 C.3     1  UNL1        0.0082
      3 C           9.5358   -8.0595   25.2563 C.3     1  UNL1        0.0005
      4 C           8.8965   -8.3828   26.5741 C.3     1  UNL1        0.0005
      5 C           8.1899   -7.3097   27.3482 C.3     1  UNL1        0.0095
      6 C           8.1226   -5.9134   26.8045 C.3     1  UNL1        0.0840
      7 C           7.4160   -4.8403   27.5786 C.2     1  UNL1        0.2261
      8 O           5.9174   -4.8241   27.6416 O.2     1  UNL1       -0.2748
      9 N           8.2081   -3.7833   28.2898 N.am    1  UNL1       -0.2814
     10 H           9.1917   -3.7940   28.2484 H       1  UNL1        0.1549
     11 C           7.5015   -2.7103   29.0639 C.ar    1  UNL1        0.0935
     12 C           7.3643   -1.2735   28.6554 C.ar    1  UNL1        0.1364
     13 N           6.5860   -0.5609   29.7214 N.ar    1  UNL1       -0.1662
     14 N           6.2422   -1.5572   30.7888 N.ar    1  UNL1       -0.2434
     15 C           6.8080   -2.8856   30.3823 C.ar    1  UNL1        0.1460
     16 C           6.6187   -4.0833   31.2653 C.2     1  UNL1        0.2646
     17 O           7.1845   -5.4117   30.8589 O.2     1  UNL1       -0.2685
     18 N           5.8636   -3.9525   32.5547 N.am    1  UNL1       -0.2976
     19 C           5.2978   -2.6241   32.9612 C.3     1  UNL1        0.1161
     20 C           5.4871   -1.4264   32.0782 C.3     1  UNL1        0.1488
     21 H           5.7393   -4.7386   33.1343 H       1  UNL1        0.1499
     22 C           8.6947   -4.1937   24.9430 C.2     1  UNL1        0.1731
     23 O           9.4545   -3.0893   25.6161 O.2     1  UNL1       -0.2913
     24 C           6.2134   -3.3177   21.2925 C.ar    1  UNL1        0.0194
     25 C           7.7106   -3.2802   21.2084 C.ar    1  UNL1        0.0016
     26 C           8.5377   -3.5722   22.4251 C.ar    1  UNL1        0.0029
     27 C           7.8677   -3.9017   23.7261 C.ar    1  UNL1        0.0347
     28 C           6.3705   -3.9392   23.8102 C.ar    1  UNL1        0.0029
     29 C           5.5433   -3.6472   22.5934 C.ar    1  UNL1        0.0016
     30 C           4.0629   -0.8314   17.1603 C.3     1  UNL1        0.0515
     31 C           4.3979   -1.8829   18.1763 C.ar    1  UNL1        0.0535
     32 C           5.3602   -1.7320   19.3170 C.ar    1  UNL1        0.0349
     33 C           5.3864   -3.0257   20.0756 C.ar    1  UNL1        0.1018
     34 N           4.4403   -3.9763   19.4038 N.ar    1  UNL1       -0.1730
     35 N           3.8294   -3.2700   18.2299 N.ar    1  UNL1       -0.2798
     36 H           3.1709   -3.6500   17.6044 H       1  UNL1        0.1886
@<TRIPOS>BOND
     1    30    31    1
     2    31    32   ar
     3    32    33   ar
     4    33    24    1
     5    24    25   ar
     6    25    26   ar
     7    26    27   ar
     8    27    22    1
     9    22    23    2
    10     1    22    1
    11     1     2    1
    12     2     3    1
    13     3     4    1
    14     4     5    1
    15     5     6    1
    16     6     7    1
    17     7     8    2
    18     7     9   am
    19     9    11    1
    20    11    12   ar
    21    12    13   ar
    22    13    14   ar
    23    14    15   ar
    24    15    16    1
    25    16    17    2
    26    16    18   am
    27    18    19    1
    28    19    20    1
    29    27    28   ar
    30    28    29   ar
    31    33    34   ar
    32    34    35   ar
    33    35    31   ar
    34    29    24   ar
    35     6     1    1
    36    15    11   ar
    37    20    14    1
    38     9    10    1
    39    18    21    1
    40    35    36    1
@<TRIPOS>MOLECULE
*****
 36 40 0 0 0
SMALL
GASTEIGER

@<TRIPOS>ATOM
      1 C         -18.0704   -6.5092   18.5688 C.3     1  UNL1        0.0705
      2 C         -19.2226   -7.4226   18.8657 C.3     1  UNL1        0.0082
      3 C         -18.9904   -8.7071   19.6046 C.3     1  UNL1        0.0005
      4 C         -17.6060   -9.0784   20.0466 C.3     1  UNL1        0.0005
      5 C         -16.4537   -8.1651   19.7497 C.3     1  UNL1        0.0095
      6 C         -16.6859   -6.8805   19.0108 C.3     1  UNL1        0.0840
      7 C         -15.5337   -5.9672   18.7138 C.2     1  UNL1        0.2261
      8 O         -15.0562   -5.7968   17.3021 O.2     1  UNL1       -0.2748
      9 N         -14.8589   -5.2243   19.8287 N.am    1  UNL1       -0.2814
     10 H         -15.1723   -5.3361   20.7553 H       1  UNL1        0.1549
     11 C         -13.7066   -4.3109   19.5318 C.ar    1  UNL1        0.0935
     12 C         -13.7239   -2.8135   19.6168 C.ar    1  UNL1        0.1364
     13 N         -12.3628   -2.3118   19.2352 N.ar    1  UNL1       -0.1662
     14 N         -11.5042   -3.4993   18.9145 N.ar    1  UNL1       -0.2434
     15 C         -12.3348   -4.7348   19.0977 C.ar    1  UNL1        0.1460
     16 C         -11.7346   -6.0862   18.8457 C.2     1  UNL1        0.2646
     17 O         -12.5652   -7.3217   19.0290 O.2     1  UNL1       -0.2685
     18 N         -10.3039   -6.2020   18.4104 N.am    1  UNL1       -0.2976
     19 C          -9.4733   -4.9665   18.2271 C.3     1  UNL1        0.1161
     20 C         -10.0735   -3.6151   18.4792 C.3     1  UNL1        0.1488
     21 H          -9.9100   -7.0890   18.2450 H       1  UNL1        0.1499
     22 C         -18.3026   -5.2247   17.8299 C.2     1  UNL1        0.1731
     23 O         -18.5539   -5.2449   16.3512 O.2     1  UNL1       -0.2913
     24 C         -18.2452   -1.3104   20.0491 C.ar    1  UNL1        0.0194
     25 C         -19.1478   -2.4181   20.5055 C.ar    1  UNL1        0.0016
     26 C         -19.1670   -3.7228   19.7658 C.ar    1  UNL1        0.0029
     27 C         -18.2835   -3.9199   18.5696 C.ar    1  UNL1        0.0347
     28 C         -17.3809   -2.8122   18.1133 C.ar    1  UNL1        0.0029
     29 C         -17.3618   -1.5074   18.8530 C.ar    1  UNL1        0.0016
     30 C         -16.6712    3.3456   21.9791 C.3     1  UNL1        0.0515
     31 C         -17.5027    2.1345   21.6760 C.ar    1  UNL1        0.0535
     32 C         -17.0918    0.9754   20.8171 C.ar    1  UNL1        0.0349
     33 C         -18.2261   -0.0056   20.7889 C.ar    1  UNL1        0.1018
     34 N         -19.3381    0.5471   21.6303 N.ar    1  UNL1       -0.1730
     35 N         -18.8910    1.8699   22.1786 N.ar    1  UNL1       -0.2798
     36 H         -19.4164    2.4606   22.7653 H       1  UNL1        0.1886
@<TRIPOS>BOND
     1    30    31    1
     2    31    32   ar
     3    32    33   ar
     4    33    24    1
     5    24    25   ar
     6    25    26   ar
     7    26    27   ar
     8    27    22    1
     9    22    23    2
    10     1    22    1
    11     1     2    1
    12     2     3    1
    13     3     4    1
    14     4     5    1
    15     5     6    1
    16     6     7    1
    17     7     8    2
    18     7     9   am
    19     9    11    1
    20    11    12   ar
    21    12    13   ar
    22    13    14   ar
    23    14    15   ar
    24    15    16    1
    25    16    17    2
    26    16    18   am
    27    18    19    1
    28    19    20    1
    29    27    28   ar
    30    28    29   ar
    31    33    34   ar
    32    34    35   ar
    33    35    31   ar
    34    29    24   ar
    35     6     1    1
    36    15    11   ar
    37    20    14    1
    38     9    10    1
    39    18    21    1
    40    35    36    1
