@<TRIPOS>MOLECULE
*****
 43 46 0 0 0
SMALL
GASTEIGER

@<TRIPOS>ATOM
      1 C           0.2022    2.4734   26.9141 C.ar    1  UNL1        0.0053
      2 C           1.1909    1.8642   25.9648 C.ar    1  UNL1        0.0033
      3 C           0.9605    1.9496   24.4851 C.ar    1  UNL1        0.0382
      4 C          -0.2586    2.6442   23.9547 C.ar    1  UNL1        0.1529
      5 C          -1.2473    3.2535   24.9040 C.ar    1  UNL1        0.0882
      6 C          -1.0169    3.1681   26.3837 C.ar    1  UNL1        0.0181
      7 N          -2.4664    3.9481   24.3737 N.am    1  UNL1       -0.2512
      8 C          -2.6967    4.0335   22.8939 C.2     1  UNL1        0.2698
      9 O          -3.9158    4.7282   22.3636 O.2     1  UNL1       -0.2704
     10 C          -1.7080    3.4243   21.9445 C.3     1  UNL1        0.2199
     11 C          -1.0651    3.0058   20.6555 C.3     1  UNL1        0.0579
     12 O          -0.4889    2.7296   22.4749 O.3     1  UNL1       -0.4686
     13 C           0.0646    1.1395   29.1394 C.ar    1  UNL1        0.0645
     14 N           0.2949    1.0541   30.6191 N.ar    1  UNL1       -0.2183
     15 C           0.8932    2.2172   31.3535 C.ar    1  UNL1        0.2145
     16 N           1.1235    2.1318   32.8332 N.pl3   1  UNL1       -0.3274
     17 N           1.2611    3.4658   30.6080 N.ar    1  UNL1       -0.1995
     18 C           1.0308    3.5512   29.1282 C.ar    1  UNL1        0.1293
     19 N           1.3987    4.7997   28.3827 N.pl3   1  UNL1       -0.3425
     20 C           0.4325    2.3880   28.3939 C.ar    1  UNL1        0.0449
     21 H           0.8820    1.3123   33.3224 H       1  UNL1        0.1452
     22 H           1.5162    2.8952   33.3151 H       1  UNL1        0.1452
     23 H           1.7914    5.5632   28.8646 H       1  UNL1        0.1437
     24 H           1.2476    4.8558   27.4115 H       1  UNL1        0.1437
     25 C          -1.7442   -0.7166   28.9569 C.3     1  UNL1        0.0067
     26 C          -0.5337   -0.0237   28.4051 C.3     1  UNL1        0.0460
     27 C          -2.7038    3.9736   20.9665 C.ar    1  UNL1        0.0264
     28 C          -2.5551    5.3746   20.4518 C.ar    1  UNL1        0.0293
     29 C          -3.5510    5.9239   19.4737 C.ar    1  UNL1        0.1422
     30 F          -3.4022    7.3250   18.9590 F       1  UNL1       -0.2041
     31 C          -4.6954    5.0723   19.0104 C.ar    1  UNL1        0.0592
     32 C          -4.8441    3.6712   19.5251 C.ar    1  UNL1        0.1422
     33 F          -5.9887    2.8195   19.0618 F       1  UNL1       -0.2041
     34 C          -3.8483    3.1218   20.5032 C.ar    1  UNL1        0.0293
     35 C          -3.4550    4.5574   25.3230 C.3     1  UNL1        0.1196
     36 C          -4.7024    3.8090   25.6892 C.3     1  UNL1        0.1114
     37 N          -5.7942    3.6298   24.6763 N.am    1  UNL1       -0.3006
     38 C          -6.7826    4.7321   24.4360 C.2     1  UNL1        0.2524
     39 O          -6.6792    6.0138   25.2085 O.2     1  UNL1       -0.2724
     40 H          -5.8620    2.7886   24.1693 H       1  UNL1        0.1496
     41 C          -7.8744    4.5529   23.4232 C.3     1  UNL1        0.2229
     42 O          -8.9994    3.5984   23.6940 O.3     1  UNL1       -0.3737
     43 H          -8.6546    2.6922   23.7231 H       1  UNL1        0.2110
@<TRIPOS>BOND
     1    25    26    1
     2    26    13    1
     3    13    14   ar
     4    14    15   ar
     5    15    16    1
     6    15    17   ar
     7    17    18   ar
     8    18    19    1
     9    18    20   ar
    10    20     1    1
    11     1     2   ar
    12     2     3   ar
    13     3     4   ar
    14     4     5   ar
    15     5     6   ar
    16     5     7    1
    17     7    35    1
    18    35    36    1
    19    36    37    1
    20    37    38   am
    21    38    39    2
    22    38    41    1
    23    41    42    1
    24     7     8   am
    25     8     9    2
    26     8    10    1
    27    10    11    1
    28    10    27    1
    29    27    28   ar
    30    28    29   ar
    31    29    30    1
    32    29    31   ar
    33    31    32   ar
    34    32    33    1
    35    32    34   ar
    36    10    12    1
    37    20    13   ar
    38     6     1   ar
    39    34    27   ar
    40    12     4    1
    41    16    21    1
    42    16    22    1
    43    19    23    1
    44    19    24    1
    45    37    40    1
    46    42    43    1
@<TRIPOS>MOLECULE
*****
 43 46 0 0 0
SMALL
GASTEIGER

@<TRIPOS>ATOM
      1 C           0.6577    1.9622   27.0334 C.ar    1  UNL1        0.0053
      2 C          -0.5677    2.3428   26.2566 C.ar    1  UNL1        0.0033
      3 C          -0.6265    2.0930   24.7788 C.ar    1  UNL1        0.0382
      4 C           0.5402    1.4628   24.0776 C.ar    1  UNL1        0.1529
      5 C           1.7656    1.0822   24.8544 C.ar    1  UNL1        0.0882
      6 C           1.8244    1.3319   26.3323 C.ar    1  UNL1        0.0181
      7 N           2.9323    0.4519   24.1533 N.am    1  UNL1       -0.2512
      8 C           2.8736    0.2022   22.6754 C.2     1  UNL1        0.2698
      9 O           4.0403   -0.4281   21.9743 O.2     1  UNL1       -0.2704
     10 C           1.6481    0.5828   21.8986 C.3     1  UNL1        0.2199
     11 C           0.7153    0.7666   20.7384 C.3     1  UNL1        0.0579
     12 O           0.4814    1.2130   22.5997 O.3     1  UNL1       -0.4686
     13 C           0.3486    1.1199   29.4717 C.ar    1  UNL1        0.0645
     14 N           0.4074    1.3696   30.9495 N.ar    1  UNL1       -0.2183
     15 C           0.8341    2.7112   31.4672 C.ar    1  UNL1        0.2145
     16 N           0.8929    2.9609   32.9450 N.pl3   1  UNL1       -0.3274
     17 N           1.2021    3.8032   30.5069 N.ar    1  UNL1       -0.1995
     18 C           1.1433    3.5535   29.0289 C.ar    1  UNL1        0.1293
     19 N           1.5112    4.6455   28.0686 N.pl3   1  UNL1       -0.3425
     20 C           0.7165    2.2119   28.5113 C.ar    1  UNL1        0.0449
     21 H           0.6514    2.2442   33.5753 H       1  UNL1        0.1452
     22 H           1.1730    3.8414   33.2848 H       1  UNL1        0.1452
     23 H           1.7913    5.5260   28.4083 H       1  UNL1        0.1437
     24 H           1.4726    4.4816   27.0986 H       1  UNL1        0.1437
     25 C          -1.5369   -0.5507   28.8359 C.3     1  UNL1        0.0067
     26 C          -0.0782   -0.2218   28.9540 C.3     1  UNL1        0.0460
     27 C           2.4908    0.0163   20.7946 C.ar    1  UNL1        0.0264
     28 C           2.4588   -1.4553   20.5062 C.ar    1  UNL1        0.0293
     29 C           3.3016   -2.0218   19.4021 C.ar    1  UNL1        0.1422
     30 F           3.2696   -3.4935   19.1139 F       1  UNL1       -0.2041
     31 C           4.1763   -1.1166   18.5864 C.ar    1  UNL1        0.0592
     32 C           4.2082    0.3551   18.8748 C.ar    1  UNL1        0.1422
     33 F           5.0830    1.2603   18.0590 F       1  UNL1       -0.2041
     34 C           3.3655    0.9216   19.9788 C.ar    1  UNL1        0.0293
     35 C           4.1578    0.0713   24.9300 C.3     1  UNL1        0.1196
     36 C           4.3540   -1.3482   25.3733 C.3     1  UNL1        0.1114
     37 N           4.5028   -2.4385   24.3539 N.am    1  UNL1       -0.3006
     38 C           5.8582   -2.7711   23.8040 C.2     1  UNL1        0.2524
     39 O           7.0647   -2.0133   24.2734 O.2     1  UNL1       -0.2724
     40 H           3.7110   -2.9358   24.0459 H       1  UNL1        0.1496
     41 C           6.0071   -3.8613   22.7846 C.3     1  UNL1        0.2229
     42 O           4.8547   -4.2164   21.8924 O.3     1  UNL1       -0.3737
     43 H           4.1360   -4.5901   22.4259 H       1  UNL1        0.2110
@<TRIPOS>BOND
     1    25    26    1
     2    26    13    1
     3    13    14   ar
     4    14    15   ar
     5    15    16    1
     6    15    17   ar
     7    17    18   ar
     8    18    19    1
     9    18    20   ar
    10    20     1    1
    11     1     2   ar
    12     2     3   ar
    13     3     4   ar
    14     4     5   ar
    15     5     6   ar
    16     5     7    1
    17     7    35    1
    18    35    36    1
    19    36    37    1
    20    37    38   am
    21    38    39    2
    22    38    41    1
    23    41    42    1
    24     7     8   am
    25     8     9    2
    26     8    10    1
    27    10    11    1
    28    10    27    1
    29    27    28   ar
    30    28    29   ar
    31    29    30    1
    32    29    31   ar
    33    31    32   ar
    34    32    33    1
    35    32    34   ar
    36    10    12    1
    37    20    13   ar
    38     6     1   ar
    39    34    27   ar
    40    12     4    1
    41    16    21    1
    42    16    22    1
    43    19    23    1
    44    19    24    1
    45    37    40    1
    46    42    43    1
@<TRIPOS>MOLECULE
*****
 43 46 0 0 0
SMALL
GASTEIGER

@<TRIPOS>ATOM
      1 C           0.6789    1.9199   26.9000 C.ar    1  UNL1        0.0053
      2 C          -0.5230    2.3425   26.1084 C.ar    1  UNL1        0.0033
      3 C          -0.5719    2.0954   24.6297 C.ar    1  UNL1        0.0382
      4 C           0.5812    1.4257   23.9427 C.ar    1  UNL1        0.1529
      5 C           1.7831    1.0032   24.7343 C.ar    1  UNL1        0.0882
      6 C           1.8320    1.2503   26.2130 C.ar    1  UNL1        0.0181
      7 N           2.9362    0.3335   24.0473 N.am    1  UNL1       -0.2512
      8 C           2.8873    0.0865   22.5686 C.2     1  UNL1        0.2698
      9 O           4.0404   -0.5832   21.8816 O.2     1  UNL1       -0.2704
     10 C           1.6853    0.5090   21.7769 C.3     1  UNL1        0.2199
     11 C           0.7739    0.7251   20.6054 C.3     1  UNL1        0.0579
     12 O           0.5323    1.1787   22.4639 O.3     1  UNL1       -0.4686
     13 C           0.3050    1.0900   29.3335 C.ar    1  UNL1        0.0645
     14 N           0.3538    1.3370   30.8122 N.ar    1  UNL1       -0.2183
     15 C           0.8256    2.6610   31.3362 C.ar    1  UNL1        0.2145
     16 N           0.8745    2.9080   32.8149 N.pl3   1  UNL1       -0.3274
     17 N           1.2484    3.7380   30.3816 N.ar    1  UNL1       -0.1995
     18 C           1.1995    3.4909   28.9028 C.ar    1  UNL1        0.1293
     19 N           1.6224    4.5678   27.9481 N.pl3   1  UNL1       -0.3425
     20 C           0.7278    2.1670   28.3788 C.ar    1  UNL1        0.0449
     21 H           0.5970    2.2012   33.4415 H       1  UNL1        0.1452
     22 H           1.1841    3.7770   33.1589 H       1  UNL1        0.1452
     23 H           1.9320    5.4368   28.2920 H       1  UNL1        0.1437
     24 H           1.5903    4.4057   26.9776 H       1  UNL1        0.1437
     25 C          -1.6185   -0.6011   28.8971 C.3     1  UNL1        0.0067
     26 C          -0.1668   -0.2340   28.8094 C.3     1  UNL1        0.0460
     27 C           2.5218   -0.0855   20.6830 C.ar    1  UNL1        0.0264
     28 C           2.4628   -1.5594   20.4106 C.ar    1  UNL1        0.0293
     29 C           3.2994   -2.1540   19.3166 C.ar    1  UNL1        0.1422
     30 F           3.2403   -3.6279   19.0442 F       1  UNL1       -0.2041
     31 C           4.1949   -1.2748   18.4952 C.ar    1  UNL1        0.0592
     32 C           4.2540    0.1990   18.7677 C.ar    1  UNL1        0.1422
     33 F           5.1496    1.0783   17.9462 F       1  UNL1       -0.2041
     34 C           3.4175    0.7937   19.8616 C.ar    1  UNL1        0.0293
     35 C           4.1381   -0.0890   24.8390 C.3     1  UNL1        0.1196
     36 C           4.1422   -1.4106   25.5484 C.3     1  UNL1        0.1114
     37 N           3.5102   -1.5366   26.9030 N.am    1  UNL1       -0.3006
     38 C           4.0992   -0.8105   28.0759 C.2     1  UNL1        0.2524
     39 O           5.3202    0.0418   27.8942 O.2     1  UNL1       -0.2724
     40 H           2.7088   -2.0960   27.0222 H       1  UNL1        0.1496
     41 C           3.4672   -0.9364   29.4304 C.3     1  UNL1        0.2229
     42 O           3.4117    0.2508   30.3455 O.3     1  UNL1       -0.3737
     43 H           4.3118    0.4986   30.6087 H       1  UNL1        0.2110
@<TRIPOS>BOND
     1    25    26    1
     2    26    13    1
     3    13    14   ar
     4    14    15   ar
     5    15    16    1
     6    15    17   ar
     7    17    18   ar
     8    18    19    1
     9    18    20   ar
    10    20     1    1
    11     1     2   ar
    12     2     3   ar
    13     3     4   ar
    14     4     5   ar
    15     5     6   ar
    16     5     7    1
    17     7    35    1
    18    35    36    1
    19    36    37    1
    20    37    38   am
    21    38    39    2
    22    38    41    1
    23    41    42    1
    24     7     8   am
    25     8     9    2
    26     8    10    1
    27    10    11    1
    28    10    27    1
    29    27    28   ar
    30    28    29   ar
    31    29    30    1
    32    29    31   ar
    33    31    32   ar
    34    32    33    1
    35    32    34   ar
    36    10    12    1
    37    20    13   ar
    38     6     1   ar
    39    34    27   ar
    40    12     4    1
    41    16    21    1
    42    16    22    1
    43    19    23    1
    44    19    24    1
    45    37    40    1
    46    42    43    1
@<TRIPOS>MOLECULE
*****
 43 46 0 0 0
SMALL
GASTEIGER

@<TRIPOS>ATOM
      1 C           0.6853    1.6813   26.5852 C.ar    1  UNL1        0.0053
      2 C          -0.4991    2.0922   25.7616 C.ar    1  UNL1        0.0033
      3 C          -0.5013    1.8548   24.2806 C.ar    1  UNL1        0.0382
      4 C           0.6808    1.2065   23.6231 C.ar    1  UNL1        0.1529
      5 C           1.8652    0.7957   24.4467 C.ar    1  UNL1        0.0882
      6 C           1.8675    1.0331   25.9277 C.ar    1  UNL1        0.0181
      7 N           3.0474    0.1474   23.7892 N.am    1  UNL1       -0.2512
      8 C           3.0451   -0.0900   22.3081 C.2     1  UNL1        0.2698
      9 O           4.2273   -0.7383   21.6507 O.2     1  UNL1       -0.2704
     10 C           1.8607    0.3209   21.4845 C.3     1  UNL1        0.2199
     11 C           0.9807    0.5321   20.2883 C.3     1  UNL1        0.0579
     12 O           0.6785    0.9691   22.1419 O.3     1  UNL1       -0.4686
     13 C           1.2712    3.1838   28.6222 C.ar    1  UNL1        0.0645
     14 N           1.2735    3.4213   30.1033 N.ar    1  UNL1       -0.2183
     15 C           0.6922    2.3936   31.0286 C.ar    1  UNL1        0.2145
     16 N           0.6946    2.6310   32.5096 N.pl3   1  UNL1       -0.3274
     17 N           0.1087    1.1285   30.4727 N.ar    1  UNL1       -0.1995
     18 C           0.1064    0.8911   28.9915 C.ar    1  UNL1        0.1293
     19 N          -0.4771   -0.3740   28.4357 N.pl3   1  UNL1       -0.3425
     20 C           0.6876    1.9187   28.0664 C.ar    1  UNL1        0.0449
     21 H           1.0776    3.4613   32.8744 H       1  UNL1        0.1452
     22 H           0.3131    1.9565   33.1169 H       1  UNL1        0.1452
     23 H          -0.8586   -1.0485   29.0429 H       1  UNL1        0.1437
     24 H          -0.4786   -0.5299   27.4636 H       1  UNL1        0.1437
     25 C           0.9758    5.2844   27.1220 C.3     1  UNL1        0.0067
     26 C           1.8524    4.2116   27.6969 C.3     1  UNL1        0.0460
     27 C           2.7372   -0.2540   20.4116 C.ar    1  UNL1        0.0264
     28 C           2.7131   -1.7277   20.1330 C.ar    1  UNL1        0.0293
     29 C           3.5897   -2.3026   19.0600 C.ar    1  UNL1        0.1422
     30 F           3.5655   -3.7764   18.7815 F       1  UNL1       -0.2041
     31 C           4.4903   -1.4039   18.2658 C.ar    1  UNL1        0.0592
     32 C           4.5144    0.0697   18.5444 C.ar    1  UNL1        0.1422
     33 F           5.4151    0.9685   17.7500 F       1  UNL1       -0.2041
     34 C           3.6379    0.6447   19.6172 C.ar    1  UNL1        0.0293
     35 C           4.2318   -0.2634   24.6128 C.3     1  UNL1        0.1196
     36 C           4.3894   -1.6930   25.0390 C.3     1  UNL1        0.1114
     37 N           4.7472   -2.7419   24.0280 N.am    1  UNL1       -0.3006
     38 C           6.1807   -2.9501   23.6386 C.2     1  UNL1        0.2524
     39 O           7.2565   -2.1095   24.2602 O.2     1  UNL1       -0.2724
     40 H           4.0412   -3.2936   23.6201 H       1  UNL1        0.1496
     41 C           6.5386   -3.9990   22.6278 C.3     1  UNL1        0.2229
     42 O           5.6331   -4.2546   21.4596 O.3     1  UNL1       -0.3737
     43 H           4.7904   -4.6155   21.7766 H       1  UNL1        0.2110
@<TRIPOS>BOND
     1    25    26    1
     2    26    13    1
     3    13    14   ar
     4    14    15   ar
     5    15    16    1
     6    15    17   ar
     7    17    18   ar
     8    18    19    1
     9    18    20   ar
    10    20     1    1
    11     1     2   ar
    12     2     3   ar
    13     3     4   ar
    14     4     5   ar
    15     5     6   ar
    16     5     7    1
    17     7    35    1
    18    35    36    1
    19    36    37    1
    20    37    38   am
    21    38    39    2
    22    38    41    1
    23    41    42    1
    24     7     8   am
    25     8     9    2
    26     8    10    1
    27    10    11    1
    28    10    27    1
    29    27    28   ar
    30    28    29   ar
    31    29    30    1
    32    29    31   ar
    33    31    32   ar
    34    32    33    1
    35    32    34   ar
    36    10    12    1
    37    20    13   ar
    38     6     1   ar
    39    34    27   ar
    40    12     4    1
    41    16    21    1
    42    16    22    1
    43    19    23    1
    44    19    24    1
    45    37    40    1
    46    42    43    1
@<TRIPOS>MOLECULE
*****
 43 46 0 0 0
SMALL
GASTEIGER

@<TRIPOS>ATOM
      1 C           0.6916    1.7260   26.7701 C.ar    1  UNL1        0.0053
      2 C          -0.5586    2.0578   26.0106 C.ar    1  UNL1        0.0033
      3 C          -0.6204    1.8257   24.5300 C.ar    1  UNL1        0.0382
      4 C           0.5679    1.2618   23.8089 C.ar    1  UNL1        0.1529
      5 C           1.8181    0.9301   24.5685 C.ar    1  UNL1        0.0882
      6 C           1.8799    1.1621   26.0491 C.ar    1  UNL1        0.0181
      7 N           3.0064    0.3662   23.8474 N.am    1  UNL1       -0.2512
      8 C           2.9446    0.1341   22.3668 C.2     1  UNL1        0.2698
      9 O           4.1329   -0.4298   21.6457 O.2     1  UNL1       -0.2704
     10 C           1.6943    0.4659   21.6072 C.3     1  UNL1        0.2199
     11 C           0.7420    0.6205   20.4586 C.3     1  UNL1        0.0579
     12 O           0.5060    1.0297   22.3282 O.3     1  UNL1       -0.4686
     13 C           1.0526    3.3281   28.7834 C.ar    1  UNL1        0.0645
     14 N           1.1145    3.5602   30.2640 N.ar    1  UNL1       -0.2183
     15 C           0.8773    2.4223   31.2121 C.ar    1  UNL1        0.2145
     16 N           0.9392    2.6545   32.6927 N.pl3   1  UNL1       -0.3274
     17 N           0.5781    1.0523   30.6796 N.ar    1  UNL1       -0.1995
     18 C           0.5162    0.8202   29.1989 C.ar    1  UNL1        0.1293
     19 N           0.2171   -0.5498   28.6664 N.pl3   1  UNL1       -0.3425
     20 C           0.7535    1.9581   28.2508 C.ar    1  UNL1        0.0449
     21 H           1.1355    3.5536   33.0422 H       1  UNL1        0.1452
     22 H           0.7834    1.9076   33.3150 H       1  UNL1        0.1452
     23 H           0.0613   -1.2966   29.2886 H       1  UNL1        0.1437
     24 H           0.1764   -0.7021   27.6946 H       1  UNL1        0.1437
     25 C           0.1770    5.4190   27.5139 C.3     1  UNL1        0.0067
     26 C           1.2899    4.4660   27.8352 C.3     1  UNL1        0.0460
     27 C           2.5519   -0.0443   20.4873 C.ar    1  UNL1        0.0264
     28 C           2.5881   -1.5118   20.1790 C.ar    1  UNL1        0.0293
     29 C           3.4458   -2.0220   19.0590 C.ar    1  UNL1        0.1422
     30 F           3.4819   -3.4896   18.7508 F       1  UNL1       -0.2041
     31 C           4.2671   -1.0647   18.2474 C.ar    1  UNL1        0.0592
     32 C           4.2309    0.4028   18.5556 C.ar    1  UNL1        0.1422
     33 F           5.0523    1.3601   17.7439 F       1  UNL1       -0.2041
     34 C           3.3733    0.9131   19.6756 C.ar    1  UNL1        0.0293
     35 C           4.2566    0.0344   24.6070 C.3     1  UNL1        0.1196
     36 C           4.4094   -1.3131   25.2479 C.3     1  UNL1        0.1114
     37 N           5.2350   -1.4630   26.4913 N.am    1  UNL1       -0.3006
     38 C           4.5670   -1.5153   27.8333 C.2     1  UNL1        0.2524
     39 O           3.0734   -1.4177   27.9319 O.2     1  UNL1       -0.2724
     40 H           6.2153   -1.5270   26.4265 H       1  UNL1        0.1496
     41 C           5.3926   -1.6651   29.0767 C.3     1  UNL1        0.2229
     42 O           6.7143   -0.9647   29.1883 O.3     1  UNL1       -0.3737
     43 H           7.3319   -1.3341   28.5379 H       1  UNL1        0.2110
@<TRIPOS>BOND
     1    25    26    1
     2    26    13    1
     3    13    14   ar
     4    14    15   ar
     5    15    16    1
     6    15    17   ar
     7    17    18   ar
     8    18    19    1
     9    18    20   ar
    10    20     1    1
    11     1     2   ar
    12     2     3   ar
    13     3     4   ar
    14     4     5   ar
    15     5     6   ar
    16     5     7    1
    17     7    35    1
    18    35    36    1
    19    36    37    1
    20    37    38   am
    21    38    39    2
    22    38    41    1
    23    41    42    1
    24     7     8   am
    25     8     9    2
    26     8    10    1
    27    10    11    1
    28    10    27    1
    29    27    28   ar
    30    28    29   ar
    31    29    30    1
    32    29    31   ar
    33    31    32   ar
    34    32    33    1
    35    32    34   ar
    36    10    12    1
    37    20    13   ar
    38     6     1   ar
    39    34    27   ar
    40    12     4    1
    41    16    21    1
    42    16    22    1
    43    19    23    1
    44    19    24    1
    45    37    40    1
    46    42    43    1
@<TRIPOS>MOLECULE
*****
 43 46 0 0 0
SMALL
GASTEIGER

@<TRIPOS>ATOM
      1 C           4.9377   -1.3830   19.4019 C.ar    1  UNL1        0.0053
      2 C           4.5162   -1.2881   17.9655 C.ar    1  UNL1        0.0033
      3 C           3.4131   -0.3528   17.5679 C.ar    1  UNL1        0.0382
      4 C           2.7314    0.4876   18.6066 C.ar    1  UNL1        0.1529
      5 C           3.1529    0.3928   20.0430 C.ar    1  UNL1        0.0882
      6 C           4.2561   -0.5426   20.4407 C.ar    1  UNL1        0.0181
      7 N           2.4713    1.2332   21.0818 N.am    1  UNL1       -0.2512
      8 C           1.3682    2.1685   20.6842 C.2     1  UNL1        0.2698
      9 O           0.6865    3.0090   21.7229 O.2     1  UNL1       -0.2704
     10 C           0.9466    2.2635   19.2477 C.3     1  UNL1        0.2199
     11 C           0.1981    2.7033   18.0245 C.3     1  UNL1        0.0579
     12 O           1.6282    1.4230   18.2090 O.3     1  UNL1       -0.4686
     13 C           5.7135   -3.6904   20.3098 C.ar    1  UNL1        0.0645
     14 N           6.8166   -4.6258   20.7075 N.ar    1  UNL1       -0.2183
     15 C           8.2472   -4.1892   20.5950 C.ar    1  UNL1        0.2145
     16 N           9.3503   -5.1245   20.9927 N.pl3   1  UNL1       -0.3274
     17 N           8.5747   -2.8172   20.0847 N.ar    1  UNL1       -0.1995
     18 C           7.4715   -1.8818   19.6870 C.ar    1  UNL1        0.1293
     19 N           7.7990   -0.5098   19.1768 N.pl3   1  UNL1       -0.3425
     20 C           6.0409   -2.3184   19.7996 C.ar    1  UNL1        0.0449
     21 H           9.1354   -6.0250   21.3276 H       1  UNL1        0.1452
     22 H          10.2893   -4.8380   20.9188 H       1  UNL1        0.1452
     23 H           8.7380   -0.2232   19.1029 H       1  UNL1        0.1437
     24 H           7.0750    0.1042   18.9158 H       1  UNL1        0.1437
     25 C           3.6006   -4.7701   19.2515 C.3     1  UNL1        0.0067
     26 C           4.2828   -4.1271   20.4224 C.3     1  UNL1        0.0460
     27 C           0.0050    3.2566   19.8617 C.ar    1  UNL1        0.0264
     28 C          -1.3156    2.8002   20.4072 C.ar    1  UNL1        0.0293
     29 C          -2.2572    3.7934   21.0211 C.ar    1  UNL1        0.1422
     30 F          -3.5779    3.3368   21.5666 F       1  UNL1       -0.2041
     31 C          -1.8782    5.2430   21.0896 C.ar    1  UNL1        0.0592
     32 C          -0.5576    5.6995   20.5441 C.ar    1  UNL1        0.1422
     33 F          -0.1786    7.1493   20.6126 F       1  UNL1       -0.2041
     34 C           0.3841    4.7064   19.9302 C.ar    1  UNL1        0.0293
     35 C           2.8928    1.1383   22.5182 C.3     1  UNL1        0.1196
     36 C           2.0766    0.3363   23.4880 C.3     1  UNL1        0.1114
     37 N           2.6192    0.0317   24.8529 N.am    1  UNL1       -0.3006
     38 C           3.6560   -1.0383   25.0262 C.2     1  UNL1        0.2524
     39 O           4.1502   -1.8038   23.8345 O.2     1  UNL1       -0.2724
     40 H           2.2948    0.5341   25.6349 H       1  UNL1        0.1496
     41 C           4.1986   -1.3429   26.3910 C.3     1  UNL1        0.2229
     42 O           3.3411   -2.0496   27.3985 O.3     1  UNL1       -0.3737
     43 H           2.5948   -1.4806   27.6438 H       1  UNL1        0.2110
@<TRIPOS>BOND
     1    25    26    1
     2    26    13    1
     3    13    14   ar
     4    14    15   ar
     5    15    16    1
     6    15    17   ar
     7    17    18   ar
     8    18    19    1
     9    18    20   ar
    10    20     1    1
    11     1     2   ar
    12     2     3   ar
    13     3     4   ar
    14     4     5   ar
    15     5     6   ar
    16     5     7    1
    17     7    35    1
    18    35    36    1
    19    36    37    1
    20    37    38   am
    21    38    39    2
    22    38    41    1
    23    41    42    1
    24     7     8   am
    25     8     9    2
    26     8    10    1
    27    10    11    1
    28    10    27    1
    29    27    28   ar
    30    28    29   ar
    31    29    30    1
    32    29    31   ar
    33    31    32   ar
    34    32    33    1
    35    32    34   ar
    36    10    12    1
    37    20    13   ar
    38     6     1   ar
    39    34    27   ar
    40    12     4    1
    41    16    21    1
    42    16    22    1
    43    19    23    1
    44    19    24    1
    45    37    40    1
    46    42    43    1
@<TRIPOS>MOLECULE
*****
 43 46 0 0 0
SMALL
GASTEIGER

@<TRIPOS>ATOM
      1 C           7.1653   -3.9686   26.0685 C.ar    1  UNL1        0.0053
      2 C           7.6506   -4.9278   25.0224 C.ar    1  UNL1        0.0033
      3 C           7.2853   -4.7158   23.5832 C.ar    1  UNL1        0.0382
      4 C           6.4346   -3.5446   23.1900 C.ar    1  UNL1        0.1529
      5 C           5.9493   -2.5854   24.2360 C.ar    1  UNL1        0.0882
      6 C           6.3146   -2.7974   25.6753 C.ar    1  UNL1        0.0181
      7 N           5.0986   -1.4142   23.8429 N.am    1  UNL1       -0.2512
      8 C           4.7333   -1.2021   22.4036 C.2     1  UNL1        0.2698
      9 O           3.8826   -0.0309   22.0104 O.2     1  UNL1       -0.2704
     10 C           5.2186   -2.1614   21.3574 C.3     1  UNL1        0.2199
     11 C           5.4345   -2.7896   20.0126 C.3     1  UNL1        0.0579
     12 O           6.0693   -3.3326   21.7506 O.3     1  UNL1       -0.4686
     13 C           8.7087   -3.4623   28.0962 C.ar    1  UNL1        0.0645
     14 N           9.0740   -3.6742   29.5355 N.ar    1  UNL1       -0.2183
     15 C           8.2613   -4.6045   30.3865 C.ar    1  UNL1        0.2145
     16 N           8.6267   -4.8165   31.8258 N.pl3   1  UNL1       -0.3274
     17 N           7.0833   -5.3228   29.7981 N.ar    1  UNL1       -0.1995
     18 C           6.7179   -5.1109   28.3588 C.ar    1  UNL1        0.1293
     19 N           5.5399   -5.8292   27.7704 N.pl3   1  UNL1       -0.3425
     20 C           7.5306   -4.1806   27.5079 C.ar    1  UNL1        0.0449
     21 H           9.3999   -4.3450   32.2119 H       1  UNL1        0.1452
     22 H           8.0933   -5.4270   32.3843 H       1  UNL1        0.1452
     23 H           5.0064   -6.4397   28.3289 H       1  UNL1        0.1437
     24 H           5.3001   -5.6901   26.8257 H       1  UNL1        0.1437
     25 C           9.3306   -1.0488   27.3624 C.3     1  UNL1        0.0067
     26 C           9.5214   -2.5320   27.2452 C.3     1  UNL1        0.0460
     27 C           4.4429   -1.2084   20.4972 C.ar    1  UNL1        0.0264
     28 C           5.1613   -0.1477   19.7168 C.ar    1  UNL1        0.0293
     29 C           4.3855    0.8053   18.8565 C.ar    1  UNL1        0.1422
     30 F           5.1040    1.8660   18.0761 F       1  UNL1       -0.2041
     31 C           2.8916    0.6978   18.7767 C.ar    1  UNL1        0.0592
     32 C           2.1733   -0.3628   19.5571 C.ar    1  UNL1        0.1422
     33 F           0.6793   -0.4704   19.4773 F       1  UNL1       -0.2041
     34 C           2.9489   -1.3159   20.4174 C.ar    1  UNL1        0.0293
     35 C           4.6133   -0.4549   24.8889 C.3     1  UNL1        0.1196
     36 C           3.1730   -0.4675   25.3077 C.3     1  UNL1        0.1114
     37 N           2.7783    0.0663   26.6528 N.am    1  UNL1       -0.3006
     38 C           3.0731   -0.7278   27.8908 C.2     1  UNL1        0.2524
     39 O           3.7626   -2.0557   27.7835 O.2     1  UNL1       -0.2724
     40 H           2.3258    0.9378   26.7232 H       1  UNL1        0.1496
     41 C           2.6785   -0.1941   29.2359 C.3     1  UNL1        0.2229
     42 O           1.3886   -0.6286   29.8662 O.3     1  UNL1       -0.3737
     43 H           0.6440   -0.3020   29.3372 H       1  UNL1        0.2110
@<TRIPOS>BOND
     1    25    26    1
     2    26    13    1
     3    13    14   ar
     4    14    15   ar
     5    15    16    1
     6    15    17   ar
     7    17    18   ar
     8    18    19    1
     9    18    20   ar
    10    20     1    1
    11     1     2   ar
    12     2     3   ar
    13     3     4   ar
    14     4     5   ar
    15     5     6   ar
    16     5     7    1
    17     7    35    1
    18    35    36    1
    19    36    37    1
    20    37    38   am
    21    38    39    2
    22    38    41    1
    23    41    42    1
    24     7     8   am
    25     8     9    2
    26     8    10    1
    27    10    11    1
    28    10    27    1
    29    27    28   ar
    30    28    29   ar
    31    29    30    1
    32    29    31   ar
    33    31    32   ar
    34    32    33    1
    35    32    34   ar
    36    10    12    1
    37    20    13   ar
    38     6     1   ar
    39    34    27   ar
    40    12     4    1
    41    16    21    1
    42    16    22    1
    43    19    23    1
    44    19    24    1
    45    37    40    1
    46    42    43    1
@<TRIPOS>MOLECULE
*****
 43 46 0 0 0
SMALL
GASTEIGER

@<TRIPOS>ATOM
      1 C           1.3274    1.4405   26.5703 C.ar    1  UNL1        0.0053
      2 C           0.3892    2.1625   25.6492 C.ar    1  UNL1        0.0033
      3 C           0.4717    1.9386   24.1684 C.ar    1  UNL1        0.0382
      4 C           1.4924    0.9927   23.6085 C.ar    1  UNL1        0.1529
      5 C           2.4306    0.2707   24.5296 C.ar    1  UNL1        0.0882
      6 C           2.3481    0.4946   26.0105 C.ar    1  UNL1        0.0181
      7 N           3.4513   -0.6752   23.9698 N.am    1  UNL1       -0.2512
      8 C           3.5338   -0.8992   22.4889 C.2     1  UNL1        0.2698
      9 O           4.5545   -1.8451   21.9291 O.2     1  UNL1       -0.2704
     10 C           2.5955   -0.1772   21.5678 C.3     1  UNL1        0.2199
     11 C           1.9317    0.2703   20.2993 C.3     1  UNL1        0.0579
     12 O           1.5748    0.7688   22.1276 O.3     1  UNL1       -0.4686
     13 C           0.2084    0.9446   28.8620 C.ar    1  UNL1        0.0645
     14 N           0.1259    1.1685   30.3429 N.ar    1  UNL1       -0.2183
     15 C           1.0801    2.1122   31.0131 C.ar    1  UNL1        0.2145
     16 N           0.9976    2.3361   32.4939 N.pl3   1  UNL1       -0.3274
     17 N           2.1167    2.8320   30.2023 N.ar    1  UNL1       -0.1995
     18 C           2.1991    2.6081   28.7213 C.ar    1  UNL1        0.1293
     19 N           3.2357    3.3280   27.9105 N.pl3   1  UNL1       -0.3425
     20 C           1.2450    1.6644   28.0512 C.ar    1  UNL1        0.0449
     21 H           0.3173    1.8636   33.0261 H       1  UNL1        0.1452
     22 H           1.6238    2.9555   32.9338 H       1  UNL1        0.1452
     23 H           3.8619    3.9474   28.3504 H       1  UNL1        0.1437
     24 H           3.2898    3.1810   26.9386 H       1  UNL1        0.1437
     25 C          -1.7797   -0.7220   29.0032 C.3     1  UNL1        0.0067
     26 C          -0.7457    0.0009   28.1918 C.3     1  UNL1        0.0460
     27 C           3.3857   -0.9677   20.5675 C.ar    1  UNL1        0.0264
     28 C           4.6500   -0.4005   19.9933 C.ar    1  UNL1        0.0293
     29 C           5.4402   -1.1911   18.9930 C.ar    1  UNL1        0.1422
     30 F           6.7047   -0.6237   18.4189 F       1  UNL1       -0.2041
     31 C           4.9660   -2.5487   18.5667 C.ar    1  UNL1        0.0592
     32 C           3.7017   -3.1159   19.1408 C.ar    1  UNL1        0.1422
     33 F           3.2274   -4.4736   18.7146 F       1  UNL1       -0.2041
     34 C           2.9114   -2.3254   20.1412 C.ar    1  UNL1        0.0293
     35 C           4.3895   -1.3972   24.8908 C.3     1  UNL1        0.1196
     36 C           5.7832   -0.8821   25.0964 C.3     1  UNL1        0.1114
     37 N           6.0932    0.5638   24.8442 N.am    1  UNL1       -0.3006
     38 C           5.9190    1.5707   25.9423 C.2     1  UNL1        0.2524
     39 O           5.4348    1.1318   27.2925 O.2     1  UNL1       -0.2724
     40 H           6.4110    0.8518   23.9581 H       1  UNL1        0.1496
     41 C           6.2289    3.0165   25.6902 C.3     1  UNL1        0.2229
     42 O           5.1185    4.0236   25.6381 O.3     1  UNL1       -0.3737
     43 H           4.5535    3.8425   24.8707 H       1  UNL1        0.2110
@<TRIPOS>BOND
     1    25    26    1
     2    26    13    1
     3    13    14   ar
     4    14    15   ar
     5    15    16    1
     6    15    17   ar
     7    17    18   ar
     8    18    19    1
     9    18    20   ar
    10    20     1    1
    11     1     2   ar
    12     2     3   ar
    13     3     4   ar
    14     4     5   ar
    15     5     6   ar
    16     5     7    1
    17     7    35    1
    18    35    36    1
    19    36    37    1
    20    37    38   am
    21    38    39    2
    22    38    41    1
    23    41    42    1
    24     7     8   am
    25     8     9    2
    26     8    10    1
    27    10    11    1
    28    10    27    1
    29    27    28   ar
    30    28    29   ar
    31    29    30    1
    32    29    31   ar
    33    31    32   ar
    34    32    33    1
    35    32    34   ar
    36    10    12    1
    37    20    13   ar
    38     6     1   ar
    39    34    27   ar
    40    12     4    1
    41    16    21    1
    42    16    22    1
    43    19    23    1
    44    19    24    1
    45    37    40    1
    46    42    43    1
@<TRIPOS>MOLECULE
*****
 43 46 0 0 0
SMALL
GASTEIGER

@<TRIPOS>ATOM
      1 C           2.6203    0.3848   28.0532 C.ar    1  UNL1        0.0053
      2 C           3.3721   -0.8699   28.3853 C.ar    1  UNL1        0.0033
      3 C           4.0306   -1.6607   27.2940 C.ar    1  UNL1        0.0382
      4 C           3.9373   -1.1968   25.8706 C.ar    1  UNL1        0.1529
      5 C           3.1855    0.0580   25.5385 C.ar    1  UNL1        0.0882
      6 C           2.5269    0.8488   26.6298 C.ar    1  UNL1        0.0181
      7 N           3.0922    0.5219   24.1151 N.am    1  UNL1       -0.2512
      8 C           3.7507   -0.2689   23.0238 C.2     1  UNL1        0.2698
      9 O           3.6574    0.1950   21.6004 O.2     1  UNL1       -0.2704
     10 C           4.5026   -1.5237   23.3559 C.3     1  UNL1        0.2199
     11 C           5.3207   -2.7674   23.1715 C.3     1  UNL1        0.0579
     12 O           4.5959   -1.9876   24.7793 O.3     1  UNL1       -0.4686
     13 C           0.5521    0.8631   29.5513 C.ar    1  UNL1        0.0645
     14 N          -0.1065    1.6539   30.6425 N.ar    1  UNL1       -0.2183
     15 C           0.6445    2.7574   31.3270 C.ar    1  UNL1        0.2145
     16 N          -0.0141    3.5482   32.4182 N.pl3   1  UNL1       -0.3274
     17 N           2.0541    3.0700   30.9202 N.ar    1  UNL1       -0.1995
     18 C           2.7126    2.2791   29.8289 C.ar    1  UNL1        0.1293
     19 N           4.1222    2.5917   29.4221 N.pl3   1  UNL1       -0.3425
     20 C           1.9617    1.1757   29.1445 C.ar    1  UNL1        0.0449
     21 H          -0.9392    3.3431   32.6852 H       1  UNL1        0.1452
     22 H           0.4788    4.2724   32.8675 H       1  UNL1        0.1452
     23 H           4.6151    3.3159   29.8714 H       1  UNL1        0.1437
     24 H           4.5544    2.0726   28.7059 H       1  UNL1        0.1437
     25 C          -1.6850   -0.3533   29.0357 C.3     1  UNL1        0.0067
     26 C          -0.1988   -0.2403   28.8667 C.3     1  UNL1        0.0460
     27 C           4.6934   -1.4917   21.8685 C.ar    1  UNL1        0.0264
     28 C           3.8329   -2.3439   20.9834 C.ar    1  UNL1        0.0293
     29 C           4.0238   -2.3118   19.4959 C.ar    1  UNL1        0.1422
     30 F           3.1632   -3.1641   18.6109 F       1  UNL1       -0.2041
     31 C           5.0750   -1.4277   18.8935 C.ar    1  UNL1        0.0592
     32 C           5.9355   -0.5755   19.7786 C.ar    1  UNL1        0.1422
     33 F           6.9868    0.3087   19.1761 F       1  UNL1       -0.2041
     34 C           5.7447   -0.6075   21.2661 C.ar    1  UNL1        0.0293
     35 C           2.3403    1.7766   23.7830 C.3     1  UNL1        0.1196
     36 C           1.0891    1.7053   22.9587 C.3     1  UNL1        0.1114
     37 N           1.1142    2.1269   21.5194 N.am    1  UNL1       -0.3006
     38 C           0.5349    1.2307   20.4652 C.2     1  UNL1        0.2524
     39 O          -0.0693   -0.0871   20.8504 O.2     1  UNL1       -0.2724
     40 H           1.5108    2.9918   21.2666 H       1  UNL1        0.1496
     41 C           0.5600    1.6522   19.0259 C.3     1  UNL1        0.2229
     42 O           0.9166    0.6592   17.9597 O.3     1  UNL1       -0.3737
     43 H           1.8421    0.3892   18.0658 H       1  UNL1        0.2110
@<TRIPOS>BOND
     1    25    26    1
     2    26    13    1
     3    13    14   ar
     4    14    15   ar
     5    15    16    1
     6    15    17   ar
     7    17    18   ar
     8    18    19    1
     9    18    20   ar
    10    20     1    1
    11     1     2   ar
    12     2     3   ar
    13     3     4   ar
    14     4     5   ar
    15     5     6   ar
    16     5     7    1
    17     7    35    1
    18    35    36    1
    19    36    37    1
    20    37    38   am
    21    38    39    2
    22    38    41    1
    23    41    42    1
    24     7     8   am
    25     8     9    2
    26     8    10    1
    27    10    11    1
    28    10    27    1
    29    27    28   ar
    30    28    29   ar
    31    29    30    1
    32    29    31   ar
    33    31    32   ar
    34    32    33    1
    35    32    34   ar
    36    10    12    1
    37    20    13   ar
    38     6     1   ar
    39    34    27   ar
    40    12     4    1
    41    16    21    1
    42    16    22    1
    43    19    23    1
    44    19    24    1
    45    37    40    1
    46    42    43    1
